REMARK  Name = ZINC39673644
REMARK  9 active torsions:
REMARK  status: ('A' for Active; 'I' for Inactive)
REMARK    1  A    between atoms: C_1  and  C_2
REMARK    2  A    between atoms: C_2  and  C_3
REMARK    3  A    between atoms: C_3  and  C_4
REMARK    4  A    between atoms: C_4  and  C_6
REMARK    5  A    between atoms: C_4  and  N_7
REMARK    6  A    between atoms: C_8  and  C_10
REMARK    7  A    between atoms: C_21  and  C_23
REMARK    8  A    between atoms: C_24  and  C_36
REMARK    9  A    between atoms: C_27  and  C_28
REMARK                            x       y       z     vdW  Elec       q    Type
REMARK                         _______ _______ _______ _____ _____    ______ ____
ROOT
ATOM      1  C   UNL     1      -2.427  -3.563   1.749  0.00  0.00    +0.100 C 
ATOM      2  C   UNL     1      -3.405  -2.786   0.838  0.00  0.00    +0.121 C 
ATOM      3  N   UNL     1      -3.508  -3.610  -0.389  0.00  0.00    -0.296 N 
ATOM      4  C   UNL     1      -3.526  -5.008   0.105  0.00  0.00    +0.115 C 
ATOM      5  C   UNL     1      -2.513  -5.021   1.266  0.00  0.00    -0.004 C 
ATOM      6  C   UNL     1      -1.150  -5.494   0.770  0.00  0.00    -0.010 C 
ATOM      7  C   UNL     1      -1.247  -6.963   0.349  0.00  0.00    -0.082 C 
ATOM      8  N   UNL     1      -1.682  -7.774   1.493  0.00  0.00    +0.379 N 
ATOM      9  C   UNL     1      -3.033  -7.374   1.905  0.00  0.00    -0.082 C 
ATOM     10  C   UNL     1      -3.011  -5.922   2.392  0.00  0.00    -0.010 C 
ATOM     11  C   UNL     1      -3.571  -3.185  -1.667  0.00  0.00    +0.252 C 
ATOM     12  O   UNL     1      -3.654  -3.991  -2.573  0.00  0.00    -0.270 OA
ATOM     13  H   UNL     1      -1.687  -8.748   1.231  0.00  0.00    -0.086 HD
ATOM     14  H   UNL     1      -1.043  -7.639   2.262  0.00  0.00    -0.086 HD
ENDROOT
BRANCH  11  15
ATOM     15  C   UNL     1      -3.538  -1.743  -1.965  0.00  0.00    +0.106 A 
ATOM     16  C   UNL     1      -2.428  -0.986  -2.202  0.00  0.00    +0.147 A 
ATOM     17  O   UNL     1      -2.819   0.270  -2.431  0.00  0.00    -0.359 OA
ATOM     18  N   UNL     1      -4.228   0.349  -2.344  0.00  0.00    -0.077 NA
ATOM     19  C   UNL     1      -4.696  -0.842  -2.071  0.00  0.00    +0.130 A 
ATOM     20  C   UNL     1      -1.005  -1.482  -2.205  0.00  0.00    +0.090 C 
BRANCH  19  21
ATOM     21  C   UNL     1      -6.121  -1.213  -1.898  0.00  0.00    +0.058 A 
ATOM     22  C   UNL     1      -6.656  -2.292  -2.604  0.00  0.00    +0.134 A 
ATOM     23  C   UNL     1      -7.986  -2.632  -2.438  0.00  0.00    +0.039 A 
ATOM     24  C   UNL     1      -8.785  -1.905  -1.573  0.00  0.00    +0.004 A 
ATOM     25  C   UNL     1      -8.261  -0.836  -0.871  0.00  0.00    +0.021 A 
ATOM     26  C   UNL     1      -6.932  -0.488  -1.024  0.00  0.00    +0.053 A 
ATOM     27 CL   UNL     1      -6.275   0.850  -0.136  0.00  0.00    -0.083 Cl
ATOM     28  F   UNL     1      -5.876  -3.002  -3.449  0.00  0.00    -0.205 F 
ENDBRANCH  19  21
ENDBRANCH  11  15
BRANCH   1  30
ATOM     29  N   UNL     1      -0.125  -3.194   2.574  0.00  0.00    -0.312 N 
ATOM     30  C   UNL     1      -1.025  -3.037   1.583  0.00  0.00    +0.218 C 
ATOM     31  O   UNL     1      -0.706  -2.473   0.558  0.00  0.00    -0.275 OA
ATOM     32  H   UNL     1      -0.380  -3.646   3.394  0.00  0.00    +0.149 HD
BRANCH  29  33
ATOM     33  C   UNL     1       1.238  -2.682   2.413  0.00  0.00    +0.070 C 
ATOM     34  C   UNL     1       2.088  -3.719   1.676  0.00  0.00    +0.028 C 
BRANCH  33  35
ATOM     35  C   UNL     1       1.847  -2.410   3.790  0.00  0.00    +0.022 C 
BRANCH  35  37
ATOM     36  C   UNL     1       1.679  -1.013   5.855  0.00  0.00    +0.004 C 
ATOM     37  C   UNL     1       1.071  -1.285   4.478  0.00  0.00    -0.002 C 
ENDBRANCH  35  37
ENDBRANCH  33  35
ENDBRANCH  29  33
ENDBRANCH   1  30
TORSDOF 6
