REMARK  Name = ZINC20558514
REMARK  5 active torsions:
REMARK  status: ('A' for Active; 'I' for Inactive)
REMARK    1  A    between atoms: C_4  and  C_7
REMARK    2  A    between atoms: C_9  and  C_33
REMARK    3  A    between atoms: C_10  and  N_32
REMARK    4  A    between atoms: N_17  and  C_24
REMARK    5  A    between atoms: C_24  and  C_25
REMARK                            x       y       z     vdW  Elec       q    Type
REMARK                         _______ _______ _______ _____ _____    ______ ____
ROOT
ATOM      1  C   UNL     1      -2.142  -3.034  -1.564  0.00  0.00    +0.118 C 
ATOM      2  C   UNL     1      -2.538  -4.361  -0.975  0.00  0.00    +0.099 C 
ATOM      3  C   UNL     1      -2.377  -4.594   0.352  0.00  0.00    +0.199 C 
ATOM      4  O   UNL     1      -1.868  -3.656   1.166  0.00  0.00    -0.439 OA
ATOM      5  C   UNL     1      -1.128  -2.634   0.659  0.00  0.00    +0.162 C 
ATOM      6  C   UNL     1      -1.225  -2.302  -0.624  0.00  0.00    +0.141 C 
ATOM      7  S   UNL     1      -0.253  -0.961  -1.234  0.00  0.00    +0.076 S 
ATOM      8  O   UNL     1      -1.081  -0.215  -2.116  0.00  0.00    -0.150 OA
ATOM      9  O   UNL     1       0.999  -1.505  -1.628  0.00  0.00    -0.150 OA
ATOM     10  N   UNL     1       0.031  -0.001   0.097  0.00  0.00    -0.198 N 
ATOM     11  C   UNL     1       0.312  -0.653   1.303  0.00  0.00    +0.062 A 
ATOM     12  C   UNL     1      -0.221  -1.913   1.584  0.00  0.00    +0.042 A 
ATOM     13  C   UNL     1       0.101  -2.530   2.799  0.00  0.00    +0.013 A 
ATOM     14  C   UNL     1       0.924  -1.896   3.704  0.00  0.00    +0.001 A 
ATOM     15  C   UNL     1       1.441  -0.644   3.422  0.00  0.00    +0.002 A 
ATOM     16  C   UNL     1       1.137  -0.023   2.226  0.00  0.00    +0.025 A 
ENDROOT
BRANCH   1  20
ATOM     17  C   UNL     1      -5.644  -0.684  -2.241  0.00  0.00    +0.000 A 
ATOM     18  C   UNL     1      -4.829  -1.032  -3.302  0.00  0.00    +0.000 A 
ATOM     19  C   UNL     1      -3.696  -1.792  -3.083  0.00  0.00    +0.004 A 
ATOM     20  C   UNL     1      -3.378  -2.205  -1.803  0.00  0.00    -0.033 A 
ATOM     21  C   UNL     1      -4.195  -1.862  -0.743  0.00  0.00    +0.004 A 
ATOM     22  C   UNL     1      -5.326  -1.097  -0.961  0.00  0.00    +0.000 A 
ENDBRANCH   1  20
BRANCH   3  23
ATOM     23  N   UNL     1      -2.742  -5.811   0.871  0.00  0.00    -0.328 N 
ATOM     24  H   UNL     1      -2.616  -6.011   1.945  0.00  0.00    +0.145 HD
ATOM     25  H   UNL     1      -3.160  -6.587   0.212  0.00  0.00    +0.145 HD
ENDBRANCH   3  23
BRANCH   2  26
ATOM     26  C   UNL     1      -3.087  -5.380  -1.818  0.00  0.00    +0.101 C 
ATOM     27  N   UNL     1      -3.523  -6.189  -2.486  0.00  0.00    -0.191 NA
ENDBRANCH   2  26
BRANCH  10  28
ATOM     28  C   UNL     1      -0.018   1.461   0.010  0.00  0.00    +0.169 C 
BRANCH  28  29
ATOM     29  C   UNL     1      -1.398   1.940   0.381  0.00  0.00    +0.007 A 
ATOM     30  C   UNL     1      -2.300   2.280  -0.610  0.00  0.00    +0.008 A 
ATOM     31  C   UNL     1      -3.568   2.715  -0.270  0.00  0.00    +0.000 A 
ATOM     32  C   UNL     1      -3.930   2.821   1.060  0.00  0.00    +0.003 A 
ATOM     33  C   UNL     1      -3.028   2.487   2.051  0.00  0.00    +0.038 A 
ATOM     34  C   UNL     1      -1.759   2.046   1.712  0.00  0.00    +0.128 A 
ATOM     35  F   UNL     1      -0.876   1.720   2.681  0.00  0.00    -0.205 F 
ENDBRANCH  28  29
ENDBRANCH  10  28
TORSDOF 5
