REMARK  Name = ZINC25382632
REMARK  13 active torsions:
REMARK  status: ('A' for Active; 'I' for Inactive)
REMARK    1  A    between atoms: C_1  and  N_2
REMARK    2  A    between atoms: N_2  and  C_3
REMARK    3  A    between atoms: N_2  and  C_4
REMARK    4  A    between atoms: C_4  and  C_6
REMARK    5  A    between atoms: C_4  and  C_13
REMARK    6  A    between atoms: C_6  and  C_7
REMARK    7  A    between atoms: C_13  and  N_14
REMARK    8  A    between atoms: C_15  and  C_17
REMARK    9  A    between atoms: C_17  and  C_19
REMARK   10  A    between atoms: C_17  and  N_26
REMARK   11  A    between atoms: C_19  and  C_20
REMARK   12  A    between atoms: N_26  and  S_27
REMARK   13  A    between atoms: S_27  and  C_30
REMARK                            x       y       z     vdW  Elec       q    Type
REMARK                         _______ _______ _______ _____ _____    ______ ____
ROOT
ATOM      1  C   UNL     1       1.011   1.548  -0.790  0.00  0.00    +0.166 C 
ENDROOT
BRANCH   1   3
ATOM      2  N   UNL     1       3.400   1.048  -0.390  0.00  0.00    -0.315 N 
ATOM      3  C   UNL     1       2.114   0.667  -0.263  0.00  0.00    +0.232 C 
ATOM      4  O   UNL     1       1.844  -0.386   0.276  0.00  0.00    -0.274 OA
ATOM      5  H   UNL     1       3.645   2.003  -0.878  0.00  0.00    +0.149 HD
BRANCH   2   6
ATOM      6  C   UNL     1       4.472   0.191   0.123  0.00  0.00    +0.089 C 
BRANCH   6   7
ATOM      7  C   UNL     1       5.817   0.900  -0.047  0.00  0.00    -0.048 C 
BRANCH   7   9
ATOM      8  C   UNL     1       6.744   0.150   2.060  0.00  0.00    -0.096 C 
ATOM      9  N   UNL     1       6.873   0.109   0.598  0.00  0.00    +0.379 N 
ATOM     10  C   UNL     1       6.867  -1.276   0.108  0.00  0.00    -0.096 C 
ATOM     11  H   UNL     1       7.842   0.557   0.331  0.00  0.00    -0.082 HD
ENDBRANCH   7   9
BRANCH   7  12
ATOM     12  C   UNL     1       6.130   1.049  -1.538  0.00  0.00    +0.021 C 
BRANCH  12  13
ATOM     13  C   UNL     1       7.392   1.855  -1.708  0.00  0.00    -0.049 A 
ATOM     14  C   UNL     1       7.324   3.230  -1.827  0.00  0.00    +0.003 A 
ATOM     15  C   UNL     1       8.482   3.969  -1.978  0.00  0.00    +0.000 A 
ATOM     16  C   UNL     1       9.708   3.332  -2.022  0.00  0.00    +0.000 A 
ATOM     17  C   UNL     1       9.776   1.956  -1.908  0.00  0.00    +0.000 A 
ATOM     18  C   UNL     1       8.618   1.217  -1.751  0.00  0.00    +0.003 A 
ENDBRANCH  12  13
ENDBRANCH   7  12
ENDBRANCH   6   7
ENDBRANCH   2   6
ENDBRANCH   1   3
BRANCH   1  19
ATOM     19  N   UNL     1      -0.285   0.916  -0.531  0.00  0.00    -0.178 NA
ATOM     20  H   UNL     1      -0.755   0.289  -1.304  0.00  0.00    +0.149 HD
BRANCH  19  21
ATOM     21  S   UNL     1      -1.158   1.336   0.811  0.00  0.00    +0.062 S 
ATOM     22  O   UNL     1      -2.341   0.549   0.789  0.00  0.00    -0.153 OA
ATOM     23  O   UNL     1      -0.253   1.320   1.906  0.00  0.00    -0.153 OA
BRANCH  21  24
ATOM     24  C   UNL     1      -1.664   3.011   0.601  0.00  0.00    +0.140 A 
ATOM     25  C   UNL     1      -2.984   3.304   0.314  0.00  0.00    +0.031 A 
ATOM     26  C   UNL     1      -3.381   4.618   0.155  0.00  0.00    +0.002 A 
ATOM     27  C   UNL     1      -2.458   5.640   0.270  0.00  0.00    +0.003 A 
ATOM     28  C   UNL     1      -1.136   5.349   0.551  0.00  0.00    +0.040 A 
ATOM     29  C   UNL     1      -0.738   4.034   0.717  0.00  0.00    +0.150 A 
ATOM     30  F   UNL     1       0.554   3.748   0.992  0.00  0.00    -0.203 F 
ENDBRANCH  21  24
ENDBRANCH  19  21
ENDBRANCH   1  19
BRANCH   1  31
ATOM     31  C   UNL     1       1.191   1.744  -2.296  0.00  0.00    +0.065 C 
BRANCH  31  32
ATOM     32  C   UNL     1       0.113   2.659  -2.817  0.00  0.00    -0.045 A 
ATOM     33  C   UNL     1      -1.042   2.127  -3.360  0.00  0.00    +0.004 A 
ATOM     34  C   UNL     1      -2.034   2.967  -3.832  0.00  0.00    +0.000 A 
ATOM     35  C   UNL     1      -1.866   4.338  -3.772  0.00  0.00    +0.000 A 
ATOM     36  C   UNL     1      -0.709   4.869  -3.233  0.00  0.00    +0.000 A 
ATOM     37  C   UNL     1       0.281   4.030  -2.756  0.00  0.00    +0.004 A 
ENDBRANCH  31  32
ENDBRANCH   1  31
TORSDOF 11
