REMARK  Name = ZINC08199511
REMARK  8 active torsions:
REMARK  status: ('A' for Active; 'I' for Inactive)
REMARK    1  A    between atoms: C_1  and  N_2
REMARK    2  A    between atoms: C_3  and  N_27
REMARK    3  A    between atoms: C_4  and  C_11
REMARK    4  A    between atoms: N_7  and  C_10
REMARK    5  A    between atoms: C_11  and  C_13
REMARK    6  A    between atoms: C_13  and  C_25
REMARK    7  A    between atoms: C_14  and  C_15
REMARK    8  A    between atoms: C_18  and  C_21
REMARK                            x       y       z     vdW  Elec       q    Type
REMARK                         _______ _______ _______ _____ _____    ______ ____
ROOT
ATOM      1  C   UNL     1       1.275   2.106  -0.066  0.00  0.00    +0.212 C 
ATOM      2  O   UNL     1       1.272   3.231  -0.533  0.00  0.00    -0.286 OA
ENDROOT
BRANCH   1   6
ATOM      3  C   UNL     1       5.549   1.678   2.375  0.00  0.00    +0.155 C 
ATOM      4  N   UNL     1       4.610   1.205   1.355  0.00  0.00    -0.284 N 
ATOM      5  C   UNL     1       3.439   1.881   1.157  0.00  0.00    +0.116 A 
ATOM      6  C   UNL     1       2.544   1.419   0.181  0.00  0.00    +0.125 A 
ATOM      7  C   UNL     1       2.922   0.228  -0.587  0.00  0.00    +0.269 A 
ATOM      8  O   UNL     1       2.184  -0.214  -1.449  0.00  0.00    -0.267 OA
ATOM      9  N   UNL     1       4.102  -0.367  -0.320  0.00  0.00    -0.263 N 
ATOM     10  C   UNL     1       4.918   0.118   0.630  0.00  0.00    +0.333 A 
ATOM     11  O   UNL     1       5.974  -0.447   0.841  0.00  0.00    -0.246 OA
ATOM     12  C   UNL     1       4.500  -1.558  -1.076  0.00  0.00    +0.157 C 
BRANCH   5  13
ATOM     13  N   UNL     1       3.144   2.986   1.897  0.00  0.00    -0.344 N 
ATOM     14  H   UNL     1       2.346   3.501   1.703  0.00  0.00    +0.144 HD
ATOM     15  H   UNL     1       3.732   3.257   2.620  0.00  0.00    +0.144 HD
ENDBRANCH   5  13
ENDBRANCH   1   6
BRANCH   1  16
ATOM     16  C   UNL     1       0.000   1.437   0.249  0.00  0.00    +0.100 C 
ATOM     17  C   UNL     1      -1.179   2.107   0.095  0.00  0.00    +0.030 C 
BRANCH  17  18
ATOM     18  C   UNL     1      -2.453   1.395   0.249  0.00  0.00    -0.024 A 
ATOM     19  C   UNL     1      -2.558   0.049  -0.126  0.00  0.00    +0.008 A 
ATOM     20  C   UNL     1      -3.757  -0.614   0.026  0.00  0.00    +0.013 A 
ATOM     21  C   UNL     1      -4.859   0.050   0.539  0.00  0.00    +0.055 A 
ATOM     22  C   UNL     1      -4.766   1.381   0.907  0.00  0.00    +0.013 A 
ATOM     23  C   UNL     1      -3.573   2.058   0.766  0.00  0.00    +0.008 A 
BRANCH  21  24
ATOM     24  C   UNL     1      -6.167  -0.681   0.696  0.00  0.00    +0.417 C 
ATOM     25  F   UNL     1      -6.920  -0.545  -0.475  0.00  0.00    -0.166 F 
ATOM     26  F   UNL     1      -5.918  -2.037   0.935  0.00  0.00    -0.166 F 
ATOM     27  F   UNL     1      -6.877  -0.140   1.772  0.00  0.00    -0.166 F 
ENDBRANCH  21  24
ENDBRANCH  17  18
BRANCH  16  28
ATOM     28  C   UNL     1      -0.001   0.081   0.712  0.00  0.00    +0.103 C 
ATOM     29  N   UNL     1      -0.002  -0.994   1.079  0.00  0.00    -0.191 NA
ENDBRANCH  16  28
ENDBRANCH   1  16
TORSDOF 6
