REMARK  Name = ZINC09073699
REMARK  16 active torsions:
REMARK  status: ('A' for Active; 'I' for Inactive)
REMARK    1  A    between atoms: C_1  and  C_2
REMARK    2  A    between atoms: C_2  and  N_68
REMARK    3  A    between atoms: C_3  and  C_4
REMARK    4  A    between atoms: C_3  and  N_68
REMARK    5  A    between atoms: C_5  and  C_6
REMARK    6  A    between atoms: C_5  and  N_68
REMARK    7  A    between atoms: C_6  and  C_7
REMARK    8  A    between atoms: C_7  and  N_8
REMARK    9  A    between atoms: C_9  and  C_25
REMARK   10  A    between atoms: C_12  and  C_13
REMARK   11  A    between atoms: C_12  and  O_20
REMARK   12  A    between atoms: C_28  and  O_33
REMARK   13  A    between atoms: C_29  and  O_31
REMARK   14  A    between atoms: O_31  and  C_32
REMARK   15  A    between atoms: O_33  and  C_34
REMARK   16  A    between atoms: C_34  and  C_35
REMARK                            x       y       z     vdW  Elec       q    Type
REMARK                         _______ _______ _______ _____ _____    ______ ____
ROOT
ATOM      1  N   UNL     1       0.439   0.859   2.067  0.00  0.00    -0.284 N 
ATOM      2  C   UNL     1       1.143   1.742   3.001  0.00  0.00    +0.145 C 
ATOM      3  C   UNL     1       1.738   0.856   4.071  0.00  0.00    +0.071 C 
ATOM      4  C   UNL     1       2.488   1.258   5.158  0.00  0.00    +0.133 C 
ATOM      5  C   UNL     1       1.375  -0.458   3.736  0.00  0.00    +0.249 C 
ATOM      6  O   UNL     1       1.668  -1.462   4.360  0.00  0.00    -0.282 OA
ATOM      7  C   UNL     1       0.564  -0.411   2.488  0.00  0.00    +0.288 C 
ATOM      8  O   UNL     1       0.089  -1.379   1.931  0.00  0.00    -0.266 OA
ENDROOT
BRANCH   4   9
ATOM      9  C   UNL     1       2.868   0.280   6.191  0.00  0.00    +0.017 A 
ATOM     10  C   UNL     1       1.897  -0.541   6.774  0.00  0.00    +0.013 A 
ATOM     11  C   UNL     1       2.261  -1.458   7.737  0.00  0.00    +0.021 A 
ATOM     12  C   UNL     1       3.584  -1.560   8.136  0.00  0.00    +0.041 A 
ATOM     13  C   UNL     1       4.551  -0.746   7.566  0.00  0.00    +0.021 A 
ATOM     14  C   UNL     1       4.202   0.171   6.599  0.00  0.00    +0.013 A 
ATOM     15 CL   UNL     1       4.033  -2.712   9.354  0.00  0.00    -0.084 Cl
ENDBRANCH   4   9
BRANCH   2  16
ATOM     16  C   UNL     1       0.174   2.718   3.618  0.00  0.00    -0.019 A 
ATOM     17  C   UNL     1      -1.091   2.296   3.982  0.00  0.00    +0.009 A 
ATOM     18  C   UNL     1      -1.982   3.186   4.554  0.00  0.00    +0.050 A 
ATOM     19  C   UNL     1      -1.611   4.506   4.753  0.00  0.00    +0.162 A 
ATOM     20  C   UNL     1      -0.339   4.932   4.380  0.00  0.00    +0.162 A 
ATOM     21  C   UNL     1       0.551   4.034   3.813  0.00  0.00    +0.055 A 
BRANCH  20  22
ATOM     22  O   UNL     1       0.030   6.226   4.574  0.00  0.00    -0.491 OA
ATOM     23  C   UNL     1       1.350   6.592   4.168  0.00  0.00    +0.277 C 
ENDBRANCH  20  22
BRANCH  19  24
ATOM     24  O   UNL     1      -2.487   5.384   5.309  0.00  0.00    -0.489 OA
BRANCH  24  25
ATOM     25  C   UNL     1      -3.775   4.877   5.667  0.00  0.00    +0.226 C 
ATOM     26  C   UNL     1      -4.616   6.002   6.273  0.00  0.00    +0.048 C 
ENDBRANCH  24  25
ENDBRANCH  19  24
ENDBRANCH   2  16
BRANCH   4  27
ATOM     27  O   UNL     1       2.872   2.546   5.274  0.00  0.00    -0.506 OA
ATOM     28  H   UNL     1       3.403   2.662   6.113  0.00  0.00    +0.292 HD
ENDBRANCH   4  27
BRANCH   1  29
ATOM     29  C   UNL     1      -0.289   1.290   0.872  0.00  0.00    +0.107 C 
BRANCH  29  30
ATOM     30  C   UNL     1       0.662   1.307  -0.327  0.00  0.00    +0.000 C 
BRANCH  30  31
ATOM     31  C   UNL     1      -0.098   1.759  -1.575  0.00  0.00    -0.077 C 
BRANCH  31  32
ATOM     32  N   UNL     1       0.864   1.906  -2.688  0.00  0.00    +0.379 N 
ATOM     33  H   UNL     1       1.714   2.360  -2.336  0.00  0.00    -0.082 HD
BRANCH  32  35
ATOM     34  C   UNL     1       2.373   0.739  -4.219  0.00  0.00    -0.017 C 
ATOM     35  C   UNL     1       1.218   0.577  -3.228  0.00  0.00    -0.082 C 
ENDBRANCH  32  35
BRANCH  32  36
ATOM     36  C   UNL     1       0.278   2.745  -3.754  0.00  0.00    -0.082 C 
ATOM     37  C   UNL     1       0.350   4.210  -3.320  0.00  0.00    -0.017 C 
ENDBRANCH  32  36
ENDBRANCH  31  32
ENDBRANCH  30  31
ENDBRANCH  29  30
ENDBRANCH   1  29
TORSDOF 12
