REMARK  Name = ZINC20533252
REMARK  7 active torsions:
REMARK  status: ('A' for Active; 'I' for Inactive)
REMARK    1  A    between atoms: C_1  and  O_2
REMARK    2  A    between atoms: O_2  and  C_3
REMARK    3  A    between atoms: C_8  and  O_9
REMARK    4  A    between atoms: O_9  and  C_10
REMARK    5  A    between atoms: C_11  and  C_16
REMARK    6  A    between atoms: N_22  and  C_25
REMARK    7  A    between atoms: C_29  and  C_31
REMARK                            x       y       z     vdW  Elec       q    Type
REMARK                         _______ _______ _______ _____ _____    ______ ____
ROOT
ATOM      1  C   UNL     1       1.766  -3.770  -5.479  0.00  0.00    +0.072 A 
ATOM      2  C   UNL     1       0.392  -3.536  -5.291  0.00  0.00    +0.260 A 
ATOM      3  N   UNL     1      -0.420  -4.564  -4.973  0.00  0.00    -0.274 N 
ATOM      4  H   UNL     1      -1.368  -4.405  -4.842  0.00  0.00    +0.173 HD
ATOM      5  C   UNL     1       0.074  -5.808  -4.835  0.00  0.00    +0.337 A 
ATOM      6  O   UNL     1      -0.675  -6.721  -4.548  0.00  0.00    -0.246 OA
ATOM      7  N   UNL     1       1.385  -6.055  -5.010  0.00  0.00    -0.229 N 
ATOM      8  C   UNL     1       2.247  -5.038  -5.340  0.00  0.00    +0.267 A 
ATOM      9  O   UNL     1       3.561  -5.291  -5.522  0.00  0.00    -0.267 OA
ATOM     10  O   UNL     1      -0.061  -2.412  -5.414  0.00  0.00    -0.267 OA
ENDROOT
BRANCH   1  17
ATOM     11  C   UNL     1       2.869   0.071  -2.523  0.00  0.00    +0.162 A 
ATOM     12  C   UNL     1       2.808   0.568  -3.813  0.00  0.00    +0.053 A 
ATOM     13  C   UNL     1       2.747  -0.298  -4.894  0.00  0.00    -0.044 A 
ATOM     14  C   UNL     1       2.748  -1.662  -4.688  0.00  0.00    -0.050 A 
ATOM     15  C   UNL     1       2.806  -2.164  -3.396  0.00  0.00    +0.052 A 
ATOM     16  C   UNL     1       2.872  -1.305  -2.313  0.00  0.00    +0.162 A 
ATOM     17  C   UNL     1       2.692  -2.636  -5.835  0.00  0.00    +0.001 C 
ATOM     18  N   UNL     1       2.203  -1.976  -7.049  0.00  0.00    +0.387 N 
ATOM     19  C   UNL     1       3.027  -0.787  -7.314  0.00  0.00    -0.077 C 
ATOM     20  C   UNL     1       2.679   0.286  -6.282  0.00  0.00    +0.016 C 
ATOM     21  H   UNL     1       2.268  -2.613  -7.829  0.00  0.00    -0.085 HD
ATOM     22  H   UNL     1       1.242  -1.698  -6.918  0.00  0.00    -0.085 HD
BRANCH  11  24
ATOM     23  C   UNL     1       2.922   2.322  -1.757  0.00  0.00    +0.277 C 
ATOM     24  O   UNL     1       2.929   0.923  -1.464  0.00  0.00    -0.491 OA
ENDBRANCH  11  24
BRANCH  16  25
ATOM     25  O   UNL     1       2.935  -1.803  -1.050  0.00  0.00    -0.491 OA
ATOM     26  C   UNL     1       2.935  -3.225  -0.912  0.00  0.00    +0.277 C 
ENDBRANCH  16  25
ENDBRANCH   1  17
BRANCH   7  27
ATOM     27  C   UNL     1       1.873  -7.360  -4.861  0.00  0.00    +0.055 A 
ATOM     28  C   UNL     1       1.921  -8.215  -5.955  0.00  0.00    +0.026 A 
ATOM     29  C   UNL     1       2.402  -9.500  -5.804  0.00  0.00    +0.003 A 
ATOM     30  C   UNL     1       2.837  -9.937  -4.566  0.00  0.00    +0.012 A 
ATOM     31  C   UNL     1       2.790  -9.089  -3.475  0.00  0.00    +0.057 A 
ATOM     32  C   UNL     1       2.316  -7.800  -3.621  0.00  0.00    +0.038 A 
BRANCH  31  33
ATOM     33  C   UNL     1       3.264  -9.569  -2.127  0.00  0.00    +0.417 C 
ATOM     34  F   UNL     1       3.700 -10.894  -2.232  0.00  0.00    -0.166 F 
ATOM     35  F   UNL     1       4.320  -8.763  -1.690  0.00  0.00    -0.166 F 
ATOM     36  F   UNL     1       2.210  -9.495  -1.210  0.00  0.00    -0.166 F 
ENDBRANCH  31  33
ENDBRANCH   7  27
TORSDOF 5
