REMARK  Name = ZINC45863702
REMARK  9 active torsions:
REMARK  status: ('A' for Active; 'I' for Inactive)
REMARK    1  A    between atoms: C_1  and  O_2
REMARK    2  A    between atoms: O_2  and  C_3
REMARK    3  A    between atoms: C_6  and  C_9
REMARK    4  A    between atoms: C_9  and  C_11
REMARK    5  A    between atoms: C_9  and  C_28
REMARK    6  A    between atoms: C_11  and  N_12
REMARK    7  A    between atoms: C_13  and  C_15
REMARK    8  A    between atoms: C_18  and  N_20
REMARK    9  A    between atoms: C_21  and  C_23
REMARK                            x       y       z     vdW  Elec       q    Type
REMARK                         _______ _______ _______ _____ _____    ______ ____
ROOT
ATOM      1  C   UNL     1       2.587  -2.550   4.310  0.00  0.00    +0.068 C 
ENDROOT
BRANCH   1   2
ATOM      2  C   UNL     1       3.726  -3.388   3.789  0.00  0.00    -0.013 A 
ATOM      3  C   UNL     1       3.635  -4.405   2.918  0.00  0.00    +0.088 A 
ATOM      4  N   UNL     1       4.877  -4.927   2.679  0.00  0.00    -0.360 N 
ATOM      5  H   UNL     1       5.065  -5.670   2.084  0.00  0.00    +0.165 HD
ATOM      6  C   UNL     1       5.822  -4.240   3.408  0.00  0.00    +0.047 A 
ATOM      7  C   UNL     1       5.143  -3.241   4.130  0.00  0.00    +0.003 A 
ATOM      8  C   UNL     1       5.856  -2.377   4.963  0.00  0.00    +0.010 A 
ATOM      9  C   UNL     1       7.213  -2.502   5.069  0.00  0.00    +0.001 A 
ATOM     10  C   UNL     1       7.888  -3.483   4.355  0.00  0.00    +0.002 A 
ATOM     11  C   UNL     1       7.202  -4.353   3.535  0.00  0.00    +0.026 A 
ENDBRANCH   1   2
BRANCH   1  15
ATOM     12  C   UNL     1       0.626  -0.618   1.042  0.00  0.00    +0.120 A 
ATOM     13  C   UNL     1       1.202   0.138   2.051  0.00  0.00    +0.046 A 
ATOM     14  C   UNL     1       1.835  -0.488   3.107  0.00  0.00    +0.008 A 
ATOM     15  C   UNL     1       1.895  -1.869   3.158  0.00  0.00    -0.038 A 
ATOM     16  C   UNL     1       1.322  -2.625   2.152  0.00  0.00    +0.008 A 
ATOM     17  C   UNL     1       0.682  -2.003   1.098  0.00  0.00    +0.046 A 
BRANCH  12  19
ATOM     18  C   UNL     1      -0.017   1.425   0.010  0.00  0.00    +0.277 C 
ATOM     19  O   UNL     1       0.002  -0.004   0.002  0.00  0.00    -0.495 OA
ENDBRANCH  12  19
ENDBRANCH   1  15
BRANCH   1  20
ATOM     20  C   UNL     1       1.589  -3.447   5.046  0.00  0.00    +0.117 C 
BRANCH  20  21
ATOM     21  N   UNL     1       2.228  -4.016   6.235  0.00  0.00    -0.310 N 
ATOM     22  C   UNL     1       1.535  -4.844   7.042  0.00  0.00    +0.251 C 
ATOM     23  O   UNL     1       0.377  -5.118   6.782  0.00  0.00    -0.270 OA
ATOM     24  H   UNL     1       3.150  -3.797   6.441  0.00  0.00    +0.149 HD
BRANCH  22  25
ATOM     25  C   UNL     1       2.172  -5.411   8.228  0.00  0.00    +0.076 A 
ATOM     26  C   UNL     1       1.641  -6.278   9.174  0.00  0.00    +0.022 A 
ATOM     27  C   UNL     1       2.484  -6.646  10.190  0.00  0.00    +0.032 A 
ATOM     28  C   UNL     1       3.764  -6.142  10.200  0.00  0.00    +0.073 A 
ATOM     29  S   UNL     1       3.834  -5.175   8.828  0.00  0.00    -0.069 S 
BRANCH  28  30
ATOM     30  N   UNL     1       4.769  -6.383  11.126  0.00  0.00    -0.273 N 
ATOM     31  C   UNL     1       5.976  -5.800  10.979  0.00  0.00    +0.284 C 
ATOM     32  O   UNL     1       6.184  -5.063  10.034  0.00  0.00    -0.266 OA
ATOM     33  H   UNL     1       4.603  -6.971  11.880  0.00  0.00    +0.156 HD
BRANCH  31  34
ATOM     34  C   UNL     1       7.037  -6.054  11.958  0.00  0.00    +0.189 A 
ATOM     35  C   UNL     1       8.296  -5.527  11.931  0.00  0.00    +0.054 A 
ATOM     36  C   UNL     1       8.971  -6.037  13.052  0.00  0.00    +0.042 A 
ATOM     37  C   UNL     1       8.105  -6.842  13.705  0.00  0.00    +0.196 A 
ATOM     38  O   UNL     1       6.939  -6.846  13.046  0.00  0.00    -0.458 OA
ENDBRANCH  31  34
ENDBRANCH  28  30
ENDBRANCH  22  25
ENDBRANCH  20  21
ENDBRANCH   1  20
TORSDOF 8
