REMARK  Name = ZINC09342892
REMARK  12 active torsions:
REMARK  status: ('A' for Active; 'I' for Inactive)
REMARK    1  A    between atoms: C_1  and  C_2
REMARK    2  A    between atoms: C_2  and  C_3
REMARK    3  A    between atoms: C_3  and  C_5
REMARK    4  A    between atoms: C_3  and  N_6
REMARK    5  A    between atoms: N_6  and  S_7
REMARK    6  A    between atoms: S_7  and  C_10
REMARK    7  A    between atoms: C_13  and  N_16
REMARK    8  A    between atoms: C_17  and  C_19
REMARK    9  A    between atoms: C_19  and  C_20
REMARK   10  A    between atoms: C_20  and  N_21
REMARK   11  A    between atoms: N_21  and  S_22
REMARK   12  A    between atoms: S_22  and  C_25
REMARK                            x       y       z     vdW  Elec       q    Type
REMARK                         _______ _______ _______ _____ _____    ______ ____
ROOT
ATOM      1  N   UNL     1       2.468  -1.752   5.102  0.00  0.00    -0.285 N 
ATOM      2  C   UNL     1       1.737  -2.436   6.004  0.00  0.00    +0.218 C 
ATOM      3  O   UNL     1       0.604  -2.774   5.736  0.00  0.00    -0.275 OA
ATOM      4  H   UNL     1       3.398  -1.548   5.285  0.00  0.00    +0.155 HD
ENDROOT
BRANCH   1   8
ATOM      5  C   UNL     1       0.730  -0.509   1.525  0.00  0.00    +0.105 A 
ATOM      6  C   UNL     1       2.065  -0.870   1.555  0.00  0.00    +0.030 A 
ATOM      7  C   UNL     1       2.645  -1.278   2.740  0.00  0.00    +0.025 A 
ATOM      8  C   UNL     1       1.884  -1.335   3.901  0.00  0.00    +0.033 A 
ATOM      9  C   UNL     1       0.543  -0.976   3.866  0.00  0.00    +0.025 A 
ATOM     10  C   UNL     1      -0.030  -0.565   2.679  0.00  0.00    +0.030 A 
BRANCH   5  11
ATOM     11  S   UNL     1      -0.004   0.017   0.013  0.00  0.00    +0.059 S 
ATOM     12  O   UNL     1      -1.399  -0.227   0.132  0.00  0.00    -0.153 OA
ATOM     13  O   UNL     1       0.779  -0.538  -1.034  0.00  0.00    -0.153 OA
BRANCH  11  14
ATOM     14  N   UNL     1       0.182   1.660  -0.077  0.00  0.00    -0.187 NA
ATOM     15  H   UNL     1      -0.597   2.238  -0.064  0.00  0.00    +0.148 HD
BRANCH  14  16
ATOM     16  C   UNL     1       1.523   2.240  -0.183  0.00  0.00    +0.073 C 
ATOM     17  C   UNL     1       2.023   2.627   1.211  0.00  0.00    +0.025 C 
BRANCH  16  19
ATOM     18  C   UNL     1       1.092   3.082  -2.496  0.00  0.00    +0.005 C 
ATOM     19  C   UNL     1       1.471   3.486  -1.070  0.00  0.00    +0.017 C 
ENDBRANCH  16  19
ENDBRANCH  14  16
ENDBRANCH  11  14
ENDBRANCH   5  11
ENDBRANCH   1   8
BRANCH   2  20
ATOM     20  C   UNL     1       2.329  -2.782   7.346  0.00  0.00    +0.113 C 
BRANCH  20  21
ATOM     21  C   UNL     1       1.299  -3.554   8.174  0.00  0.00    +0.115 C 
BRANCH  21  22
ATOM     22  N   UNL     1       1.874  -3.890   9.479  0.00  0.00    -0.189 NA
ATOM     23  H   UNL     1       2.831  -3.820   9.619  0.00  0.00    +0.148 HD
BRANCH  22  24
ATOM     24  S   UNL     1       0.890  -4.390  10.713  0.00  0.00    +0.058 S 
ATOM     25  O   UNL     1       1.736  -4.661  11.822  0.00  0.00    -0.153 OA
ATOM     26  O   UNL     1      -0.181  -3.458  10.782  0.00  0.00    -0.153 OA
BRANCH  24  27
ATOM     27  C   UNL     1       0.186  -5.930  10.227  0.00  0.00    +0.105 A 
ATOM     28  C   UNL     1      -1.014  -5.956   9.542  0.00  0.00    +0.029 A 
ATOM     29  C   UNL     1      -1.565  -7.164   9.156  0.00  0.00    +0.017 A 
ATOM     30  C   UNL     1      -0.920  -8.348   9.466  0.00  0.00    +0.018 A 
ATOM     31  C   UNL     1       0.279  -8.322  10.157  0.00  0.00    +0.017 A 
ATOM     32  C   UNL     1       0.831  -7.113  10.537  0.00  0.00    +0.029 A 
ATOM     33 BR   UNL     1      -1.675 -10.001   8.945  0.00  0.00    -0.050 Br
ENDBRANCH  24  27
ENDBRANCH  22  24
ENDBRANCH  21  22
ENDBRANCH  20  21
ENDBRANCH   2  20
TORSDOF 10
