REMARK  Name = ZINC37658912
REMARK  7 active torsions:
REMARK  status: ('A' for Active; 'I' for Inactive)
REMARK    1  A    between atoms: C_1  and  C_2
REMARK    2  A    between atoms: N_8  and  S_9
REMARK    3  A    between atoms: S_9  and  C_12
REMARK    4  A    between atoms: C_15  and  C_18
REMARK    5  A    between atoms: N_27  and  C_30
REMARK    6  A    between atoms: C_30  and  C_31
REMARK    7  A    between atoms: C_30  and  C_32
REMARK                            x       y       z     vdW  Elec       q    Type
REMARK                         _______ _______ _______ _____ _____    ______ ____
ROOT
ATOM      1  C   UNL     1       0.122   0.795   3.656  0.00  0.00    +0.106 A 
ATOM      2  C   UNL     1      -0.881   1.739   3.520  0.00  0.00    +0.029 A 
ATOM      3  C   UNL     1      -1.798   1.925   4.533  0.00  0.00    +0.015 A 
ATOM      4  C   UNL     1      -1.714   1.159   5.697  0.00  0.00    +0.037 A 
ATOM      5  C   UNL     1      -0.700   0.208   5.827  0.00  0.00    +0.015 A 
ATOM      6  C   UNL     1       0.208   0.029   4.804  0.00  0.00    +0.029 A 
ENDROOT
BRANCH   4   7
ATOM      7  C   UNL     1      -2.694   1.353   6.786  0.00  0.00    +0.250 C 
ATOM      8  O   UNL     1      -3.576   2.182   6.670  0.00  0.00    -0.270 OA
ATOM      9  N   UNL     1      -2.609   0.612   7.908  0.00  0.00    -0.261 N 
ATOM     10  C   UNL     1      -3.530   0.794   8.932  0.00  0.00    +0.165 A 
ATOM     11  N   UNL     1      -4.545   1.631   8.980  0.00  0.00    -0.229 NA
ATOM     12  C   UNL     1      -5.349   1.697  10.034  0.00  0.00    +0.056 A 
ATOM     13  C   UNL     1      -5.041   0.841  11.045  0.00  0.00    +0.028 A 
ATOM     14  S   UNL     1      -3.623  -0.008  10.412  0.00  0.00    -0.055 S 
ATOM     15  C   UNL     1      -5.756   0.693  12.344  0.00  0.00    +0.129 C 
ATOM     16  N   UNL     1      -6.644   1.861  12.513  0.00  0.00    -0.295 NA
ATOM     17  C   UNL     1      -7.437   2.092  11.297  0.00  0.00    +0.091 C 
ATOM     18  C   UNL     1      -6.545   2.629  10.174  0.00  0.00    +0.071 C 
ATOM     19  H   UNL     1      -1.906  -0.050   8.001  0.00  0.00    +0.157 HD
BRANCH  16  20
ATOM     20  C   UNL     1      -7.513   1.696  13.685  0.00  0.00    +0.051 C 
ATOM     21  C   UNL     1      -6.654   1.450  14.927  0.00  0.00    +0.024 C 
ATOM     22  C   UNL     1      -8.347   2.963  13.885  0.00  0.00    +0.024 C 
ENDBRANCH  16  20
ENDBRANCH   4   7
BRANCH   1  23
ATOM     23  S   UNL     1       1.290   0.564   2.357  0.00  0.00    +0.061 S 
ATOM     24  O   UNL     1       2.381  -0.156   2.915  0.00  0.00    -0.153 OA
ATOM     25  O   UNL     1       1.454   1.827   1.728  0.00  0.00    -0.153 OA
BRANCH  23  32
ATOM     26  C   UNL     1       1.418  -2.247   2.663  0.00  0.00    +0.026 C 
ATOM     27  C   UNL     1       0.577  -1.890   1.437  0.00  0.00    +0.077 C 
ATOM     28  C   UNL     1       1.168  -2.564   0.194  0.00  0.00    +0.020 C 
ATOM     29  C   UNL     1       0.408  -2.093  -1.048  0.00  0.00    +0.003 C 
ATOM     30  C   UNL     1       0.564  -0.579  -1.199  0.00  0.00    +0.017 C 
ATOM     31  C   UNL     1      -0.035   0.118   0.027  0.00  0.00    +0.110 C 
ATOM     32  N   UNL     1       0.587  -0.435   1.238  0.00  0.00    -0.174 NA
ENDBRANCH  23  32
ENDBRANCH   1  23
TORSDOF 4
