REMARK  Name = ZINC40826515
REMARK  7 active torsions:
REMARK  status: ('A' for Active; 'I' for Inactive)
REMARK    1  A    between atoms: C_1  and  C_2
REMARK    2  A    between atoms: C_6  and  C_7
REMARK    3  A    between atoms: C_7  and  O_9
REMARK    4  A    between atoms: O_9  and  C_10
REMARK    5  A    between atoms: N_22  and  N_23
REMARK    6  A    between atoms: C_24  and  C_26
REMARK    7  A    between atoms: C_31  and  O_32
REMARK                            x       y       z     vdW  Elec       q    Type
REMARK                         _______ _______ _______ _____ _____    ______ ____
ROOT
ATOM      1  C   UNL     1      -0.287   1.509   0.031  0.00  0.00    +0.048 C 
ATOM      2  C   UNL     1      -0.165   0.007   0.013  0.00  0.00    +0.011 A 
ATOM      3  C   UNL     1      -0.129  -0.819  -1.117  0.00  0.00    +0.042 A 
ATOM      4  C   UNL     1      -0.013  -2.117  -0.676  0.00  0.00    +0.115 A 
ATOM      5  O   UNL     1       0.023  -2.098   0.654  0.00  0.00    -0.452 OA
ATOM      6  C   UNL     1      -0.063  -0.822   1.096  0.00  0.00    +0.215 A 
ATOM      7  C   UNL     1       0.052  -3.298  -1.611  0.00  0.00    +0.075 C 
ATOM      8  C   UNL     1      -0.531  -2.903  -2.970  0.00  0.00    +0.014 C 
ATOM      9  C   UNL     1       0.145  -1.634  -3.500  0.00  0.00    +0.058 C 
ATOM     10  C   UNL     1      -0.191  -0.487  -2.558  0.00  0.00    +0.070 C 
ATOM     11  N   UNL     1      -0.508   0.696  -2.986  0.00  0.00    -0.184 NA
ENDROOT
BRANCH  11  12
ATOM     12  N   UNL     1      -0.551   0.954  -4.362  0.00  0.00    -0.203 N 
ATOM     13  C   UNL     1      -0.881   2.183  -4.808  0.00  0.00    +0.267 C 
ATOM     14  O   UNL     1      -1.141   3.068  -4.014  0.00  0.00    -0.268 OA
ATOM     15  H   UNL     1      -0.344   0.249  -4.995  0.00  0.00    +0.178 HD
BRANCH  13  16
ATOM     16  C   UNL     1      -0.927   2.455  -6.256  0.00  0.00    +0.080 A 
ATOM     17  C   UNL     1      -0.634   1.440  -7.171  0.00  0.00    +0.017 A 
ATOM     18  C   UNL     1      -0.679   1.700  -8.524  0.00  0.00    +0.001 A 
ATOM     19  C   UNL     1      -1.013   2.965  -8.981  0.00  0.00    +0.004 A 
ATOM     20  C   UNL     1      -1.304   3.977  -8.088  0.00  0.00    +0.046 A 
ATOM     21  C   UNL     1      -1.269   3.731  -6.724  0.00  0.00    +0.129 A 
BRANCH  21  22
ATOM     22  O   UNL     1      -1.560   4.723  -5.845  0.00  0.00    -0.506 OA
ATOM     23  H   UNL     1      -0.793   5.245  -5.574  0.00  0.00    +0.292 HD
ENDBRANCH  21  22
ENDBRANCH  13  16
ENDBRANCH  11  12
BRANCH   6  24
ATOM     24  C   UNL     1      -0.052  -0.400   2.499  0.00  0.00    +0.380 C 
ATOM     25  O   UNL     1      -0.140   0.781   2.780  0.00  0.00    -0.241 OA
BRANCH  24  26
ATOM     26  O   UNL     1       0.054  -1.320   3.480  0.00  0.00    -0.419 OA
BRANCH  26  27
ATOM     27  C   UNL     1       0.165  -0.878   4.761  0.00  0.00    +0.150 A 
ATOM     28  C   UNL     1       1.418  -0.712   5.332  0.00  0.00    +0.049 A 
ATOM     29  C   UNL     1       1.529  -0.262   6.634  0.00  0.00    +0.023 A 
ATOM     30  C   UNL     1       0.391   0.022   7.368  0.00  0.00    +0.043 A 
ATOM     31  C   UNL     1      -0.860  -0.143   6.801  0.00  0.00    +0.043 A 
ATOM     32  C   UNL     1      -0.976  -0.586   5.497  0.00  0.00    +0.085 A 
ATOM     33 CL   UNL     1      -2.545  -0.786   4.782  0.00  0.00    -0.080 Cl
ATOM     34 CL   UNL     1       0.533   0.586   9.004  0.00  0.00    -0.083 Cl
ENDBRANCH  26  27
ENDBRANCH  24  26
ENDBRANCH   6  24
TORSDOF 6
