REMARK  Name = ZINC59500625
REMARK  7 active torsions:
REMARK  status: ('A' for Active; 'I' for Inactive)
REMARK    1  A    between atoms: C_4  and  C_7
REMARK    2  A    between atoms: C_7  and  N_8
REMARK    3  A    between atoms: N_11  and  C_14
REMARK    4  A    between atoms: C_17  and  C_23
REMARK    5  A    between atoms: C_19  and  N_20
REMARK    6  A    between atoms: N_24  and  N_25
REMARK    7  A    between atoms: C_26  and  N_33
REMARK                            x       y       z     vdW  Elec       q    Type
REMARK                         _______ _______ _______ _____ _____    ______ ____
ROOT
ATOM      1  C   UNL     1       6.988  -0.928   4.342  0.00  0.00    +0.060 A 
ATOM      2  C   UNL     1       6.891  -1.106   5.718  0.00  0.00    +0.026 A 
ATOM      3  C   UNL     1       7.992  -0.904   6.520  0.00  0.00    +0.011 A 
ATOM      4  C   UNL     1       9.209  -0.519   5.949  0.00  0.00    -0.003 A 
ATOM      5  C   UNL     1       9.303  -0.342   4.565  0.00  0.00    +0.044 A 
ATOM      6  C   UNL     1       8.198  -0.551   3.769  0.00  0.00    +0.148 A 
ENDROOT
BRANCH   1  10
ATOM      7  N   UNL     1       3.259  -1.794   2.819  0.00  0.00    -0.295 NA
ATOM      8  C   UNL     1       4.180  -2.864   3.229  0.00  0.00    +0.103 C 
ATOM      9  C   UNL     1       5.619  -2.443   2.913  0.00  0.00    +0.120 C 
ATOM     10  N   UNL     1       5.871  -1.134   3.533  0.00  0.00    -0.326 N 
ATOM     11  C   UNL     1       4.913  -0.047   3.278  0.00  0.00    +0.120 C 
ATOM     12  C   UNL     1       3.501  -0.562   3.580  0.00  0.00    +0.103 C 
BRANCH   7  13
ATOM     13  C   UNL     1       1.861  -2.226   2.946  0.00  0.00    +0.119 C 
BRANCH  13  17
ATOM     14  C   UNL     1       1.085  -5.382   0.174  0.00  0.00    +0.000 A 
ATOM     15  C   UNL     1       1.534  -5.676   1.447  0.00  0.00    +0.000 A 
ATOM     16  C   UNL     1       1.786  -4.654   2.344  0.00  0.00    +0.005 A 
ATOM     17  C   UNL     1       1.588  -3.339   1.968  0.00  0.00    -0.033 A 
ATOM     18  C   UNL     1       1.139  -3.045   0.694  0.00  0.00    +0.005 A 
ATOM     19  C   UNL     1       0.886  -4.066  -0.203  0.00  0.00    +0.000 A 
ENDBRANCH  13  17
ENDBRANCH   7  13
ENDBRANCH   1  10
BRANCH   6  20
ATOM     20  N   UNL     1       8.298  -0.368   2.304  0.00  0.00    +0.058 N 
ATOM     21  O   UNL     1       9.371  -0.149   1.794  0.00  0.00    -0.126 OA
ATOM     22  O   UNL     1       7.305  -0.439   1.617  0.00  0.00    -0.126 OA
ENDBRANCH   6  20
BRANCH   4  23
ATOM     23  C   UNL     1      10.389  -0.301   6.803  0.00  0.00    +0.141 C 
ATOM     24  N   UNL     1      10.300  -0.467   8.088  0.00  0.00    -0.171 NA
BRANCH  24  25
ATOM     25  N   UNL     1      11.390  -0.154   8.911  0.00  0.00    -0.194 N 
ATOM     26  C   UNL     1      11.790   1.149   9.051  0.00  0.00    +0.124 A 
ATOM     27  C   UNL     1      12.865   1.432   9.867  0.00  0.00    +0.086 A 
ATOM     28  C   UNL     1      13.509   0.376  10.524  0.00  0.00    +0.122 A 
ATOM     29  N   UNL     1      13.078  -0.870  10.351  0.00  0.00    -0.207 NA
ATOM     30  C   UNL     1      12.038  -1.134   9.568  0.00  0.00    +0.204 A 
ATOM     31  S   UNL     1      11.516  -2.754   9.384  0.00  0.00    -0.009 S 
ATOM     32  N   UNL     1      14.588   0.627  11.346  0.00  0.00    -0.343 N 
ATOM     33  H   UNL     1      14.902   1.536  11.471  0.00  0.00    +0.144 HD
ATOM     34  H   UNL     1      15.033  -0.106  11.800  0.00  0.00    +0.144 HD
BRANCH  26  35
ATOM     35  N   UNL     1      11.131   2.157   8.388  0.00  0.00    -0.343 N 
ATOM     36  H   UNL     1      10.376   1.949   7.816  0.00  0.00    +0.144 HD
ATOM     37  H   UNL     1      11.421   3.077   8.493  0.00  0.00    +0.144 HD
ENDBRANCH  26  35
ENDBRANCH  24  25
ENDBRANCH   4  23
TORSDOF 7
