REMARK  Name = ZINC10453130
REMARK  10 active torsions:
REMARK  status: ('A' for Active; 'I' for Inactive)
REMARK    1  A    between atoms: C_1  and  C_2
REMARK    2  A    between atoms: C_2  and  C_3
REMARK    3  A    between atoms: C_2  and  C_4
REMARK    4  A    between atoms: C_7  and  C_10
REMARK    5  A    between atoms: N_12  and  C_13
REMARK    6  A    between atoms: C_13  and  N_15
REMARK    7  A    between atoms: N_15  and  N_16
REMARK    8  A    between atoms: C_17  and  C_19
REMARK    9  A    between atoms: C_22  and  O_26
REMARK   10  A    between atoms: O_26  and  C_27
REMARK                            x       y       z     vdW  Elec       q    Type
REMARK                         _______ _______ _______ _____ _____    ______ ____
ROOT
ATOM      1  C   UNL     1       2.320   1.243  -0.013  0.00  0.00    +0.153 C 
ATOM      2  S   UNL     1       2.343  -0.469  -0.023  0.00  0.00    -0.017 S 
ENDROOT
BRANCH   1   5
ATOM      3  C   UNL     1      -0.014   1.211   0.009  0.00  0.00    +0.250 C 
ATOM      4  O   UNL     1       0.002  -0.004   0.002  0.00  0.00    -0.270 OA
ATOM      5  N   UNL     1       1.143   1.901   0.001  0.00  0.00    -0.263 N 
ATOM      6  H   UNL     1       1.130   2.871   0.007  0.00  0.00    +0.157 HD
BRANCH   3  10
ATOM      7  C   UNL     1      -3.721   3.284   0.037  0.00  0.00    -0.045 A 
ATOM      8  C   UNL     1      -3.706   1.901   0.030  0.00  0.00    +0.004 A 
ATOM      9  C   UNL     1      -2.505   1.221   0.021  0.00  0.00    +0.013 A 
ATOM     10  C   UNL     1      -1.304   1.932   0.019  0.00  0.00    +0.037 A 
ATOM     11  C   UNL     1      -1.327   3.328   0.032  0.00  0.00    +0.013 A 
ATOM     12  C   UNL     1      -2.534   3.995   0.035  0.00  0.00    +0.004 A 
BRANCH   7  14
ATOM     13  C   UNL     1      -5.123   4.892   1.302  0.00  0.00    +0.012 C 
ATOM     14  C   UNL     1      -5.036   4.020   0.048  0.00  0.00    +0.013 C 
ATOM     15  C   UNL     1      -5.135   4.905  -1.196  0.00  0.00    +0.012 C 
ENDBRANCH   7  14
ENDBRANCH   3  10
ENDBRANCH   1   5
BRANCH   1  16
ATOM     16  N   UNL     1       3.478   1.933  -0.021  0.00  0.00    -0.245 N 
ATOM     17  H   UNL     1       4.324   1.459  -0.031  0.00  0.00    +0.172 HD
BRANCH  16  18
ATOM     18  N   UNL     1       3.459   3.333  -0.013  0.00  0.00    -0.231 N 
ATOM     19  C   UNL     1       4.617   4.023  -0.020  0.00  0.00    +0.260 C 
ATOM     20  O   UNL     1       5.678   3.429  -0.034  0.00  0.00    -0.269 OA
ATOM     21  H   UNL     1       2.612   3.807  -0.002  0.00  0.00    +0.173 HD
BRANCH  19  22
ATOM     22  C   UNL     1       4.596   5.499  -0.012  0.00  0.00    +0.039 A 
ATOM     23  C   UNL     1       3.378   6.183  -0.003  0.00  0.00    +0.017 A 
ATOM     24  C   UNL     1       3.363   7.560   0.011  0.00  0.00    +0.047 A 
ATOM     25  C   UNL     1       4.558   8.270   0.004  0.00  0.00    +0.134 A 
ATOM     26  C   UNL     1       5.773   7.593  -0.012  0.00  0.00    +0.060 A 
ATOM     27  C   UNL     1       5.796   6.216  -0.020  0.00  0.00    +0.032 A 
ATOM     28 BR   UNL     1       7.395   8.565  -0.022  0.00  0.00    -0.046 Br
BRANCH  25  29
ATOM     29  O   UNL     1       4.539   9.627   0.012  0.00  0.00    -0.494 OA
ATOM     30  C   UNL     1       3.257  10.258   0.028  0.00  0.00    +0.277 C 
ENDBRANCH  25  29
ENDBRANCH  19  22
ENDBRANCH  16  18
ENDBRANCH   1  16
TORSDOF 7
