REMARK  Name = ZINC01881785
REMARK  4 active torsions:
REMARK  status: ('A' for Active; 'I' for Inactive)
REMARK    1  A    between atoms: C_7  and  C_11
REMARK    2  A    between atoms: C_12  and  C_13
REMARK    3  A    between atoms: N_14  and  N_15
REMARK    4  A    between atoms: C_16  and  C_18
REMARK                            x       y       z     vdW  Elec       q    Type
REMARK                         _______ _______ _______ _____ _____    ______ ____
ROOT
ATOM      1  C   UNL     1       5.888   4.848  -0.028  0.00  0.00    +0.130 C 
ATOM      2  N   UNL     1       6.697   5.869  -0.031  0.00  0.00    -0.188 NA
ENDROOT
BRANCH   2   3
ATOM      3  N   UNL     1       8.083   5.665  -0.045  0.00  0.00    -0.203 N 
ATOM      4  C   UNL     1       8.920   6.721  -0.047  0.00  0.00    +0.263 C 
ATOM      5  O   UNL     1       8.473   7.852  -0.037  0.00  0.00    -0.268 OA
ATOM      6  H   UNL     1       8.440   4.763  -0.052  0.00  0.00    +0.178 HD
BRANCH   4   7
ATOM      7  C   UNL     1      10.382   6.505  -0.062  0.00  0.00    +0.038 A 
ATOM      8  C   UNL     1      10.899   5.208  -0.068  0.00  0.00    +0.014 A 
ATOM      9  C   UNL     1      12.264   5.013  -0.087  0.00  0.00    +0.021 A 
ATOM     10  C   UNL     1      13.121   6.100  -0.090  0.00  0.00    +0.041 A 
ATOM     11  C   UNL     1      12.615   7.389  -0.078  0.00  0.00    +0.021 A 
ATOM     12  C   UNL     1      11.252   7.597  -0.065  0.00  0.00    +0.014 A 
ATOM     13 CL   UNL     1      14.839   5.846  -0.108  0.00  0.00    -0.084 Cl
ENDBRANCH   4   7
ENDBRANCH   2   3
BRANCH   1  15
ATOM     14  C   UNL     1       3.647   3.996  -0.012  0.00  0.00    +0.011 C 
ATOM     15  C   UNL     1       4.487   5.055  -0.014  0.00  0.00    +0.022 C 
BRANCH  14  22
ATOM     16  C   UNL     1      -0.013   1.076   0.008  0.00  0.00    +0.001 A 
ATOM     17  C   UNL     1      -1.226   1.750   0.017  0.00  0.00    +0.002 A 
ATOM     18  C   UNL     1      -1.263   3.127   0.030  0.00  0.00    +0.026 A 
ATOM     19  C   UNL     1      -0.077   3.854   0.023  0.00  0.00    +0.047 A 
ATOM     20  C   UNL     1       1.150   3.170   0.008  0.00  0.00    +0.007 A 
ATOM     21  C   UNL     1       1.173   1.777   0.000  0.00  0.00    +0.010 A 
ATOM     22  C   UNL     1       2.195   4.210   0.003  0.00  0.00    +0.000 A 
ATOM     23  C   UNL     1       1.548   5.410   0.015  0.00  0.00    +0.091 A 
ATOM     24  N   UNL     1       0.202   5.205   0.027  0.00  0.00    -0.360 N 
ATOM     25  H   UNL     1      -0.466   5.908   0.036  0.00  0.00    +0.165 HD
ENDBRANCH  14  22
ENDBRANCH   1  15
TORSDOF 4
