REMARK  Name = ZINC39683465
REMARK  11 active torsions:
REMARK  status: ('A' for Active; 'I' for Inactive)
REMARK    1  A    between atoms: C_1  and  C_2
REMARK    2  A    between atoms: C_2  and  C_3
REMARK    3  A    between atoms: C_3  and  C_4
REMARK    4  A    between atoms: C_4  and  N_5
REMARK    5  A    between atoms: C_8  and  C_11
REMARK    6  A    between atoms: C_11  and  N_12
REMARK    7  A    between atoms: C_13  and  C_15
REMARK    8  A    between atoms: C_26  and  C_28
REMARK    9  A    between atoms: C_28  and  C_30
REMARK   10  A    between atoms: C_28  and  C_31
REMARK   11  A    between atoms: C_31  and  C_32
REMARK                            x       y       z     vdW  Elec       q    Type
REMARK                         _______ _______ _______ _____ _____    ______ ____
ROOT
ATOM      1  C   UNL     1       4.470  -8.984   6.655  0.00  0.00    +0.100 C 
ATOM      2  C   UNL     1       3.062  -8.948   7.290  0.00  0.00    +0.121 C 
ATOM      3  N   UNL     1       3.013 -10.149   8.157  0.00  0.00    -0.300 N 
ATOM      4  C   UNL     1       4.363 -10.222   8.764  0.00  0.00    +0.115 C 
ATOM      5  C   UNL     1       5.321  -9.820   7.625  0.00  0.00    -0.004 C 
ATOM      6  C   UNL     1       5.856 -11.064   6.922  0.00  0.00    -0.010 C 
ATOM      7  C   UNL     1       6.745 -11.849   7.891  0.00  0.00    -0.082 C 
ATOM      8  N   UNL     1       7.855 -10.999   8.338  0.00  0.00    +0.379 N 
ATOM      9  C   UNL     1       7.336  -9.853   9.093  0.00  0.00    -0.082 C 
ATOM     10  C   UNL     1       6.472  -8.983   8.175  0.00  0.00    -0.010 C 
ATOM     11  C   UNL     1       1.974 -10.986   8.350  0.00  0.00    +0.218 C 
ATOM     12  O   UNL     1       0.951 -10.838   7.716  0.00  0.00    -0.275 OA
ATOM     13  H   UNL     1       8.472 -11.537   8.927  0.00  0.00    -0.086 HD
ATOM     14  H   UNL     1       8.367 -10.667   7.534  0.00  0.00    -0.086 HD
ENDROOT
BRANCH   1  16
ATOM     15  N   UNL     1       5.935  -7.304   5.581  0.00  0.00    -0.315 N 
ATOM     16  C   UNL     1       5.028  -7.589   6.536  0.00  0.00    +0.218 C 
ATOM     17  O   UNL     1       4.661  -6.722   7.301  0.00  0.00    -0.275 OA
ATOM     18  H   UNL     1       6.229  -7.997   4.969  0.00  0.00    +0.149 HD
BRANCH  15  19
ATOM     19  C   UNL     1       6.477  -5.948   5.466  0.00  0.00    +0.107 C 
BRANCH  19  23
ATOM     20  N   UNL     1      10.151  -5.261   3.390  0.00  0.00    +0.380 N 
ATOM     21  C   UNL     1       9.012  -4.420   3.005  0.00  0.00    -0.079 C 
ATOM     22  C   UNL     1       7.952  -4.453   4.109  0.00  0.00    -0.014 C 
ATOM     23  C   UNL     1       7.479  -5.895   4.310  0.00  0.00    +0.003 C 
ATOM     24  C   UNL     1       8.686  -6.778   4.638  0.00  0.00    -0.014 C 
ATOM     25  C   UNL     1       9.719  -6.659   3.515  0.00  0.00    -0.079 C 
ATOM     26  H   UNL     1      10.518  -4.943   4.275  0.00  0.00    -0.082 HD
BRANCH  20  27
ATOM     27  C   UNL     1      11.199  -5.165   2.365  0.00  0.00    -0.079 C 
BRANCH  27  28
ATOM     28  C   UNL     1      11.738  -3.734   2.320  0.00  0.00    -0.019 C 
BRANCH  28  30
ATOM     29  C   UNL     1      13.368  -2.202   1.207  0.00  0.00    +0.004 C 
ATOM     30  C   UNL     1      12.829  -3.633   1.252  0.00  0.00    -0.005 C 
ENDBRANCH  28  30
ENDBRANCH  27  28
ENDBRANCH  20  27
ENDBRANCH  19  23
ENDBRANCH  15  19
ENDBRANCH   1  16
BRANCH  11  31
ATOM     31  C   UNL     1       2.085 -12.105   9.352  0.00  0.00    +0.072 C 
ATOM     32  C   UNL     1       1.664 -11.597  10.733  0.00  0.00    +0.017 C 
BRANCH  31  33
ATOM     33  C   UNL     1       1.170 -13.258   8.933  0.00  0.00    +0.009 C 
ATOM     34  C   UNL     1       1.375 -14.442   9.880  0.00  0.00    +0.004 C 
ENDBRANCH  31  33
ENDBRANCH  11  31
TORSDOF 8
