REMARK  Name = ZINC54621943
REMARK  6 active torsions:
REMARK  status: ('A' for Active; 'I' for Inactive)
REMARK    1  A    between atoms: C_1  and  C_2
REMARK    2  A    between atoms: N_8  and  C_9
REMARK    3  A    between atoms: C_9  and  C_11
REMARK    4  A    between atoms: C_9  and  C_18
REMARK    5  A    between atoms: C_24  and  C_29
REMARK    6  A    between atoms: C_27  and  O_28
REMARK                            x       y       z     vdW  Elec       q    Type
REMARK                         _______ _______ _______ _____ _____    ______ ____
ROOT
ATOM      1  C   UNL     1       0.048  -2.142   3.611  0.00  0.00    +0.136 C 
ENDROOT
BRANCH   1   2
ATOM      2  C   UNL     1      -0.646  -2.997   4.641  0.00  0.00    +0.021 A 
ATOM      3  C   UNL     1      -0.601  -4.384   4.524  0.00  0.00    +0.010 A 
ATOM      4  C   UNL     1      -1.218  -5.184   5.437  0.00  0.00    +0.010 A 
ATOM      5  C   UNL     1      -1.911  -4.606   6.514  0.00  0.00    +0.004 A 
ATOM      6  C   UNL     1      -2.560  -5.401   7.478  0.00  0.00    +0.012 A 
ATOM      7  C   UNL     1      -3.214  -4.770   8.497  0.00  0.00    +0.023 A 
ATOM      8  C   UNL     1      -3.224  -3.378   8.561  0.00  0.00    +0.039 A 
ATOM      9  N   UNL     1      -2.619  -2.642   7.661  0.00  0.00    -0.248 NA
ATOM     10  C   UNL     1      -1.961  -3.196   6.639  0.00  0.00    +0.113 A 
ATOM     11  C   UNL     1      -1.306  -2.400   5.677  0.00  0.00    +0.148 A 
ATOM     12  C   UNL     1      -3.952  -2.701   9.694  0.00  0.00    +0.065 C 
BRANCH  11  13
ATOM     13  O   UNL     1      -1.335  -1.045   5.777  0.00  0.00    -0.504 OA
ATOM     14  H   UNL     1      -2.083  -0.633   5.324  0.00  0.00    +0.292 HD
ENDBRANCH  11  13
ENDBRANCH   1   2
BRANCH   1  22
ATOM     15  C   UNL     1       0.407   1.428  -0.046  0.00  0.00    +0.044 C 
ATOM     16  C   UNL     1       0.354  -0.078  -0.028  0.00  0.00    -0.046 A 
ATOM     17  C   UNL     1       0.405  -0.805  -1.210  0.00  0.00    +0.021 A 
ATOM     18  C   UNL     1       0.355  -2.183  -1.159  0.00  0.00    +0.084 A 
ATOM     19  N   UNL     1       0.259  -2.814  -0.004  0.00  0.00    -0.350 N 
ATOM     20  C   UNL     1       0.207  -2.157   1.144  0.00  0.00    +0.097 A 
ATOM     21  C   UNL     1       0.259  -0.767   1.167  0.00  0.00    +0.045 A 
ATOM     22  N   UNL     1       0.105  -2.863   2.337  0.00  0.00    -0.320 N 
ATOM     23  H   UNL     1       0.073  -3.832   2.326  0.00  0.00    +0.148 HD
ATOM     24  H   UNL     1       0.225  -3.784   0.003  0.00  0.00    +0.166 HD
ENDBRANCH   1  22
BRANCH   1  25
ATOM     25  C   UNL     1       1.447  -1.832   4.077  0.00  0.00    -0.023 A 
ATOM     26  C   UNL     1       2.451  -2.769   3.919  0.00  0.00    +0.008 A 
ATOM     27  C   UNL     1       3.735  -2.486   4.345  0.00  0.00    +0.038 A 
ATOM     28  C   UNL     1       4.015  -1.263   4.931  0.00  0.00    +0.123 A 
ATOM     29  C   UNL     1       3.009  -0.325   5.089  0.00  0.00    +0.038 A 
ATOM     30  C   UNL     1       1.727  -0.609   4.657  0.00  0.00    +0.008 A 
ATOM     31  F   UNL     1       5.270  -0.985   5.348  0.00  0.00    -0.205 F 
ENDBRANCH   1  25
TORSDOF 4
