REMARK  Name = ZINC05817647
REMARK  8 active torsions:
REMARK  status: ('A' for Active; 'I' for Inactive)
REMARK    1  A    between atoms: C_1  and  C_2
REMARK    2  A    between atoms: C_2  and  O_3
REMARK    3  A    between atoms: O_3  and  C_4
REMARK    4  A    between atoms: C_7  and  C_10
REMARK    5  A    between atoms: C_19  and  N_28
REMARK    6  A    between atoms: C_20  and  C_26
REMARK    7  A    between atoms: C_21  and  C_22
REMARK    8  A    between atoms: C_21  and  C_24
REMARK                            x       y       z     vdW  Elec       q    Type
REMARK                         _______ _______ _______ _____ _____    ______ ____
ROOT
ATOM      1  C   UNL     1       2.289   2.580   2.301  0.00  0.00    +0.066 C 
ATOM      2  C   UNL     1       2.203   1.534   1.188  0.00  0.00    +0.031 C 
ATOM      3  C   UNL     1       1.424   2.041  -0.003  0.00  0.00    +0.009 C 
ATOM      4  C   UNL     1      -0.019   1.542   0.006  0.00  0.00    +0.005 C 
ATOM      5  C   UNL     1      -0.001   0.007  -0.007  0.00  0.00    +0.027 C 
ATOM      6  C   UNL     1       0.704  -0.456   1.241  0.00  0.00    -0.021 C 
ATOM      7  C   UNL     1       1.679   0.259   1.778  0.00  0.00    -0.026 C 
ATOM      8  C   UNL     1       2.270  -0.179   3.063  0.00  0.00    +0.044 C 
ATOM      9  C   UNL     1       3.011   0.699   3.789  0.00  0.00    +0.084 C 
ATOM     10  C   UNL     1       3.294   2.104   3.351  0.00  0.00    +0.186 C 
ENDROOT
BRANCH   1  14
ATOM     11  C   UNL     1      -1.552   3.062   4.112  0.00  0.00    +0.121 A 
ATOM     12  C   UNL     1      -0.702   2.054   4.544  0.00  0.00    +0.046 A 
ATOM     13  C   UNL     1       0.539   1.900   3.957  0.00  0.00    +0.007 A 
ATOM     14  C   UNL     1       0.934   2.750   2.940  0.00  0.00    -0.041 A 
ATOM     15  C   UNL     1       0.091   3.758   2.511  0.00  0.00    +0.007 A 
ATOM     16  C   UNL     1      -1.153   3.913   3.091  0.00  0.00    +0.046 A 
BRANCH  11  17
ATOM     17  O   UNL     1      -2.774   3.215   4.687  0.00  0.00    -0.492 OA
BRANCH  17  19
ATOM     18  C   UNL     1      -4.922   4.288   4.956  0.00  0.00    +0.048 C 
ATOM     19  C   UNL     1      -3.596   4.273   4.192  0.00  0.00    +0.225 C 
ENDBRANCH  17  19
ENDBRANCH  11  17
ENDBRANCH   1  14
BRANCH   8  20
ATOM     20  N   UNL     1       2.069  -1.466   3.520  0.00  0.00    -0.357 N 
ATOM     21  H   UNL     1       2.510  -1.786   4.476  0.00  0.00    +0.142 HD
ATOM     22  H   UNL     1       1.467  -2.172   2.929  0.00  0.00    +0.142 HD
ENDBRANCH   8  20
BRANCH  10  23
ATOM     23  C   UNL     1       4.650   2.167   2.781  0.00  0.00    +0.090 C 
ATOM     24  N   UNL     1       5.696   2.215   2.341  0.00  0.00    -0.195 NA
ENDBRANCH  10  23
BRANCH  10  25
ATOM     25  C   UNL     1       3.224   2.994   4.521  0.00  0.00    +0.090 C 
ATOM     26  N   UNL     1       3.170   3.681   5.425  0.00  0.00    -0.195 NA
ENDBRANCH  10  25
BRANCH   9  27
ATOM     27  C   UNL     1       3.551   0.257   5.040  0.00  0.00    +0.099 C 
ATOM     28  N   UNL     1       3.979  -0.093   6.032  0.00  0.00    -0.191 NA
ENDBRANCH   9  27
TORSDOF 7
