REMARK  Name = ZINC40551073
REMARK  13 active torsions:
REMARK  status: ('A' for Active; 'I' for Inactive)
REMARK    1  A    between atoms: C_1  and  C_2
REMARK    2  A    between atoms: C_2  and  C_3
REMARK    3  A    between atoms: C_3  and  C_4
REMARK    4  A    between atoms: C_4  and  C_5
REMARK    5  A    between atoms: C_5  and  O_6
REMARK    6  A    between atoms: O_6  and  C_7
REMARK    7  A    between atoms: C_11  and  C_13
REMARK    8  A    between atoms: C_16  and  C_31
REMARK    9  A    between atoms: N_23  and  C_24
REMARK   10  A    between atoms: C_24  and  C_25
REMARK   11  A    between atoms: C_32  and  C_39
REMARK   12  A    between atoms: C_34  and  C_38
REMARK   13  A    between atoms: C_36  and  O_37
REMARK                            x       y       z     vdW  Elec       q    Type
REMARK                         _______ _______ _______ _____ _____    ______ ____
ROOT
ATOM      1  C   UNL     1       2.797  -7.670  -4.990  0.00  0.00    +0.141 C 
ATOM      2  C   UNL     1       1.710  -8.356  -5.771  0.00  0.00    +0.035 A 
ATOM      3  C   UNL     1       0.341  -8.603  -5.919  0.00  0.00    +0.102 A 
ATOM      4  N   UNL     1       0.193  -9.391  -6.965  0.00  0.00    -0.173 NA
ATOM      5  N   UNL     1       1.333  -9.666  -7.492  0.00  0.00    -0.272 N 
ATOM      6  H   UNL     1       1.465 -10.229  -8.272  0.00  0.00    +0.189 HD
ATOM      7  C   UNL     1       2.330  -9.049  -6.792  0.00  0.00    +0.126 A 
ATOM      8  C   UNL     1       3.777  -8.830  -6.692  0.00  0.00    +0.266 C 
ATOM      9  O   UNL     1       4.605  -9.305  -7.447  0.00  0.00    -0.268 OA
ATOM     10  N   UNL     1       4.060  -8.030  -5.647  0.00  0.00    -0.283 N 
ENDROOT
BRANCH   3  11
ATOM     11  C   UNL     1      -0.746  -8.075  -5.057  0.00  0.00    +0.047 A 
ATOM     12  C   UNL     1      -1.875  -7.495  -5.630  0.00  0.00    -0.037 A 
ATOM     13  C   UNL     1      -2.882  -7.005  -4.824  0.00  0.00    +0.007 A 
ATOM     14  C   UNL     1      -2.776  -7.089  -3.447  0.00  0.00    -0.047 A 
ATOM     15  C   UNL     1      -1.659  -7.662  -2.868  0.00  0.00    +0.049 A 
ATOM     16  C   UNL     1      -0.643  -8.163  -3.666  0.00  0.00    +0.127 A 
ATOM     17  C   UNL     1      -3.881  -6.551  -2.575  0.00  0.00    +0.044 C 
ATOM     18  C   UNL     1      -1.995  -7.402  -7.130  0.00  0.00    +0.044 C 
BRANCH  16  19
ATOM     19  O   UNL     1       0.452  -8.732  -3.097  0.00  0.00    -0.506 OA
ATOM     20  H   UNL     1       1.147  -8.102  -2.864  0.00  0.00    +0.292 HD
ENDBRANCH  16  19
ENDBRANCH   3  11
BRANCH   1  25
ATOM     21  C   UNL     1       2.009  -4.130  -3.928  0.00  0.00    +0.121 A 
ATOM     22  C   UNL     1       2.239  -3.433  -5.106  0.00  0.00    +0.045 A 
ATOM     23  C   UNL     1       2.649  -4.109  -6.238  0.00  0.00    +0.004 A 
ATOM     24  C   UNL     1       2.830  -5.479  -6.200  0.00  0.00    +0.006 A 
ATOM     25  C   UNL     1       2.600  -6.177  -5.028  0.00  0.00    -0.019 A 
ATOM     26  C   UNL     1       2.195  -5.504  -3.891  0.00  0.00    +0.051 A 
BRANCH  21  27
ATOM     27  O   UNL     1       1.606  -3.468  -2.812  0.00  0.00    -0.492 OA
BRANCH  27  28
ATOM     28  C   UNL     1       1.434  -2.054  -2.924  0.00  0.00    +0.229 C 
BRANCH  28  29
ATOM     29  C   UNL     1       0.981  -1.487  -1.577  0.00  0.00    +0.041 C 
BRANCH  29  30
ATOM     30  C   UNL     1       0.797   0.028  -1.697  0.00  0.00    +0.003 C 
BRANCH  30  32
ATOM     31  C   UNL     1       0.160   2.109  -0.470  0.00  0.00    +0.004 C 
ATOM     32  C   UNL     1       0.344   0.594  -0.350  0.00  0.00    -0.003 C 
ENDBRANCH  30  32
ENDBRANCH  29  30
ENDBRANCH  28  29
ENDBRANCH  27  28
ENDBRANCH  21  27
ENDBRANCH   1  25
BRANCH  10  33
ATOM     33  C   UNL     1       5.397  -7.593  -5.236  0.00  0.00    +0.140 C 
BRANCH  33  34
ATOM     34  C   UNL     1       5.977  -8.597  -4.237  0.00  0.00    +0.136 C 
ATOM     35  C   UNL     1       7.378  -8.135  -3.763  0.00  0.00    +0.035 C 
ATOM     36  C   UNL     1       7.473  -8.848  -2.387  0.00  0.00    +0.031 C 
ATOM     37  C   UNL     1       6.009  -8.815  -1.898  0.00  0.00    +0.160 C 
ATOM     38  O   UNL     1       5.171  -8.641  -3.049  0.00  0.00    -0.375 OA
ENDBRANCH  33  34
ENDBRANCH  10  33
TORSDOF 10
