REMARK  Name = ZINC36167677
REMARK  15 active torsions:
REMARK  status: ('A' for Active; 'I' for Inactive)
REMARK    1  A    between atoms: C_1  and  O_2
REMARK    2  A    between atoms: O_2  and  C_3
REMARK    3  A    between atoms: C_3  and  C_4
REMARK    4  A    between atoms: C_4  and  C_5
REMARK    5  A    between atoms: C_5  and  N_6
REMARK    6  A    between atoms: N_6  and  C_7
REMARK    7  A    between atoms: N_6  and  C_16
REMARK    8  A    between atoms: C_7  and  C_8
REMARK    9  A    between atoms: C_11  and  O_14
REMARK   10  A    between atoms: O_14  and  C_15
REMARK   11  A    between atoms: C_16  and  C_17
REMARK   12  A    between atoms: C_20  and  C_22
REMARK   13  A    between atoms: C_22  and  C_23
REMARK   14  A    between atoms: C_22  and  C_30
REMARK   15  A    between atoms: C_22  and  O_37
REMARK                            x       y       z     vdW  Elec       q    Type
REMARK                         _______ _______ _______ _____ _____    ______ ____
ROOT
ATOM      1  C   UNL     1      -1.279  -3.033  -1.051  0.00  0.00    +0.089 A 
ATOM      2  C   UNL     1      -2.032  -1.953  -0.778  0.00  0.00    +0.043 A 
ATOM      3  C   UNL     1      -2.401  -2.044   0.584  0.00  0.00    +0.048 A 
ATOM      4  C   UNL     1      -1.851  -3.175   1.061  0.00  0.00    +0.146 A 
ATOM      5  O   UNL     1      -1.177  -3.773   0.065  0.00  0.00    -0.463 OA
ENDROOT
BRANCH   1   6
ATOM      6  C   UNL     1      -0.660  -3.361  -2.385  0.00  0.00    -0.003 C 
BRANCH   6   7
ATOM      7  N   UNL     1       0.627  -2.664  -2.513  0.00  0.00    +0.387 N 
ATOM      8  H   UNL     1       0.491  -1.677  -2.356  0.00  0.00    -0.081 HD
BRANCH   7   9
ATOM      9  C   UNL     1       1.167  -2.875  -3.863  0.00  0.00    -0.076 C 
BRANCH   9  10
ATOM     10  C   UNL     1       0.252  -2.204  -4.889  0.00  0.00    +0.009 C 
BRANCH  10  11
ATOM     11  C   UNL     1       0.886  -2.300  -6.278  0.00  0.00    +0.157 C 
BRANCH  11  13
ATOM     12  C   UNL     1       0.535  -1.707  -8.573  0.00  0.00    +0.193 C 
ATOM     13  O   UNL     1       0.032  -1.672  -7.236  0.00  0.00    -0.383 OA
ENDBRANCH  11  13
ENDBRANCH  10  11
ENDBRANCH   9  10
ENDBRANCH   7   9
BRANCH   7  14
ATOM     14  C   UNL     1       1.571  -3.193  -1.520  0.00  0.00    -0.042 C 
BRANCH  14  15
ATOM     15  C   UNL     1       2.849  -2.396  -1.567  0.00  0.00    -0.064 A 
ATOM     16  C   UNL     1       3.872  -2.783  -2.413  0.00  0.00    +0.005 A 
ATOM     17  C   UNL     1       5.045  -2.054  -2.458  0.00  0.00    +0.046 A 
ATOM     18  C   UNL     1       5.195  -0.934  -1.654  0.00  0.00    +0.120 A 
ATOM     19  C   UNL     1       4.167  -0.548  -0.806  0.00  0.00    +0.046 A 
ATOM     20  C   UNL     1       2.994  -1.277  -0.769  0.00  0.00    +0.005 A 
BRANCH  18  21
ATOM     21  O   UNL     1       6.348  -0.215  -1.696  0.00  0.00    -0.495 OA
ATOM     22  C   UNL     1       6.433   0.926  -0.840  0.00  0.00    +0.277 C 
ENDBRANCH  18  21
ENDBRANCH  14  15
ENDBRANCH   7  14
ENDBRANCH   6   7
ENDBRANCH   1   6
BRANCH   4  23
ATOM     23  C   UNL     1      -1.974  -3.687   2.473  0.00  0.00    +0.174 C 
BRANCH  23  24
ATOM     24  C   UNL     1      -1.907  -5.193   2.469  0.00  0.00    -0.002 A 
ATOM     25  C   UNL     1      -3.022  -5.935   2.811  0.00  0.00    +0.007 A 
ATOM     26  C   UNL     1      -2.962  -7.316   2.808  0.00  0.00    +0.003 A 
ATOM     27  C   UNL     1      -1.786  -7.956   2.463  0.00  0.00    +0.038 A 
ATOM     28  C   UNL     1      -0.669  -7.214   2.120  0.00  0.00    +0.124 A 
ATOM     29  C   UNL     1      -0.732  -5.830   2.118  0.00  0.00    +0.045 A 
ATOM     30  F   UNL     1       0.481  -7.838   1.784  0.00  0.00    -0.205 F 
ENDBRANCH  23  24
BRANCH  23  31
ATOM     31  C   UNL     1      -0.847  -3.136   3.308  0.00  0.00    -0.002 A 
ATOM     32  C   UNL     1       0.427  -3.047   2.776  0.00  0.00    +0.007 A 
ATOM     33  C   UNL     1       1.462  -2.542   3.541  0.00  0.00    +0.003 A 
ATOM     34  C   UNL     1       1.225  -2.126   4.837  0.00  0.00    +0.038 A 
ATOM     35  C   UNL     1      -0.050  -2.214   5.370  0.00  0.00    +0.124 A 
ATOM     36  C   UNL     1      -1.087  -2.715   4.602  0.00  0.00    +0.045 A 
ATOM     37  F   UNL     1      -0.282  -1.808   6.638  0.00  0.00    -0.205 F 
ENDBRANCH  23  31
BRANCH  23  38
ATOM     38  O   UNL     1      -3.224  -3.268   3.025  0.00  0.00    -0.372 OA
ATOM     39  H   UNL     1      -3.337  -2.308   3.059  0.00  0.00    +0.212 HD
ENDBRANCH  23  38
ENDBRANCH   4  23
TORSDOF 13
