REMARK  Name = ZINC38729585
REMARK  9 active torsions:
REMARK  status: ('A' for Active; 'I' for Inactive)
REMARK    1  A    between atoms: C_4  and  C_7
REMARK    2  A    between atoms: C_7  and  C_38
REMARK    3  A    between atoms: C_13  and  C_15
REMARK    4  A    between atoms: C_21  and  C_23
REMARK    5  A    between atoms: N_25  and  C_26
REMARK    6  A    between atoms: C_26  and  C_27
REMARK    7  A    between atoms: C_27  and  C_28
REMARK    8  A    between atoms: C_31  and  S_34
REMARK    9  A    between atoms: S_34  and  N_37
REMARK                            x       y       z     vdW  Elec       q    Type
REMARK                         _______ _______ _______ _____ _____    ______ ____
ROOT
ATOM      1  C   UNL     1       5.879  -4.995  -1.789  0.00  0.00    +0.091 C 
ATOM      2  C   UNL     1       4.456  -5.537  -1.943  0.00  0.00    +0.040 C 
ATOM      3  C   UNL     1       4.484  -7.032  -2.074  0.00  0.00    -0.030 C 
ATOM      4  C   UNL     1       5.542  -7.714  -2.375  0.00  0.00    -0.030 C 
ATOM      5  C   UNL     1       6.892  -7.106  -2.624  0.00  0.00    +0.040 C 
ATOM      6  C   UNL     1       6.757  -5.606  -2.889  0.00  0.00    +0.091 C 
ENDROOT
BRANCH   1  13
ATOM      7  C   UNL     1       5.369  -1.283   1.500  0.00  0.00    +0.085 C 
ATOM      8  C   UNL     1       5.418  -2.813   1.509  0.00  0.00    +0.045 C 
ATOM      9  C   UNL     1       4.741  -3.348   0.243  0.00  0.00    +0.109 C 
ATOM     10  N   UNL     1       5.375  -2.731  -0.929  0.00  0.00    -0.301 N 
ATOM     11  C   UNL     1       5.463  -1.266  -0.996  0.00  0.00    +0.109 C 
ATOM     12  C   UNL     1       6.132  -0.754   0.284  0.00  0.00    +0.045 C 
ATOM     13  C   UNL     1       5.867  -3.494  -1.925  0.00  0.00    +0.220 C 
ATOM     14  O   UNL     1       6.300  -2.973  -2.932  0.00  0.00    -0.275 OA
BRANCH   7  18
ATOM     15  C   UNL     1       7.170   0.215   5.072  0.00  0.00    +0.000 A 
ATOM     16  C   UNL     1       6.067  -0.614   5.150  0.00  0.00    +0.000 A 
ATOM     17  C   UNL     1       5.484  -1.099   3.994  0.00  0.00    +0.005 A 
ATOM     18  C   UNL     1       6.004  -0.754   2.760  0.00  0.00    -0.027 A 
ATOM     19  C   UNL     1       7.107   0.076   2.683  0.00  0.00    +0.005 A 
ATOM     20  C   UNL     1       7.691   0.560   3.839  0.00  0.00    +0.000 A 
ENDBRANCH   7  18
BRANCH   7  21
ATOM     21  C   UNL     1       3.968  -0.838   1.433  0.00  0.00    +0.074 C 
ATOM     22  N   UNL     1       2.887  -0.494   1.381  0.00  0.00    -0.196 NA
ENDBRANCH   7  21
ENDBRANCH   1  13
BRANCH   6  23
ATOM     23  C   UNL     1       6.110  -5.389  -4.232  0.00  0.00    +0.217 C 
ATOM     24  O   UNL     1       5.179  -6.086  -4.577  0.00  0.00    -0.275 OA
ATOM     25  N   UNL     1       6.565  -4.420  -5.051  0.00  0.00    -0.315 N 
ATOM     26  H   UNL     1       7.310  -3.862  -4.776  0.00  0.00    +0.149 HD
BRANCH  25  27
ATOM     27  C   UNL     1       5.936  -4.210  -6.357  0.00  0.00    +0.109 C 
BRANCH  27  28
ATOM     28  C   UNL     1       6.638  -3.059  -7.082  0.00  0.00    +0.054 C 
BRANCH  28  29
ATOM     29  C   UNL     1       5.990  -2.842  -8.425  0.00  0.00    -0.046 A 
ATOM     30  C   UNL     1       6.455  -3.524  -9.534  0.00  0.00    +0.005 A 
ATOM     31  C   UNL     1       5.861  -3.325 -10.767  0.00  0.00    +0.029 A 
ATOM     32  C   UNL     1       4.803  -2.445 -10.890  0.00  0.00    +0.105 A 
ATOM     33  C   UNL     1       4.338  -1.764  -9.781  0.00  0.00    +0.029 A 
ATOM     34  C   UNL     1       4.929  -1.966  -8.548  0.00  0.00    +0.005 A 
BRANCH  32  35
ATOM     35  S   UNL     1       4.047  -2.191 -12.461  0.00  0.00    +0.056 S 
ATOM     36  O   UNL     1       3.433  -0.910 -12.414  0.00  0.00    -0.153 OA
ATOM     37  O   UNL     1       5.018  -2.534 -13.440  0.00  0.00    -0.153 OA
BRANCH  35  38
ATOM     38  N   UNL     1       2.823  -3.297 -12.601  0.00  0.00    -0.204 NA
ATOM     39  H   UNL     1       2.649  -3.922 -11.879  0.00  0.00    +0.144 HD
ATOM     40  H   UNL     1       2.279  -3.321 -13.404  0.00  0.00    +0.144 HD
ENDBRANCH  35  38
ENDBRANCH  32  35
ENDBRANCH  28  29
ENDBRANCH  27  28
ENDBRANCH  25  27
ENDBRANCH   6  23
TORSDOF 9
