REMARK  Name = ZINC44173588
REMARK  10 active torsions:
REMARK  status: ('A' for Active; 'I' for Inactive)
REMARK    1  A    between atoms: C_1  and  C_2
REMARK    2  A    between atoms: C_2  and  C_3
REMARK    3  A    between atoms: C_6  and  N_9
REMARK    4  A    between atoms: C_14  and  C_31
REMARK    5  A    between atoms: C_17  and  C_22
REMARK    6  A    between atoms: C_17  and  C_28
REMARK    7  A    between atoms: C_32  and  C_33
REMARK    8  A    between atoms: C_36  and  O_41
REMARK    9  A    between atoms: C_37  and  O_39
REMARK   10  A    between atoms: O_39  and  C_40
REMARK                            x       y       z     vdW  Elec       q    Type
REMARK                         _______ _______ _______ _____ _____    ______ ____
ROOT
ATOM      1  N   UNL     1       3.263  -1.449  -4.312  0.00  0.00    -0.210 N 
ATOM      2  C   UNL     1       2.409  -1.601  -5.376  0.00  0.00    +0.229 C 
ATOM      3  O   UNL     1       1.310  -1.111  -5.519  0.00  0.00    -0.275 OA
ATOM      4  C   UNL     1       3.110  -2.471  -6.288  0.00  0.00    +0.077 C 
ATOM      5  C   UNL     1       3.123  -2.854  -7.710  0.00  0.00    -0.034 C 
ATOM      6  N   UNL     1       4.386  -3.665  -7.807  0.00  0.00    +0.398 N 
ATOM      7  C   UNL     1       5.280  -3.252  -6.684  0.00  0.00    +0.074 C 
ATOM      8  C   UNL     1       4.607  -2.010  -6.080  0.00  0.00    +0.090 C 
ATOM      9  C   UNL     1       4.528  -1.887  -4.583  0.00  0.00    +0.229 C 
ATOM     10  O   UNL     1       5.406  -2.128  -3.783  0.00  0.00    -0.275 OA
ATOM     11  H   UNL     1       4.169  -4.647  -7.727  0.00  0.00    -0.083 HD
ATOM     12  H   UNL     1       4.841  -3.485  -8.689  0.00  0.00    -0.083 HD
ENDROOT
BRANCH   1  16
ATOM     13  C   UNL     1       2.121   0.187  -0.651  0.00  0.00    -0.048 A 
ATOM     14  C   UNL     1       1.195   0.065  -1.671  0.00  0.00    +0.005 A 
ATOM     15  C   UNL     1       1.571  -0.477  -2.885  0.00  0.00    +0.024 A 
ATOM     16  C   UNL     1       2.879  -0.898  -3.081  0.00  0.00    +0.044 A 
ATOM     17  C   UNL     1       3.806  -0.774  -2.055  0.00  0.00    +0.024 A 
ATOM     18  C   UNL     1       3.426  -0.228  -0.845  0.00  0.00    +0.005 A 
BRANCH  13  20
ATOM     19  C   UNL     1       1.915   2.293   0.640  0.00  0.00    +0.009 C 
ATOM     20  C   UNL     1       1.708   0.778   0.672  0.00  0.00    +0.032 C 
ENDBRANCH  13  20
ENDBRANCH   1  16
BRANCH   7  21
ATOM     21  C   UNL     1       5.391  -4.361  -5.670  0.00  0.00    -0.047 A 
ATOM     22  C   UNL     1       6.472  -4.407  -4.811  0.00  0.00    +0.003 A 
ATOM     23  C   UNL     1       6.574  -5.425  -3.881  0.00  0.00    +0.000 A 
ATOM     24  C   UNL     1       5.593  -6.396  -3.809  0.00  0.00    +0.000 A 
ATOM     25  C   UNL     1       4.511  -6.350  -4.668  0.00  0.00    +0.000 A 
ATOM     26  C   UNL     1       4.407  -5.330  -5.595  0.00  0.00    +0.003 A 
ENDBRANCH   7  21
BRANCH   7  27
ATOM     27  C   UNL     1       6.644  -2.887  -7.210  0.00  0.00    +0.350 C 
ATOM     28  O   UNL     1       6.883  -2.982  -8.402  0.00  0.00    -0.248 OA
ATOM     29  O   UNL     1       7.509  -2.498  -6.444  0.00  0.00    -0.248 OA
ENDBRANCH   7  27
BRANCH   5  30
ATOM     30  C   UNL     1       1.918  -3.692  -8.053  0.00  0.00    -0.041 C 
ATOM     31  C   UNL     1       1.114  -3.325  -9.041  0.00  0.00    +0.002 C 
BRANCH  31  32
ATOM     32  C   UNL     1      -0.067  -4.147  -9.377  0.00  0.00    -0.022 A 
ATOM     33  C   UNL     1      -0.341  -5.307  -8.651  0.00  0.00    +0.012 A 
ATOM     34  C   UNL     1      -1.445  -6.073  -8.965  0.00  0.00    +0.050 A 
ATOM     35  C   UNL     1      -2.284  -5.693 -10.002  0.00  0.00    +0.158 A 
ATOM     36  C   UNL     1      -2.015  -4.537 -10.731  0.00  0.00    +0.162 A 
ATOM     37  C   UNL     1      -0.914  -3.762 -10.418  0.00  0.00    +0.057 A 
BRANCH  36  38
ATOM     38  O   UNL     1      -2.839  -4.168 -11.748  0.00  0.00    -0.491 OA
ATOM     39  C   UNL     1      -2.504  -2.971 -12.453  0.00  0.00    +0.277 C 
ENDBRANCH  36  38
BRANCH  35  40
ATOM     40  O   UNL     1      -3.369  -6.452 -10.309  0.00  0.00    -0.503 OA
ATOM     41  H   UNL     1      -4.172  -6.201  -9.831  0.00  0.00    +0.292 HD
ENDBRANCH  35  40
ENDBRANCH  31  32
ENDBRANCH   5  30
TORSDOF 8
