REMARK  Name = ZINC13583927
REMARK  4 active torsions:
REMARK  status: ('A' for Active; 'I' for Inactive)
REMARK    1  A    between atoms: C_9  and  C_12
REMARK    2  A    between atoms: N_14  and  N_15
REMARK    3  A    between atoms: C_16  and  C_17
REMARK    4  A    between atoms: C_22  and  O_23
REMARK                            x       y       z     vdW  Elec       q    Type
REMARK                         _______ _______ _______ _____ _____    ______ ____
ROOT
ATOM      1  C   UNL     1      -1.828   7.213  -0.988  0.00  0.00    +0.276 C 
ATOM      2  O   UNL     1      -0.728   7.595  -1.326  0.00  0.00    -0.270 OA
ATOM      3  N   UNL     1      -2.719   8.086  -0.478  0.00  0.00    -0.204 N 
ATOM      4  H   UNL     1      -3.599   7.780  -0.208  0.00  0.00    +0.177 HD
ENDROOT
BRANCH   1  13
ATOM      5  C   UNL     1      -1.772   1.208  -3.045  0.00  0.00    +0.004 A 
ATOM      6  C   UNL     1      -0.491   1.599  -2.702  0.00  0.00    +0.004 A 
ATOM      7  C   UNL     1      -0.260   2.874  -2.221  0.00  0.00    +0.049 A 
ATOM      8  C   UNL     1      -1.314   3.765  -2.082  0.00  0.00    +0.163 A 
ATOM      9  C   UNL     1      -2.602   3.371  -2.424  0.00  0.00    +0.162 A 
ATOM     10  C   UNL     1      -2.826   2.092  -2.912  0.00  0.00    +0.049 A 
ATOM     11  O   UNL     1      -3.651   4.228  -2.291  0.00  0.00    -0.484 OA
ATOM     12  C   UNL     1      -3.333   5.619  -2.163  0.00  0.00    +0.283 C 
ATOM     13  C   UNL     1      -2.200   5.760  -1.138  0.00  0.00    +0.297 C 
ATOM     14  O   UNL     1      -1.070   5.019  -1.614  0.00  0.00    -0.472 OA
ENDBRANCH   1  13
BRANCH   3  15
ATOM     15  N   UNL     1      -2.374   9.437  -0.339  0.00  0.00    -0.187 NA
ATOM     16  C   UNL     1      -3.189  10.258   0.250  0.00  0.00    +0.142 C 
BRANCH  16  17
ATOM     17  C   UNL     1      -4.350   9.737   0.993  0.00  0.00    +0.039 A 
ATOM     18  C   UNL     1      -4.318   8.448   1.532  0.00  0.00    +0.033 A 
ATOM     19  C   UNL     1      -5.409   7.966   2.227  0.00  0.00    +0.043 A 
ATOM     20  C   UNL     1      -6.535   8.755   2.393  0.00  0.00    +0.043 A 
ATOM     21  C   UNL     1      -6.578  10.033   1.865  0.00  0.00    +0.084 A 
ATOM     22  C   UNL     1      -5.489  10.533   1.168  0.00  0.00    +0.144 A 
ATOM     23 CL   UNL     1      -7.995  11.012   2.080  0.00  0.00    -0.080 Cl
ATOM     24 CL   UNL     1      -5.368   6.364   2.895  0.00  0.00    -0.083 Cl
BRANCH  22  25
ATOM     25  O   UNL     1      -5.529  11.790   0.653  0.00  0.00    -0.505 OA
ATOM     26  H   UNL     1      -5.806  11.827  -0.272  0.00  0.00    +0.292 HD
ENDBRANCH  22  25
ENDBRANCH  16  17
ENDBRANCH   3  15
TORSDOF 4
