REMARK  Name = ZINC15496381
REMARK  7 active torsions:
REMARK  status: ('A' for Active; 'I' for Inactive)
REMARK    1  A    between atoms: C_1  and  C_2
REMARK    2  A    between atoms: C_2  and  C_4
REMARK    3  A    between atoms: C_2  and  S_15
REMARK    4  A    between atoms: N_6  and  C_7
REMARK    5  A    between atoms: S_15  and  C_16
REMARK    6  A    between atoms: C_16  and  C_17
REMARK    7  A    between atoms: N_23  and  C_24
REMARK                            x       y       z     vdW  Elec       q    Type
REMARK                         _______ _______ _______ _____ _____    ______ ____
ROOT
ATOM      1  C   UNL     1      -4.322   7.994  -0.708  0.00  0.00    +0.146 A 
ATOM      2  N   UNL     1      -3.962   8.950   0.130  0.00  0.00    -0.199 NA
ATOM      3  C   UNL     1      -3.733  10.182  -0.322  0.00  0.00    +0.217 A 
ATOM      4  N   UNL     1      -3.878  10.451  -1.615  0.00  0.00    -0.181 NA
ATOM      5  C   UNL     1      -4.246   9.488  -2.453  0.00  0.00    +0.224 A 
ATOM      6  N   UNL     1      -4.468   8.258  -1.995  0.00  0.00    -0.198 NA
ATOM      7  N   UNL     1      -4.398   9.763  -3.798  0.00  0.00    -0.284 N 
ATOM      8  N   UNL     1      -3.352  11.178   0.553  0.00  0.00    -0.327 N 
ATOM      9  H   UNL     1      -4.588   9.045  -4.421  0.00  0.00    +0.155 HD
ATOM     10  H   UNL     1      -3.189  12.076   0.224  0.00  0.00    +0.145 HD
ATOM     11  H   UNL     1      -3.246  10.981   1.497  0.00  0.00    +0.145 HD
ENDROOT
BRANCH   7  12
ATOM     12  C   UNL     1      -4.278  11.078  -4.261  0.00  0.00    +0.034 A 
ATOM     13  C   UNL     1      -4.691  12.137  -3.463  0.00  0.00    +0.026 A 
ATOM     14  C   UNL     1      -4.566  13.434  -3.920  0.00  0.00    +0.040 A 
ATOM     15  C   UNL     1      -4.042  13.679  -5.178  0.00  0.00    +0.124 A 
ATOM     16  C   UNL     1      -3.635  12.625  -5.978  0.00  0.00    +0.040 A 
ATOM     17  C   UNL     1      -3.752  11.326  -5.522  0.00  0.00    +0.026 A 
ATOM     18  F   UNL     1      -3.926  14.949  -5.625  0.00  0.00    -0.205 F 
ENDBRANCH   7  12
BRANCH   1  19
ATOM     19  C   UNL     1      -4.574   6.600  -0.194  0.00  0.00    +0.146 C 
BRANCH  19  20
ATOM     20  S   UNL     1      -3.032   5.646  -0.255  0.00  0.00    -0.140 S 
BRANCH  20  22
ATOM     21  C   UNL     1      -3.913   4.145   1.856  0.00  0.00    +0.029 C 
ATOM     22  C   UNL     1      -3.500   4.015   0.389  0.00  0.00    +0.130 C 
BRANCH  22  23
ATOM     23  C   UNL     1      -2.327   3.076   0.278  0.00  0.00    +0.230 C 
ATOM     24  O   UNL     1      -1.197   3.517   0.256  0.00  0.00    -0.274 OA
ATOM     25  N   UNL     1      -2.533   1.746   0.204  0.00  0.00    -0.285 N 
ATOM     26  H   UNL     1      -3.436   1.398   0.147  0.00  0.00    +0.155 HD
BRANCH  25  27
ATOM     27  C   UNL     1      -1.442   0.868   0.209  0.00  0.00    +0.036 A 
ATOM     28  C   UNL     1      -1.494  -0.309  -0.526  0.00  0.00    +0.026 A 
ATOM     29  C   UNL     1      -0.421  -1.178  -0.515  0.00  0.00    +0.043 A 
ATOM     30  C   UNL     1       0.708  -0.877   0.227  0.00  0.00    +0.159 A 
ATOM     31  C   UNL     1       0.763   0.297   0.962  0.00  0.00    +0.160 A 
ATOM     32  C   UNL     1      -0.310   1.169   0.954  0.00  0.00    +0.064 A 
ATOM     33  F   UNL     1       1.866   0.590   1.686  0.00  0.00    -0.202 F 
ATOM     34  F   UNL     1       1.757  -1.728   0.235  0.00  0.00    -0.202 F 
ENDBRANCH  25  27
ENDBRANCH  22  23
ENDBRANCH  20  22
ENDBRANCH  19  20
ENDBRANCH   1  19
TORSDOF 6
