REMARK  Name = ZINC32535643
REMARK  12 active torsions:
REMARK  status: ('A' for Active; 'I' for Inactive)
REMARK    1  A    between atoms: C_1  and  C_2
REMARK    2  A    between atoms: C_3  and  C_28
REMARK    3  A    between atoms: C_8  and  C_10
REMARK    4  A    between atoms: C_10  and  C_12
REMARK    5  A    between atoms: C_10  and  N_13
REMARK    6  A    between atoms: C_17  and  S_18
REMARK    7  A    between atoms: S_18  and  C_19
REMARK    8  A    between atoms: C_19  and  C_20
REMARK    9  A    between atoms: C_28  and  O_30
REMARK   10  A    between atoms: O_30  and  C_31
REMARK   11  A    between atoms: C_31  and  C_32
REMARK   12  A    between atoms: C_31  and  C_33
REMARK                            x       y       z     vdW  Elec       q    Type
REMARK                         _______ _______ _______ _____ _____    ______ ____
ROOT
ATOM      1  C   UNL     1      -3.690   5.006   7.603  0.00  0.00    +0.175 C 
ATOM      2  C   UNL     1      -5.173   5.355   7.460  0.00  0.00    +0.041 C 
ENDROOT
BRANCH   1  10
ATOM      3  C   UNL     1      -3.927  -0.817   3.100  0.00  0.00    +0.067 C 
ATOM      4  C   UNL     1      -3.398   0.514   3.571  0.00  0.00    +0.062 A 
ATOM      5  C   UNL     1      -2.375   1.161   2.890  0.00  0.00    +0.120 A 
ATOM      6  S   UNL     1      -2.200   2.635   3.885  0.00  0.00    -0.045 S 
ATOM      7  C   UNL     1      -3.431   2.267   5.054  0.00  0.00    +0.165 A 
ATOM      8  N   UNL     1      -3.884   1.095   4.636  0.00  0.00    -0.229 NA
ATOM      9  N   UNL     1      -3.837   3.012   6.147  0.00  0.00    -0.263 N 
ATOM     10  C   UNL     1      -3.248   4.195   6.412  0.00  0.00    +0.241 C 
ATOM     11  O   UNL     1      -2.363   4.607   5.693  0.00  0.00    -0.273 OA
ATOM     12  H   UNL     1      -4.640   2.639   6.799  0.00  0.00    +0.157 HD
BRANCH   5  13
ATOM     13  C   UNL     1      -1.649   0.753   1.689  0.00  0.00    +0.348 C 
ATOM     14  O   UNL     1      -1.917  -0.301   1.145  0.00  0.00    -0.244 OA
BRANCH  13  15
ATOM     15  O   UNL     1      -0.682   1.547   1.184  0.00  0.00    -0.458 OA
BRANCH  15  16
ATOM     16  C   UNL     1      -0.013   1.086   0.008  0.00  0.00    +0.171 C 
ATOM     17  C   UNL     1       1.423   1.615  -0.003  0.00  0.00    +0.052 C 
ATOM     18  C   UNL     1      -0.753   1.593  -1.232  0.00  0.00    +0.052 C 
ENDBRANCH  15  16
ENDBRANCH  13  15
ENDBRANCH   5  13
ENDBRANCH   1  10
BRANCH   1  19
ATOM     19  N   UNL     1      -2.903   6.240   7.673  0.00  0.00    -0.279 N 
ATOM     20  C   UNL     1      -2.844   7.210   6.713  0.00  0.00    +0.216 A 
ATOM     21  N   UNL     1      -2.038   8.152   7.138  0.00  0.00    -0.113 NA
ATOM     22  N   UNL     1      -1.565   7.779   8.403  0.00  0.00    -0.121 NA
ATOM     23  C   UNL     1      -2.103   6.625   8.712  0.00  0.00    +0.194 A 
ATOM     24  N   UNL     1      -3.520   7.201   5.500  0.00  0.00    -0.328 N 
ATOM     25  H   UNL     1      -3.400   8.038   4.796  0.00  0.00    +0.145 HD
ATOM     26  H   UNL     1      -4.176   6.356   5.242  0.00  0.00    +0.145 HD
BRANCH  23  27
ATOM     27  S   UNL     1      -1.838   5.724  10.203  0.00  0.00    -0.081 S 
BRANCH  27  28
ATOM     28  C   UNL     1      -0.691   6.766  11.147  0.00  0.00    +0.114 C 
BRANCH  28  29
ATOM     29  C   UNL     1      -0.378   6.103  12.463  0.00  0.00    -0.019 A 
ATOM     30  C   UNL     1      -1.157   6.367  13.574  0.00  0.00    +0.006 A 
ATOM     31  C   UNL     1      -0.872   5.756  14.780  0.00  0.00    +0.000 A 
ATOM     32  C   UNL     1       0.199   4.887  14.879  0.00  0.00    +0.001 A 
ATOM     33  C   UNL     1       0.983   4.627  13.771  0.00  0.00    +0.020 A 
ATOM     34  C   UNL     1       0.695   5.235  12.562  0.00  0.00    +0.045 A 
ATOM     35 CL   UNL     1       1.679   4.908  11.170  0.00  0.00    -0.083 Cl
ENDBRANCH  28  29
ENDBRANCH  27  28
ENDBRANCH  23  27
ENDBRANCH   1  19
TORSDOF 8
