REMARK  Name = ZINC44458608
REMARK  3 active torsions:
REMARK  status: ('A' for Active; 'I' for Inactive)
REMARK    1  A    between atoms: C_6  and  N_7
REMARK    2  A    between atoms: C_13  and  C_15
REMARK    3  A    between atoms: N_24  and  C_25
REMARK                            x       y       z     vdW  Elec       q    Type
REMARK                         _______ _______ _______ _____ _____    ______ ____
ROOT
ATOM      1  N   UNL     1      -1.520  -0.725  -2.997  0.00  0.00    -0.327 N 
ATOM      2  C   UNL     1      -1.536  -2.191  -3.096  0.00  0.00    +0.124 C 
ATOM      3  C   UNL     1      -2.050  -2.766  -1.770  0.00  0.00    +0.126 C 
ATOM      4  N   UNL     1      -3.290  -2.067  -1.404  0.00  0.00    -0.298 N 
ATOM      5  C   UNL     1      -3.274  -0.601  -1.305  0.00  0.00    +0.126 C 
ATOM      6  C   UNL     1      -2.758  -0.026  -2.626  0.00  0.00    +0.124 C 
ATOM      7  C   UNL     1      -4.421  -2.758  -1.164  0.00  0.00    +0.220 C 
ATOM      8  O   UNL     1      -5.458  -2.168  -0.945  0.00  0.00    -0.275 OA
ENDROOT
BRANCH   7   9
ATOM      9  C   UNL     1      -4.399  -4.265  -1.168  0.00  0.00    +0.093 C 
ATOM     10  C   UNL     1      -5.830  -4.797  -1.283  0.00  0.00    +0.016 C 
ATOM     11  C   UNL     1      -5.806  -6.327  -1.320  0.00  0.00    +0.020 C 
ATOM     12  C   UNL     1      -5.196  -6.855  -0.018  0.00  0.00    +0.109 C 
ATOM     13  N   UNL     1      -3.878  -6.236   0.174  0.00  0.00    -0.285 N 
ATOM     14  C   UNL     1      -3.773  -4.771   0.136  0.00  0.00    +0.122 C 
ATOM     15  C   UNL     1      -2.785  -6.997   0.380  0.00  0.00    +0.302 C 
ATOM     16  O   UNL     1      -1.687  -6.479   0.445  0.00  0.00    -0.253 OA
ATOM     17  N   UNL     1      -2.909  -8.332   0.514  0.00  0.00    -0.296 N 
ATOM     18  H   UNL     1      -3.774  -8.754   0.390  0.00  0.00    +0.151 HD
BRANCH  17  19
ATOM     19  C   UNL     1      -1.738  -9.146   0.848  0.00  0.00    +0.075 C 
ATOM     20  C   UNL     1      -1.547 -10.457   0.081  0.00  0.00    +0.024 C 
ATOM     21  C   UNL     1      -1.984 -10.485   1.547  0.00  0.00    +0.024 C 
ENDBRANCH  17  19
ENDBRANCH   7   9
BRANCH   1  27
ATOM     22  C   UNL     1      -0.365   1.381  -3.243  0.00  0.00    +0.024 A 
ATOM     23  C   UNL     1       0.796   2.087  -3.489  0.00  0.00    +0.022 A 
ATOM     24  C   UNL     1       1.978   1.412  -3.738  0.00  0.00    +0.041 A 
ATOM     25  C   UNL     1       2.000   0.028  -3.742  0.00  0.00    +0.022 A 
ATOM     26  C   UNL     1       0.842  -0.683  -3.496  0.00  0.00    +0.024 A 
ATOM     27  C   UNL     1      -0.346  -0.008  -3.246  0.00  0.00    +0.030 A 
ATOM     28 CL   UNL     1       3.436   2.302  -4.048  0.00  0.00    -0.084 Cl
ENDBRANCH   1  27
TORSDOF 3
