REMARK  Name = ZINC01856740
REMARK  10 active torsions:
REMARK  status: ('A' for Active; 'I' for Inactive)
REMARK    1  A    between atoms: C_1  and  C_2
REMARK    2  A    between atoms: C_5  and  N_9
REMARK    3  A    between atoms: C_6  and  C_8
REMARK    4  A    between atoms: N_9  and  C_10
REMARK    5  A    between atoms: C_10  and  N_20
REMARK    6  A    between atoms: C_11  and  C_12
REMARK    7  A    between atoms: C_11  and  N_17
REMARK    8  A    between atoms: N_20  and  C_21
REMARK    9  A    between atoms: C_24  and  C_28
REMARK   10  A    between atoms: C_26  and  C_27
REMARK                            x       y       z     vdW  Elec       q    Type
REMARK                         _______ _______ _______ _____ _____    ______ ____
ROOT
ATOM      1  C   UNL     1      -2.269   1.347   0.070  0.00  0.00    +0.125 C 
ATOM      2  C   UNL     1      -1.181   2.344   0.021  0.00  0.00    +0.182 C 
ENDROOT
BRANCH   2   3
ATOM      3  C   UNL     1       0.110   1.953   0.208  0.00  0.00    +0.104 C 
ATOM      4  C   UNL     1       0.742   1.141  -0.745  0.00  0.00    +0.127 C 
ATOM      5 CL   UNL     1       2.393   0.656  -0.514  0.00  0.00    -0.069 Cl
ATOM      6 CL   UNL     1      -0.128   0.619  -2.154  0.00  0.00    -0.069 Cl
ATOM      7 CL   UNL     1       0.972   2.456   1.628  0.00  0.00    -0.079 Cl
ENDBRANCH   2   3
BRANCH   2   8
ATOM      8  N   UNL     1      -1.494   3.769  -0.232  0.00  0.00    +0.061 N 
ATOM      9  O   UNL     1      -2.730   4.132  -0.509  0.00  0.00    -0.126 OA
ATOM     10  O   UNL     1      -0.538   4.673  -0.180  0.00  0.00    -0.126 OA
ENDBRANCH   2   8
BRANCH   1  11
ATOM     11  N   UNL     1      -3.527   1.710  -0.229  0.00  0.00    -0.301 N 
ATOM     12  H   UNL     1      -3.724   2.113  -1.089  0.00  0.00    +0.153 HD
BRANCH  11  17
ATOM     13  C   UNL     1      -7.685   0.885   3.533  0.00  0.00    +0.044 C 
ATOM     14  C   UNL     1      -6.579   1.104   2.533  0.00  0.00    -0.050 A 
ATOM     15  C   UNL     1      -5.267   0.849   2.888  0.00  0.00    +0.005 A 
ATOM     16  C   UNL     1      -4.251   1.049   1.975  0.00  0.00    +0.024 A 
ATOM     17  C   UNL     1      -4.549   1.507   0.696  0.00  0.00    +0.035 A 
ATOM     18  C   UNL     1      -5.869   1.766   0.344  0.00  0.00    -0.029 A 
ATOM     19  C   UNL     1      -6.880   1.559   1.261  0.00  0.00    +0.008 A 
ATOM     20  C   UNL     1      -6.197   2.269  -1.039  0.00  0.00    +0.045 C 
ENDBRANCH  11  17
ENDBRANCH   1  11
BRANCH   1  21
ATOM     21  N   UNL     1      -2.000   0.076   0.415  0.00  0.00    -0.301 N 
ATOM     22  H   UNL     1      -1.544  -0.114   1.250  0.00  0.00    +0.153 HD
BRANCH  21  23
ATOM     23  C   UNL     1      -2.376  -0.968  -0.427  0.00  0.00    +0.035 A 
ATOM     24  C   UNL     1      -2.950  -0.694  -1.664  0.00  0.00    +0.024 A 
ATOM     25  C   UNL     1      -3.321  -1.731  -2.495  0.00  0.00    +0.005 A 
ATOM     26  C   UNL     1      -3.122  -3.042  -2.100  0.00  0.00    -0.050 A 
ATOM     27  C   UNL     1      -2.550  -3.319  -0.871  0.00  0.00    +0.008 A 
ATOM     28  C   UNL     1      -2.172  -2.287  -0.035  0.00  0.00    -0.029 A 
ATOM     29  C   UNL     1      -1.544  -2.589   1.301  0.00  0.00    +0.045 C 
ATOM     30  C   UNL     1      -3.527  -4.172  -3.011  0.00  0.00    +0.044 C 
ENDBRANCH  21  23
ENDBRANCH   1  21
TORSDOF 6
