REMARK  Name = ZINC66220501
REMARK  6 active torsions:
REMARK  status: ('A' for Active; 'I' for Inactive)
REMARK    1  A    between atoms: C_1  and  S_2
REMARK    2  A    between atoms: S_2  and  N_5
REMARK    3  A    between atoms: C_8  and  C_11
REMARK    4  A    between atoms: C_11  and  N_12
REMARK    5  A    between atoms: N_15  and  C_16
REMARK    6  A    between atoms: C_16  and  C_20
REMARK                            x       y       z     vdW  Elec       q    Type
REMARK                         _______ _______ _______ _____ _____    ______ ____
ROOT
ATOM      1  N   UNL     1       3.738  -3.490  -4.235  0.00  0.00    -0.299 N 
ATOM      2  C   UNL     1       4.269  -4.602  -4.781  0.00  0.00    +0.300 C 
ATOM      3  O   UNL     1       3.548  -5.532  -5.088  0.00  0.00    -0.253 OA
ATOM      4  N   UNL     1       5.598  -4.684  -4.986  0.00  0.00    -0.290 N 
ATOM      5  H   UNL     1       4.313  -2.748  -3.990  0.00  0.00    +0.150 HD
ATOM      6  H   UNL     1       6.164  -3.915  -4.813  0.00  0.00    +0.151 HD
ENDROOT
BRANCH   4   7
ATOM      7  C   UNL     1       6.189  -5.933  -5.472  0.00  0.00    +0.061 C 
ATOM      8  C   UNL     1       7.583  -5.753  -6.096  0.00  0.00    +0.031 C 
ATOM      9  C   UNL     1       6.867  -5.509  -7.435  0.00  0.00    +0.005 C 
ATOM     10  C   UNL     1       5.702  -6.341  -6.873  0.00  0.00    +0.031 C 
BRANCH   7  11
ATOM     11  C   UNL     1       6.118  -7.047  -4.460  0.00  0.00    -0.024 A 
ATOM     12  C   UNL     1       6.352  -8.352  -4.850  0.00  0.00    +0.006 A 
ATOM     13  C   UNL     1       6.286  -9.374  -3.922  0.00  0.00    +0.000 A 
ATOM     14  C   UNL     1       5.988  -9.090  -2.602  0.00  0.00    +0.000 A 
ATOM     15  C   UNL     1       5.755  -7.785  -2.211  0.00  0.00    +0.000 A 
ATOM     16  C   UNL     1       5.824  -6.763  -3.139  0.00  0.00    +0.006 A 
ENDBRANCH   7  11
ENDBRANCH   4   7
BRANCH   1  17
ATOM     17  C   UNL     1       2.293  -3.402  -4.012  0.00  0.00    +0.109 C 
BRANCH  17  21
ATOM     18  N   UNL     1       0.823  -0.379  -1.403  0.00  0.00    -0.181 NA
ATOM     19  C   UNL     1       0.101  -0.532  -2.674  0.00  0.00    +0.109 C 
ATOM     20  C   UNL     1       0.436  -1.904  -3.268  0.00  0.00    +0.022 C 
ATOM     21  C   UNL     1       1.956  -2.047  -3.386  0.00  0.00    +0.009 C 
ATOM     22  C   UNL     1       2.588  -1.955  -1.996  0.00  0.00    +0.022 C 
ATOM     23  C   UNL     1       2.278  -0.579  -1.388  0.00  0.00    +0.109 C 
BRANCH  18  25
ATOM     24  C   UNL     1       0.021   1.833   0.026  0.00  0.00    +0.215 C 
ATOM     25  S   UNL     1       0.012   0.020  -0.015  0.00  0.00    +0.029 S 
ATOM     26  O   UNL     1       0.816  -0.498   1.036  0.00  0.00    -0.158 OA
ATOM     27  O   UNL     1      -1.311  -0.459  -0.218  0.00  0.00    -0.158 OA
ENDBRANCH  18  25
ENDBRANCH  17  21
ENDBRANCH   1  17
TORSDOF 5
