REMARK  Name = ZINC61700184
REMARK  6 active torsions:
REMARK  status: ('A' for Active; 'I' for Inactive)
REMARK    1  A    between atoms: C_1  and  C_2
REMARK    2  A    between atoms: C_2  and  C_4
REMARK    3  A    between atoms: C_2  and  N_21
REMARK    4  A    between atoms: C_7  and  S_11
REMARK    5  A    between atoms: S_11  and  C_12
REMARK    6  A    between atoms: C_17  and  N_18
REMARK                            x       y       z     vdW  Elec       q    Type
REMARK                         _______ _______ _______ _____ _____    ______ ____
ROOT
ATOM      1  C   UNL     1       0.067  -0.822   1.581  0.00  0.00    -0.061 A 
ATOM      2  C   UNL     1       1.432  -0.737   1.377  0.00  0.00    +0.003 A 
ATOM      3  C   UNL     1       2.306  -1.097   2.385  0.00  0.00    +0.016 A 
ATOM      4  C   UNL     1       1.812  -1.543   3.604  0.00  0.00    +0.027 A 
ATOM      5  C   UNL     1       0.439  -1.626   3.806  0.00  0.00    +0.032 A 
ATOM      6  C   UNL     1      -0.429  -1.260   2.795  0.00  0.00    +0.018 A 
ATOM      7 BR   UNL     1      -0.239  -2.233   5.463  0.00  0.00    -0.049 Br
ENDROOT
BRANCH   1   9
ATOM      8  C   UNL     1      -1.014   1.096   0.439  0.00  0.00    -0.009 C 
ATOM      9  C   UNL     1      -0.883  -0.428   0.479  0.00  0.00    -0.047 C 
BRANCH   9  10
ATOM     10  N   UNL     1      -0.365  -0.909  -0.809  0.00  0.00    +0.382 N 
ATOM     11  H   UNL     1       0.540  -0.498  -0.982  0.00  0.00    -0.089 HD
ATOM     12  H   UNL     1      -0.278  -1.914  -0.782  0.00  0.00    -0.089 HD
ATOM     13  H   UNL     1      -1.001  -0.646  -1.546  0.00  0.00    -0.089 HD
ENDBRANCH   9  10
ENDBRANCH   1   9
BRANCH   4  14
ATOM     14  S   UNL     1       2.923  -2.003   4.892  0.00  0.00    -0.086 S 
BRANCH  14  15
ATOM     15  C   UNL     1       2.871  -0.639   6.007  0.00  0.00    +0.043 A 
ATOM     16  C   UNL     1       2.154   0.504   5.676  0.00  0.00    +0.017 A 
ATOM     17  C   UNL     1       2.115   1.571   6.552  0.00  0.00    +0.001 A 
ATOM     18  C   UNL     1       2.790   1.502   7.758  0.00  0.00    +0.002 A 
ATOM     19  C   UNL     1       3.505   0.366   8.090  0.00  0.00    +0.034 A 
ATOM     20  C   UNL     1       3.543  -0.707   7.222  0.00  0.00    +0.140 A 
BRANCH  20  21
ATOM     21  N   UNL     1       4.303  -1.925   7.581  0.00  0.00    +0.058 N 
ATOM     22  O   UNL     1       4.887  -1.983   8.638  0.00  0.00    -0.126 OA
ATOM     23  O   UNL     1       4.340  -2.862   6.818  0.00  0.00    -0.126 OA
ENDBRANCH  20  21
ENDBRANCH  14  15
ENDBRANCH   4  14
TORSDOF 5
