REMARK  Name = ZINC65639396
REMARK  9 active torsions:
REMARK  status: ('A' for Active; 'I' for Inactive)
REMARK    1  A    between atoms: C_1  and  C_2
REMARK    2  A    between atoms: N_5  and  C_8
REMARK    3  A    between atoms: C_11  and  N_14
REMARK    4  A    between atoms: C_15  and  C_17
REMARK    5  A    between atoms: N_19  and  C_20
REMARK    6  A    between atoms: C_20  and  C_21
REMARK    7  A    between atoms: N_24  and  C_26
REMARK    8  A    between atoms: C_26  and  C_27
REMARK    9  A    between atoms: C_26  and  C_28
REMARK                            x       y       z     vdW  Elec       q    Type
REMARK                         _______ _______ _______ _____ _____    ______ ____
ROOT
ATOM      1  N   UNL     1       5.500  -6.161  -0.087  0.00  0.00    -0.278 N 
ATOM      2  C   UNL     1       6.018  -6.611   1.073  0.00  0.00    +0.303 C 
ATOM      3  O   UNL     1       5.510  -6.295   2.129  0.00  0.00    -0.265 OA
ATOM      4  H   UNL     1       5.856  -6.476  -0.932  0.00  0.00    +0.155 HD
ENDROOT
BRANCH   1   8
ATOM      5  C   UNL     1       2.364  -3.415  -0.041  0.00  0.00    +0.030 A 
ATOM      6  C   UNL     1       3.347  -3.363   0.939  0.00  0.00    +0.025 A 
ATOM      7  C   UNL     1       4.386  -4.272   0.924  0.00  0.00    +0.025 A 
ATOM      8  C   UNL     1       4.447  -5.240  -0.071  0.00  0.00    +0.034 A 
ATOM      9  C   UNL     1       3.463  -5.292  -1.051  0.00  0.00    +0.025 A 
ATOM     10  C   UNL     1       2.422  -4.386  -1.033  0.00  0.00    +0.025 A 
BRANCH   5  15
ATOM     11  C   UNL     1      -0.162   1.356  -1.081  0.00  0.00    +0.007 C 
ATOM     12  C   UNL     1      -0.049  -0.065  -0.526  0.00  0.00    -0.011 C 
ATOM     13  C   UNL     1       0.249  -1.037  -1.670  0.00  0.00    +0.022 C 
ATOM     14  C   UNL     1       0.328  -2.463  -1.116  0.00  0.00    +0.105 C 
ATOM     15  N   UNL     1       1.312  -2.494  -0.025  0.00  0.00    -0.330 N 
ATOM     16  C   UNL     1       1.170  -1.538   1.081  0.00  0.00    +0.105 C 
ATOM     17  C   UNL     1       1.083  -0.122   0.503  0.00  0.00    +0.022 C 
ENDBRANCH   5  15
ENDBRANCH   1   8
BRANCH   2  18
ATOM     18  C   UNL     1       7.219  -7.499   1.059  0.00  0.00    +0.299 C 
ATOM     19  O   UNL     1       7.728  -7.815   0.003  0.00  0.00    -0.265 OA
ATOM     20  N   UNL     1       7.738  -7.949   2.218  0.00  0.00    -0.307 N 
ATOM     21  H   UNL     1       7.331  -7.697   3.062  0.00  0.00    +0.149 HD
BRANCH  20  22
ATOM     22  C   UNL     1       8.916  -8.820   2.204  0.00  0.00    +0.106 C 
BRANCH  22  23
ATOM     23  C   UNL     1       9.297  -9.185   3.641  0.00  0.00    -0.012 C 
ATOM     24  C   UNL     1       9.929  -7.971   4.373  0.00  0.00    -0.015 C 
ATOM     25  C   UNL     1      10.823  -8.637   5.440  0.00  0.00    -0.078 C 
ATOM     26  N   UNL     1      11.114 -10.005   4.975  0.00  0.00    +0.381 N 
ATOM     27  C   UNL     1      10.463 -10.205   3.663  0.00  0.00    -0.074 C 
ATOM     28  H   UNL     1      10.753 -10.674   5.639  0.00  0.00    -0.081 HD
BRANCH  26  29
ATOM     29  C   UNL     1      12.566 -10.183   4.838  0.00  0.00    -0.075 C 
ATOM     30  C   UNL     1      13.234  -9.989   6.201  0.00  0.00    -0.014 C 
ATOM     31  C   UNL     1      12.861 -11.592   4.322  0.00  0.00    -0.014 C 
ENDBRANCH  26  29
ENDBRANCH  22  23
ENDBRANCH  20  22
ENDBRANCH   2  18
TORSDOF 6
