REMARK  Name = ZINC12219300
REMARK  9 active torsions:
REMARK  status: ('A' for Active; 'I' for Inactive)
REMARK    1  A    between atoms: C_1  and  N_2
REMARK    2  A    between atoms: N_2  and  C_3
REMARK    3  A    between atoms: C_3  and  C_5
REMARK    4  A    between atoms: C_3  and  C_12
REMARK    5  A    between atoms: C_5  and  C_6
REMARK    6  A    between atoms: C_17  and  C_18
REMARK    7  A    between atoms: C_17  and  N_68
REMARK    8  A    between atoms: C_21  and  C_23
REMARK    9  A    between atoms: C_29  and  C_31
REMARK                            x       y       z     vdW  Elec       q    Type
REMARK                         _______ _______ _______ _____ _____    ______ ____
ROOT
ATOM      1  C   UNL     1      -0.862   1.379  -1.295  0.00  0.00    +0.006 C 
ATOM      2  C   UNL     1      -1.180   2.876  -1.270  0.00  0.00    -0.013 C 
ATOM      3  C   UNL     1      -2.128   3.211  -2.424  0.00  0.00    -0.078 C 
ATOM      4  C   UNL     1      -3.085   0.986  -2.361  0.00  0.00    -0.078 C 
ATOM      5  C   UNL     1      -2.168   0.584  -1.204  0.00  0.00    -0.013 C 
ATOM      6  N   UNL     1      -3.374   2.432  -2.265  0.00  0.00    +0.383 N 
ATOM      7  H   UNL     1      -3.775   2.631  -1.340  0.00  0.00    -0.081 HD
ENDROOT
BRANCH   1   8
ATOM      8  C   UNL     1       0.035   1.026  -0.107  0.00  0.00    +0.083 C 
BRANCH   8  10
ATOM      9  C   UNL     1       2.119   1.523  -1.466  0.00  0.00    +0.132 C 
ATOM     10  N   UNL     1       1.324   1.707  -0.249  0.00  0.00    -0.296 N 
ATOM     11  C   UNL     1       1.779   2.503   0.739  0.00  0.00    +0.265 C 
ATOM     12  O   UNL     1       1.077   2.736   1.702  0.00  0.00    -0.268 OA
BRANCH  11  13
ATOM     13  C   UNL     1       3.135   3.092   0.650  0.00  0.00    +0.126 A 
ATOM     14  C   UNL     1       3.641   3.826   1.721  0.00  0.00    +0.033 A 
ATOM     15  C   UNL     1       4.911   4.372   1.623  0.00  0.00    +0.004 A 
ATOM     16  C   UNL     1       5.632   4.164   0.458  0.00  0.00    +0.020 A 
ATOM     17  C   UNL     1       5.067   3.423  -0.567  0.00  0.00    +0.111 A 
ATOM     18  N   UNL     1       3.861   2.913  -0.447  0.00  0.00    -0.250 NA
ENDBRANCH  11  13
ENDBRANCH   8  10
BRANCH   8  19
ATOM     19  C   UNL     1       0.259  -0.487  -0.068  0.00  0.00    +0.058 C 
BRANCH  19  20
ATOM     20  C   UNL     1       1.039  -0.848   1.170  0.00  0.00    -0.046 A 
ATOM     21  C   UNL     1       2.421  -0.883   1.130  0.00  0.00    +0.004 A 
ATOM     22  C   UNL     1       3.136  -1.209   2.267  0.00  0.00    +0.000 A 
ATOM     23  C   UNL     1       2.471  -1.510   3.441  0.00  0.00    +0.000 A 
ATOM     24  C   UNL     1       1.089  -1.480   3.478  0.00  0.00    +0.000 A 
ATOM     25  C   UNL     1       0.373  -1.149   2.343  0.00  0.00    +0.004 A 
ENDBRANCH  19  20
ENDBRANCH   8  19
ENDBRANCH   1   8
BRANCH   6  26
ATOM     26  C   UNL     1      -4.349   2.823  -3.304  0.00  0.00    -0.034 C 
BRANCH  26  27
ATOM     27  C   UNL     1      -4.426   4.326  -3.369  0.00  0.00    -0.007 A 
ATOM     28  C   UNL     1      -3.716   5.199  -4.132  0.00  0.00    +0.120 A 
ATOM     29  N   UNL     1      -3.946   6.488  -4.037  0.00  0.00    -0.247 NA
ATOM     30  C   UNL     1      -4.855   6.965  -3.198  0.00  0.00    +0.108 A 
ATOM     31  S   UNL     1      -5.471   5.457  -2.459  0.00  0.00    -0.074 S 
BRANCH  30  32
ATOM     32  C   UNL     1      -5.253   8.366  -2.942  0.00  0.00    +0.007 A 
ATOM     33  C   UNL     1      -6.249   8.652  -2.008  0.00  0.00    +0.010 A 
ATOM     34  C   UNL     1      -6.612   9.961  -1.770  0.00  0.00    +0.001 A 
ATOM     35  C   UNL     1      -5.998  10.989  -2.463  0.00  0.00    +0.000 A 
ATOM     36  C   UNL     1      -5.013  10.712  -3.394  0.00  0.00    +0.001 A 
ATOM     37  C   UNL     1      -4.637   9.407  -3.637  0.00  0.00    +0.010 A 
ENDBRANCH  30  32
ENDBRANCH  26  27
ENDBRANCH   6  26
TORSDOF 8
