REMARK  Name = ZINC66353744
REMARK  6 active torsions:
REMARK  status: ('A' for Active; 'I' for Inactive)
REMARK    1  A    between atoms: C_1  and  C_2
REMARK    2  A    between atoms: C_2  and  C_3
REMARK    3  A    between atoms: C_3  and  C_4
REMARK    4  A    between atoms: C_10  and  C_12
REMARK    5  A    between atoms: C_12  and  N_14
REMARK    6  A    between atoms: N_23  and  C_24
REMARK                            x       y       z     vdW  Elec       q    Type
REMARK                         _______ _______ _______ _____ _____    ______ ____
ROOT
ATOM      1  N   UNL     1       2.218  -5.920  -0.897  0.00  0.00    -0.145 NA
ATOM      2  C   UNL     1       2.915  -6.357   0.148  0.00  0.00    +0.201 A 
ATOM      3  N   UNL     1       3.420  -5.577   1.140  0.00  0.00    -0.326 N 
ATOM      4  C   UNL     1       4.083  -6.397   2.046  0.00  0.00    +0.067 A 
ATOM      5  C   UNL     1       4.771  -6.144   3.225  0.00  0.00    +0.047 A 
ATOM      6  C   UNL     1       5.339  -7.189   3.927  0.00  0.00    +0.043 A 
ATOM      7  C   UNL     1       5.223  -8.489   3.461  0.00  0.00    +0.022 A 
ATOM      8  C   UNL     1       4.540  -8.750   2.290  0.00  0.00    +0.029 A 
ATOM      9  C   UNL     1       3.967  -7.707   1.577  0.00  0.00    +0.068 A 
ATOM     10  N   UNL     1       3.231  -7.655   0.397  0.00  0.00    -0.315 N 
ATOM     11  C   UNL     1       2.862  -8.803  -0.436  0.00  0.00    +0.152 C 
ATOM     12 CL   UNL     1       6.201  -6.873   5.401  0.00  0.00    -0.083 Cl
ATOM     13  H   UNL     1       3.333  -4.613   1.204  0.00  0.00    +0.169 HD
ENDROOT
BRANCH   1  14
ATOM     14  C   UNL     1       2.067  -4.615  -1.097  0.00  0.00    +0.260 C 
ATOM     15  O   UNL     1       2.483  -3.822  -0.274  0.00  0.00    -0.272 OA
BRANCH  14  22
ATOM     16  C   UNL     1       0.774  -1.994  -1.289  0.00  0.00    +0.217 C 
ATOM     17  O   UNL     1       0.260  -2.602  -0.374  0.00  0.00    -0.276 OA
ATOM     18  N   UNL     1       1.351  -2.665  -2.304  0.00  0.00    -0.280 N 
ATOM     19  C   UNL     1       1.994  -1.962  -3.436  0.00  0.00    +0.178 C 
ATOM     20  S   UNL     1       3.144  -3.266  -4.061  0.00  0.00    -0.139 S 
ATOM     21  C   UNL     1       2.100  -4.712  -3.577  0.00  0.00    +0.102 C 
ATOM     22  C   UNL     1       1.379  -4.117  -2.342  0.00  0.00    +0.175 C 
BRANCH  16  23
ATOM     23  C   UNL     1       0.767  -0.486  -1.289  0.00  0.00    +0.096 C 
BRANCH  23  25
ATOM     24  C   UNL     1       0.048   1.551  -0.034  0.00  0.00    +0.004 C 
ATOM     25  C   UNL     1       0.055   0.021  -0.034  0.00  0.00    +0.006 C 
ENDBRANCH  23  25
ENDBRANCH  16  23
ENDBRANCH  14  22
ENDBRANCH   1  14
TORSDOF 4
