REMARK  Name = ZINC64709723
REMARK  9 active torsions:
REMARK  status: ('A' for Active; 'I' for Inactive)
REMARK    1  A    between atoms: C_1  and  C_2
REMARK    2  A    between atoms: C_2  and  C_3
REMARK    3  A    between atoms: C_2  and  C_4
REMARK    4  A    between atoms: C_4  and  C_6
REMARK    5  A    between atoms: C_4  and  N_28
REMARK    6  A    between atoms: C_9  and  C_12
REMARK    7  A    between atoms: N_22  and  C_23
REMARK    8  A    between atoms: N_28  and  S_29
REMARK    9  A    between atoms: S_29  and  C_32
REMARK                            x       y       z     vdW  Elec       q    Type
REMARK                         _______ _______ _______ _____ _____    ______ ____
ROOT
ATOM      1  C   UNL     1      -2.276  -0.112  -1.292  0.00  0.00    +0.311 C 
ATOM      2  N   UNL     1      -3.634  -0.660  -1.144  0.00  0.00    -0.288 N 
ATOM      3  C   UNL     1      -3.777  -1.641  -2.108  0.00  0.00    +0.168 C 
ATOM      4  N   UNL     1      -2.701  -1.762  -2.815  0.00  0.00    -0.067 NA
ATOM      5  O   UNL     1      -1.705  -0.850  -2.383  0.00  0.00    -0.368 OA
ATOM      6  H   UNL     1      -4.301  -0.386  -0.494  0.00  0.00    +0.151 HD
ENDROOT
BRANCH   3   7
ATOM      7  C   UNL     1      -5.002  -2.447  -2.305  0.00  0.00    +0.020 A 
ATOM      8  C   UNL     1      -6.116  -2.235  -1.490  0.00  0.00    +0.013 A 
ATOM      9  C   UNL     1      -7.258  -2.984  -1.671  0.00  0.00    +0.029 A 
ATOM     10  C   UNL     1      -7.304  -3.952  -2.666  0.00  0.00    +0.070 A 
ATOM     11  C   UNL     1      -6.192  -4.168  -3.485  0.00  0.00    +0.068 A 
ATOM     12  C   UNL     1      -5.046  -3.414  -3.309  0.00  0.00    +0.039 A 
ATOM     13  N   UNL     1      -6.538  -5.186  -4.372  0.00  0.00    -0.306 N 
ATOM     14  H   UNL     1      -5.967  -5.554  -5.064  0.00  0.00    +0.170 HD
ATOM     15  C   UNL     1      -7.801  -5.569  -4.105  0.00  0.00    +0.328 A 
ATOM     16  O   UNL     1      -8.409  -6.440  -4.698  0.00  0.00    -0.247 OA
ATOM     17  N   UNL     1      -8.289  -4.843  -3.082  0.00  0.00    -0.289 N 
BRANCH  17  18
ATOM     18  C   UNL     1      -9.628  -4.970  -2.503  0.00  0.00    +0.092 C 
ATOM     19  C   UNL     1      -9.860  -6.417  -2.020  0.00  0.00    +0.025 C 
ATOM     20  C   UNL     1     -11.348  -6.693  -2.349  0.00  0.00    +0.002 C 
ATOM     21  C   UNL     1     -11.537  -5.974  -3.707  0.00  0.00    +0.002 C 
ATOM     22  C   UNL     1     -10.695  -4.689  -3.576  0.00  0.00    +0.025 C 
ENDBRANCH  17  18
ENDBRANCH   3   7
BRANCH   1  23
ATOM     23  C   UNL     1      -1.467  -0.339  -0.013  0.00  0.00    +0.141 C 
BRANCH  23  25
ATOM     24  C   UNL     1      -0.256   1.815  -0.382  0.00  0.00    +0.009 C 
ATOM     25  C   UNL     1      -0.089   0.310  -0.160  0.00  0.00    +0.007 C 
ATOM     26  C   UNL     1       0.726   0.070   1.112  0.00  0.00    +0.009 C 
ENDBRANCH  23  25
BRANCH  23  27
ATOM     27  N   UNL     1      -2.171   0.261   1.123  0.00  0.00    -0.181 NA
ATOM     28  H   UNL     1      -2.285   1.223   1.169  0.00  0.00    +0.149 HD
BRANCH  27  29
ATOM     29  S   UNL     1      -2.771  -0.703   2.328  0.00  0.00    +0.059 S 
ATOM     30  O   UNL     1      -3.375   0.163   3.279  0.00  0.00    -0.153 OA
ATOM     31  O   UNL     1      -3.487  -1.752   1.690  0.00  0.00    -0.153 OA
BRANCH  29  32
ATOM     32  C   UNL     1      -1.393  -1.451   3.132  0.00  0.00    +0.105 A 
ATOM     33  C   UNL     1      -0.893  -2.654   2.671  0.00  0.00    +0.028 A 
ATOM     34  C   UNL     1       0.189  -3.240   3.301  0.00  0.00    +0.002 A 
ATOM     35  C   UNL     1       0.770  -2.623   4.393  0.00  0.00    +0.000 A 
ATOM     36  C   UNL     1       0.271  -1.420   4.854  0.00  0.00    +0.002 A 
ATOM     37  C   UNL     1      -0.808  -0.831   4.221  0.00  0.00    +0.028 A 
ENDBRANCH  29  32
ENDBRANCH  27  29
ENDBRANCH  23  27
ENDBRANCH   1  23
TORSDOF 7
