REMARK  Name = ZINC04851052
REMARK  13 active torsions:
REMARK  status: ('A' for Active; 'I' for Inactive)
REMARK    1  A    between atoms: C_1  and  C_2
REMARK    2  A    between atoms: N_8  and  C_9
REMARK    3  A    between atoms: C_9  and  C_10
REMARK    4  A    between atoms: C_10  and  O_11
REMARK    5  A    between atoms: C_12  and  C_20
REMARK    6  A    between atoms: C_14  and  C_18
REMARK    7  A    between atoms: C_15  and  N_17
REMARK    8  A    between atoms: C_22  and  O_30
REMARK    9  A    between atoms: C_23  and  O_28
REMARK   10  A    between atoms: C_24  and  O_26
REMARK   11  A    between atoms: O_26  and  C_27
REMARK   12  A    between atoms: O_28  and  C_29
REMARK   13  A    between atoms: O_30  and  C_31
REMARK                            x       y       z     vdW  Elec       q    Type
REMARK                         _______ _______ _______ _____ _____    ______ ____
ROOT
ATOM      1  C   UNL     1       5.367   3.091  -0.346  0.00  0.00    +0.064 C 
ATOM      2  C   UNL     1       3.968   2.556  -0.177  0.00  0.00    +0.023 A 
ATOM      3  C   UNL     1       3.185   3.042   0.809  0.00  0.00    +0.068 A 
ATOM      4  C   UNL     1       1.875   2.545   0.972  0.00  0.00    +0.141 A 
ATOM      5  C   UNL     1       1.420   1.566   0.114  0.00  0.00    +0.072 A 
ATOM      6  C   UNL     1       2.269   1.092  -0.895  0.00  0.00    +0.259 A 
ATOM      7  O   UNL     1       1.881   0.225  -1.662  0.00  0.00    -0.267 OA
ATOM      8  N   UNL     1       3.513   1.591  -1.019  0.00  0.00    -0.310 N 
ATOM      9  C   UNL     1       0.030   1.009   0.251  0.00  0.00    +0.103 C 
ATOM     10  C   UNL     1      -0.536   1.356   1.599  0.00  0.00    +0.098 C 
ATOM     11  C   UNL     1       0.015   2.329   2.363  0.00  0.00    +0.199 C 
ATOM     12  O   UNL     1       1.089   3.029   1.957  0.00  0.00    -0.441 OA
ENDROOT
BRANCH   9  13
ATOM     13  C   UNL     1      -0.851   1.593  -0.823  0.00  0.00    -0.027 A 
ATOM     14  C   UNL     1      -1.050   2.959  -0.883  0.00  0.00    +0.054 A 
ATOM     15  C   UNL     1      -1.856   3.502  -1.873  0.00  0.00    +0.165 A 
ATOM     16  C   UNL     1      -2.471   2.668  -2.800  0.00  0.00    +0.204 A 
ATOM     17  C   UNL     1      -2.272   1.294  -2.733  0.00  0.00    +0.165 A 
ATOM     18  C   UNL     1      -1.461   0.761  -1.743  0.00  0.00    +0.054 A 
BRANCH  17  19
ATOM     19  O   UNL     1      -2.872   0.475  -3.637  0.00  0.00    -0.491 OA
ATOM     20  C   UNL     1      -2.623  -0.927  -3.507  0.00  0.00    +0.277 C 
ENDBRANCH  17  19
BRANCH  16  21
ATOM     21  O   UNL     1      -3.266   3.196  -3.770  0.00  0.00    -0.488 OA
ATOM     22  C   UNL     1      -4.655   3.339  -3.465  0.00  0.00    +0.277 C 
ENDBRANCH  16  21
BRANCH  15  23
ATOM     23  O   UNL     1      -2.048   4.847  -1.934  0.00  0.00    -0.491 OA
ATOM     24  C   UNL     1      -1.384   5.642  -0.950  0.00  0.00    +0.277 C 
ENDBRANCH  15  23
ENDBRANCH   9  13
BRANCH  11  25
ATOM     25  N   UNL     1      -0.539   2.610   3.587  0.00  0.00    -0.328 N 
ATOM     26  H   UNL     1      -0.156   3.305   4.145  0.00  0.00    +0.145 HD
ATOM     27  H   UNL     1      -1.314   2.113   3.894  0.00  0.00    +0.145 HD
ENDBRANCH  11  25
BRANCH  10  28
ATOM     28  C   UNL     1      -1.679   0.644   2.086  0.00  0.00    +0.101 C 
ATOM     29  N   UNL     1      -2.587   0.080   2.472  0.00  0.00    -0.191 NA
ENDBRANCH  10  28
BRANCH   8  30
ATOM     30  C   UNL     1       4.390   1.086  -2.078  0.00  0.00    +0.153 C 
BRANCH  30  31
ATOM     31  C   UNL     1       5.189  -0.108  -1.553  0.00  0.00    +0.177 C 
BRANCH  31  32
ATOM     32  O   UNL     1       4.297  -1.184  -1.256  0.00  0.00    -0.393 OA
ATOM     33  H   UNL     1       4.735  -1.977  -0.918  0.00  0.00    +0.209 HD
ENDBRANCH  31  32
ENDBRANCH  30  31
ENDBRANCH   8  30
TORSDOF 9
