REMARK  Name = ZINC35724926
REMARK  9 active torsions:
REMARK  status: ('A' for Active; 'I' for Inactive)
REMARK    1  A    between atoms: C_1  and  C_2
REMARK    2  A    between atoms: C_2  and  C_3
REMARK    3  A    between atoms: C_3  and  C_5
REMARK    4  A    between atoms: C_3  and  C_6
REMARK    5  A    between atoms: C_6  and  C_8
REMARK    6  A    between atoms: C_6  and  N_23
REMARK    7  A    between atoms: C_14  and  C_16
REMARK    8  A    between atoms: C_19  and  C_22
REMARK    9  A    between atoms: N_26  and  C_27
REMARK                            x       y       z     vdW  Elec       q    Type
REMARK                         _______ _______ _______ _____ _____    ______ ____
ROOT
ATOM      1  C   UNL     1      -1.416  -2.058  -0.121  0.00  0.00    +0.163 C 
ENDROOT
BRANCH   1   2
ATOM      2  C   UNL     1      -0.749  -2.440  -1.417  0.00  0.00    +0.239 C 
ATOM      3  O   UNL     1       0.249  -3.130  -1.406  0.00  0.00    -0.273 OA
ATOM      4  N   UNL     1      -1.261  -2.016  -2.590  0.00  0.00    -0.262 N 
ATOM      5  C   UNL     1      -0.646  -2.369  -3.785  0.00  0.00    +0.188 A 
ATOM      6  N   UNL     1       0.430  -3.107  -3.979  0.00  0.00    -0.125 NA
ATOM      7  N   UNL     1       0.877  -3.346  -5.137  0.00  0.00    -0.140 NA
ATOM      8  C   UNL     1       0.242  -2.838  -6.186  0.00  0.00    +0.134 A 
ATOM      9  S   UNL     1      -1.086  -1.970  -5.362  0.00  0.00    -0.030 S 
ATOM     10  H   UNL     1      -2.059  -1.465  -2.599  0.00  0.00    +0.157 HD
BRANCH   8  11
ATOM     11  C   UNL     1       0.546  -2.958  -7.627  0.00  0.00    +0.009 A 
ATOM     12  C   UNL     1      -0.266  -2.325  -8.570  0.00  0.00    +0.011 A 
ATOM     13  C   UNL     1       0.023  -2.442  -9.914  0.00  0.00    +0.004 A 
ATOM     14  C   UNL     1       1.114  -3.185 -10.328  0.00  0.00    -0.050 A 
ATOM     15  C   UNL     1       1.922  -3.815  -9.399  0.00  0.00    +0.004 A 
ATOM     16  C   UNL     1       1.648  -3.701  -8.052  0.00  0.00    +0.011 A 
ATOM     17  C   UNL     1       1.423  -3.308 -11.798  0.00  0.00    +0.044 C 
ENDBRANCH   8  11
ENDBRANCH   1   2
BRANCH   1  18
ATOM     18  N   UNL     1      -0.673  -2.638   1.000  0.00  0.00    -0.288 N 
ATOM     19  C   UNL     1      -1.297  -2.877   2.170  0.00  0.00    +0.301 C 
ATOM     20  O   UNL     1      -2.477  -2.612   2.296  0.00  0.00    -0.253 OA
ATOM     21  N   UNL     1      -0.613  -3.411   3.202  0.00  0.00    -0.294 N 
ATOM     22  H   UNL     1       0.269  -2.850   0.900  0.00  0.00    +0.151 HD
ATOM     23  H   UNL     1       0.328  -3.623   3.102  0.00  0.00    +0.151 HD
BRANCH  21  24
ATOM     24  C   UNL     1      -1.292  -3.671   4.474  0.00  0.00    +0.037 C 
ATOM     25  C   UNL     1      -1.843  -2.360   5.035  0.00  0.00    +0.029 C 
ATOM     26  C   UNL     1      -2.552  -2.631   6.364  0.00  0.00    -0.008 C 
ATOM     27  C   UNL     1      -1.557  -3.234   7.359  0.00  0.00    +0.007 C 
ATOM     28  C   UNL     1      -1.006  -4.546   6.797  0.00  0.00    -0.008 C 
ATOM     29  C   UNL     1      -0.297  -4.274   5.468  0.00  0.00    +0.029 C 
ATOM     30  C   UNL     1      -2.157  -5.527   6.569  0.00  0.00    +0.007 C 
ATOM     31  C   UNL     1      -3.152  -4.925   5.575  0.00  0.00    -0.008 C 
ATOM     32  C   UNL     1      -3.703  -3.613   6.136  0.00  0.00    +0.007 C 
ATOM     33  C   UNL     1      -2.443  -4.653   4.246  0.00  0.00    +0.029 C 
ENDBRANCH  21  24
ENDBRANCH   1  18
BRANCH   1  34
ATOM     34  C   UNL     1      -1.433  -0.534   0.013  0.00  0.00    +0.015 C 
ATOM     35  C   UNL     1      -2.110  -0.145   1.329  0.00  0.00    +0.010 C 
BRANCH  34  37
ATOM     36  C   UNL     1      -0.019   1.526   0.010  0.00  0.00    +0.004 C 
ATOM     37  C   UNL     1       0.002  -0.004   0.002  0.00  0.00    +0.002 C 
ENDBRANCH  34  37
ENDBRANCH   1  34
TORSDOF 6
