REMARK  Name = ZINC13365134
REMARK  3 active torsions:
REMARK  status: ('A' for Active; 'I' for Inactive)
REMARK    1  A    between atoms: C_8  and  C_12
REMARK    2  A    between atoms: C_17  and  C_20
REMARK    3  A    between atoms: C_17  and  N_52
REMARK                            x       y       z     vdW  Elec       q    Type
REMARK                         _______ _______ _______ _____ _____    ______ ____
ROOT
ATOM      1  C   UNL     1      -0.725  -4.228  -1.923  0.00  0.00    +0.268 C 
ATOM      2  O   UNL     1      -1.021  -4.310  -3.099  0.00  0.00    -0.268 OA
ATOM      3  N   UNL     1      -0.811  -3.043  -1.288  0.00  0.00    -0.296 N 
ATOM      4  C   UNL     1      -1.040  -1.804  -2.043  0.00  0.00    +0.107 C 
ATOM      5  C   UNL     1      -2.254  -1.082  -1.450  0.00  0.00    +0.016 C 
ATOM      6  C   UNL     1      -2.035  -0.872   0.050  0.00  0.00    +0.015 C 
ATOM      7  C   UNL     1      -1.895  -2.230   0.742  0.00  0.00    +0.016 C 
ATOM      8  C   UNL     1      -0.677  -2.965   0.174  0.00  0.00    +0.107 C 
ENDROOT
BRANCH   1  16
ATOM      9  C   UNL     1       1.470  -7.426   2.683  0.00  0.00    +0.002 A 
ATOM     10  C   UNL     1       1.426  -8.673   2.060  0.00  0.00    +0.002 A 
ATOM     11  C   UNL     1       0.971  -8.804   0.785  0.00  0.00    +0.030 A 
ATOM     12  C   UNL     1       0.537  -7.668   0.079  0.00  0.00    +0.091 A 
ATOM     13  C   UNL     1       0.581  -6.398   0.713  0.00  0.00    +0.090 A 
ATOM     14  C   UNL     1       1.060  -6.304   2.034  0.00  0.00    +0.030 A 
ATOM     15  N   UNL     1       0.177  -5.314   0.051  0.00  0.00    -0.237 NA
ATOM     16  C   UNL     1      -0.271  -5.432  -1.187  0.00  0.00    +0.163 A 
ATOM     17  C   UNL     1      -0.314  -6.691  -1.814  0.00  0.00    +0.160 A 
ATOM     18  N   UNL     1       0.085  -7.768  -1.176  0.00  0.00    -0.231 NA
ATOM     19 CL   UNL     1      -0.901  -6.823  -3.442  0.00  0.00    -0.060 Cl
ENDBRANCH   1  16
BRANCH   6  25
ATOM     20  C   UNL     1      -3.433   1.097  -0.116  0.00  0.00    -0.077 C 
ATOM     21  C   UNL     1      -4.718   1.747   0.405  0.00  0.00    -0.019 C 
ATOM     22  C   UNL     1      -4.569   2.031   1.902  0.00  0.00    -0.004 C 
ATOM     23  C   UNL     1      -4.262   0.723   2.634  0.00  0.00    -0.019 C 
ATOM     24  C   UNL     1      -2.991   0.103   2.049  0.00  0.00    -0.077 C 
ATOM     25  N   UNL     1      -3.207  -0.169   0.613  0.00  0.00    +0.389 N 
ATOM     26  H   UNL     1      -4.036  -0.766   0.508  0.00  0.00    -0.080 HD
ENDBRANCH   6  25
BRANCH   6  27
ATOM     27  C   UNL     1      -0.780  -0.067   0.267  0.00  0.00    +0.200 C 
ATOM     28  O   UNL     1       0.034  -0.423   1.092  0.00  0.00    -0.278 OA
ATOM     29  N   UNL     1      -0.562   1.050  -0.457  0.00  0.00    -0.330 N 
ATOM     30  H   UNL     1       0.209   1.606  -0.269  0.00  0.00    +0.145 HD
ATOM     31  H   UNL     1      -1.176   1.294  -1.167  0.00  0.00    +0.145 HD
ENDBRANCH   6  27
TORSDOF 3
