REMARK  Name = ZINC13557025
REMARK  8 active torsions:
REMARK  status: ('A' for Active; 'I' for Inactive)
REMARK    1  A    between atoms: C_1  and  C_2
REMARK    2  A    between atoms: C_2  and  C_3
REMARK    3  A    between atoms: C_6  and  N_9
REMARK    4  A    between atoms: C_14  and  C_34
REMARK    5  A    between atoms: C_16  and  C_21
REMARK    6  A    between atoms: C_16  and  C_32
REMARK    7  A    between atoms: C_21  and  C_22
REMARK    8  A    between atoms: C_39  and  O_40
REMARK                            x       y       z     vdW  Elec       q    Type
REMARK                         _______ _______ _______ _____ _____    ______ ____
ROOT
ATOM      1  N   UNL     1       1.491   2.536  -3.550  0.00  0.00    -0.210 N 
ATOM      2  C   UNL     1       2.305   2.342  -2.462  0.00  0.00    +0.229 C 
ATOM      3  O   UNL     1       3.481   2.616  -2.359  0.00  0.00    -0.275 OA
ATOM      4  C   UNL     1       1.449   1.738  -1.467  0.00  0.00    +0.077 C 
ATOM      5  C   UNL     1       1.385   1.563  -0.003  0.00  0.00    -0.023 C 
ATOM      6  C   UNL     1      -0.830   1.530  -0.982  0.00  0.00    +0.052 C 
ATOM      7  C   UNL     1       0.082   2.485  -1.749  0.00  0.00    +0.086 C 
ATOM      8  C   UNL     1       0.165   2.397  -3.248  0.00  0.00    +0.229 C 
ATOM      9  O   UNL     1      -0.751   2.236  -4.025  0.00  0.00    -0.275 OA
ATOM     10  N   UNL     1      -0.020   1.081   0.182  0.00  0.00    +0.396 N 
ATOM     11  H   UNL     1      -0.410   1.474   1.047  0.00  0.00    -0.083 HD
ATOM     12  H   UNL     1      -0.031   0.056   0.237  0.00  0.00    -0.083 HD
ENDROOT
BRANCH   1  16
ATOM     13  C   UNL     1       2.908   3.451  -7.362  0.00  0.00    -0.048 A 
ATOM     14  C   UNL     1       3.798   3.272  -6.320  0.00  0.00    +0.005 A 
ATOM     15  C   UNL     1       3.332   2.969  -5.056  0.00  0.00    +0.024 A 
ATOM     16  C   UNL     1       1.967   2.844  -4.832  0.00  0.00    +0.044 A 
ATOM     17  C   UNL     1       1.076   3.019  -5.882  0.00  0.00    +0.024 A 
ATOM     18  C   UNL     1       1.548   3.327  -7.143  0.00  0.00    +0.005 A 
BRANCH  13  20
ATOM     19  C   UNL     1       3.672   2.487  -9.516  0.00  0.00    +0.009 C 
ATOM     20  C   UNL     1       3.420   3.782  -8.741  0.00  0.00    +0.032 C 
ENDBRANCH  13  20
ENDBRANCH   1  16
BRANCH   5  21
ATOM     21  C   UNL     1       2.381   0.530   0.460  0.00  0.00    -0.019 A 
ATOM     22  C   UNL     1       2.052  -0.811   0.426  0.00  0.00    +0.005 A 
ATOM     23  C   UNL     1       2.965  -1.758   0.850  0.00  0.00    +0.000 A 
ATOM     24  C   UNL     1       4.209  -1.367   1.309  0.00  0.00    +0.004 A 
ATOM     25  C   UNL     1       4.543  -0.027   1.344  0.00  0.00    +0.045 A 
ATOM     26  C   UNL     1       3.630   0.926   0.914  0.00  0.00    +0.118 A 
BRANCH  26  27
ATOM     27  O   UNL     1       3.958   2.244   0.943  0.00  0.00    -0.507 OA
ATOM     28  H   UNL     1       3.735   2.687   1.773  0.00  0.00    +0.292 HD
ENDBRANCH  26  27
ENDBRANCH   5  21
BRANCH   6  29
ATOM     29  C   UNL     1      -2.069   2.251  -0.517  0.00  0.00    +0.347 C 
ATOM     30  O   UNL     1      -2.482   3.202  -1.136  0.00  0.00    -0.248 OA
ATOM     31  O   UNL     1      -2.713   1.836   0.585  0.00  0.00    -0.248 OA
ENDBRANCH   6  29
BRANCH   6  32
ATOM     32  C   UNL     1      -1.208   0.336  -1.861  0.00  0.00    +0.037 C 
BRANCH  32  33
ATOM     33  C   UNL     1      -2.052  -0.626  -1.065  0.00  0.00    -0.023 A 
ATOM     34  C   UNL     1      -1.617  -1.708  -0.400  0.00  0.00    +0.087 A 
ATOM     35  N   UNL     1      -2.670  -2.339   0.205  0.00  0.00    -0.360 N 
ATOM     36  H   UNL     1      -2.604  -3.143   0.743  0.00  0.00    +0.165 HD
ATOM     37  C   UNL     1      -3.838  -1.661  -0.063  0.00  0.00    +0.047 A 
ATOM     38  C   UNL     1      -3.501  -0.555  -0.866  0.00  0.00    +0.003 A 
ATOM     39  C   UNL     1      -4.499   0.318  -1.302  0.00  0.00    +0.010 A 
ATOM     40  C   UNL     1      -5.798   0.101  -0.938  0.00  0.00    +0.001 A 
ATOM     41  C   UNL     1      -6.135  -0.985  -0.141  0.00  0.00    +0.002 A 
ATOM     42  C   UNL     1      -5.167  -1.863   0.296  0.00  0.00    +0.026 A 
ENDBRANCH  32  33
ENDBRANCH   6  32
TORSDOF 7
