REMARK  Name = ZINC36205011
REMARK  12 active torsions:
REMARK  status: ('A' for Active; 'I' for Inactive)
REMARK    1  A    between atoms: C_1  and  C_2
REMARK    2  A    between atoms: C_15  and  C_17
REMARK    3  A    between atoms: C_17  and  N_18
REMARK    4  A    between atoms: N_18  and  C_19
REMARK    5  A    between atoms: N_18  and  C_26
REMARK    6  A    between atoms: C_19  and  C_20
REMARK    7  A    between atoms: C_26  and  C_27
REMARK    8  A    between atoms: C_27  and  C_29
REMARK    9  A    between atoms: C_27  and  O_38
REMARK   10  A    between atoms: C_29  and  O_30
REMARK   11  A    between atoms: O_30  and  C_31
REMARK   12  A    between atoms: C_31  and  C_32
REMARK                            x       y       z     vdW  Elec       q    Type
REMARK                         _______ _______ _______ _____ _____    ______ ____
ROOT
ATOM      1  N   UNL     1       0.991  -8.465   3.245  0.00  0.00    +0.389 N 
ATOM      2  H   UNL     1       1.921  -8.207   2.951  0.00  0.00    -0.081 HD
ENDROOT
BRANCH   1   3
ATOM      3  C   UNL     1       0.054  -8.268   2.130  0.00  0.00    -0.003 C 
BRANCH   3  17
ATOM      4  C   UNL     1       1.438   1.222  -0.543  0.00  0.00    +0.008 C 
ATOM      5  C   UNL     1       1.320  -0.302  -0.475  0.00  0.00    -0.009 C 
ATOM      6  C   UNL     1      -0.149  -0.710  -0.619  0.00  0.00    +0.008 C 
ATOM      7  C   UNL     1      -0.251  -2.225  -0.801  0.00  0.00    +0.037 C 
ATOM      8  C   UNL     1       0.510  -2.911   0.331  0.00  0.00    -0.023 A 
ATOM      9  C   UNL     1       1.432  -2.229   1.052  0.00  0.00    -0.004 A 
ATOM     10  S   UNL     1       2.052  -3.398   2.235  0.00  0.00    -0.073 S 
ATOM     11  C   UNL     1       1.079  -4.792   1.763  0.00  0.00    +0.116 A 
ATOM     12  C   UNL     1       0.298  -4.300   0.693  0.00  0.00    +0.075 A 
ATOM     13  C   UNL     1      -0.619  -5.219   0.080  0.00  0.00    +0.260 A 
ATOM     14  O   UNL     1      -1.338  -4.894  -0.850  0.00  0.00    -0.267 OA
ATOM     15  N   UNL     1      -0.634  -6.469   0.600  0.00  0.00    -0.312 N 
ATOM     16  H   UNL     1      -1.239  -7.122   0.215  0.00  0.00    +0.170 HD
ATOM     17  C   UNL     1       0.156  -6.850   1.633  0.00  0.00    +0.094 A 
ATOM     18  N   UNL     1       1.008  -6.038   2.220  0.00  0.00    -0.229 NA
ATOM     19  C   UNL     1       1.841  -0.798   0.882  0.00  0.00    +0.046 C 
ENDBRANCH   3  17
ENDBRANCH   1   3
BRANCH   1  20
ATOM     20  C   UNL     1       0.585  -7.624   4.379  0.00  0.00    -0.042 C 
BRANCH  20  21
ATOM     21  C   UNL     1      -0.808  -8.003   4.812  0.00  0.00    -0.064 A 
ATOM     22  C   UNL     1      -1.902  -7.383   4.238  0.00  0.00    +0.002 A 
ATOM     23  C   UNL     1      -3.180  -7.730   4.634  0.00  0.00    +0.000 A 
ATOM     24  C   UNL     1      -3.364  -8.698   5.605  0.00  0.00    +0.000 A 
ATOM     25  C   UNL     1      -2.269  -9.318   6.178  0.00  0.00    +0.000 A 
ATOM     26  C   UNL     1      -0.992  -8.974   5.778  0.00  0.00    +0.002 A 
ENDBRANCH  20  21
ENDBRANCH   1  20
BRANCH   1  27
ATOM     27  C   UNL     1       0.980  -9.876   3.652  0.00  0.00    -0.044 C 
BRANCH  27  28
ATOM     28  C   UNL     1       2.053 -10.108   4.717  0.00  0.00    +0.124 C 
BRANCH  28  29
ATOM     29  O   UNL     1       3.339  -9.812   4.170  0.00  0.00    -0.391 OA
ATOM     30  H   UNL     1       3.575 -10.353   3.405  0.00  0.00    +0.210 HD
ENDBRANCH  28  29
BRANCH  28  31
ATOM     31  C   UNL     1       2.015 -11.570   5.168  0.00  0.00    +0.189 C 
BRANCH  31  32
ATOM     32  O   UNL     1       2.936 -11.760   6.244  0.00  0.00    -0.373 OA
BRANCH  32  33
ATOM     33  C   UNL     1       2.979 -13.099   6.743  0.00  0.00    +0.195 C 
BRANCH  33  34
ATOM     34  C   UNL     1       3.978 -13.184   7.868  0.00  0.00    -0.022 A 
ATOM     35  C   UNL     1       5.300 -13.482   7.598  0.00  0.00    +0.006 A 
ATOM     36  C   UNL     1       6.216 -13.560   8.630  0.00  0.00    +0.000 A 
ATOM     37  C   UNL     1       5.810 -13.339   9.933  0.00  0.00    +0.000 A 
ATOM     38  C   UNL     1       4.488 -13.040  10.203  0.00  0.00    +0.000 A 
ATOM     39  C   UNL     1       3.573 -12.958   9.170  0.00  0.00    +0.006 A 
ENDBRANCH  33  34
ENDBRANCH  32  33
ENDBRANCH  31  32
ENDBRANCH  28  31
ENDBRANCH  27  28
ENDBRANCH   1  27
TORSDOF 11
