REMARK  Name = ZINC38732384
REMARK  6 active torsions:
REMARK  status: ('A' for Active; 'I' for Inactive)
REMARK    1  A    between atoms: C_7  and  C_10
REMARK    2  A    between atoms: C_10  and  C_11
REMARK    3  A    between atoms: C_11  and  C_13
REMARK    4  A    between atoms: C_11  and  N_16
REMARK    5  A    between atoms: C_17  and  C_19
REMARK    6  A    between atoms: C_25  and  C_27
REMARK                            x       y       z     vdW  Elec       q    Type
REMARK                         _______ _______ _______ _____ _____    ______ ____
ROOT
ATOM      1  N   UNL     1      -3.102   3.723  -1.911  0.00  0.00    -0.303 N 
ATOM      2  C   UNL     1      -2.916   3.688  -3.245  0.00  0.00    +0.217 C 
ATOM      3  O   UNL     1      -3.866   3.545  -3.986  0.00  0.00    -0.275 OA
ATOM      4  H   UNL     1      -2.342   3.838  -1.319  0.00  0.00    +0.149 HD
ENDROOT
BRANCH   2   5
ATOM      5  C   UNL     1      -1.529   3.827  -3.817  0.00  0.00    +0.087 C 
ATOM      6  C   UNL     1      -0.645   2.695  -3.291  0.00  0.00    +0.013 C 
ATOM      7  C   UNL     1       0.764   2.836  -3.872  0.00  0.00    +0.001 C 
ATOM      8  C   UNL     1       0.696   2.763  -5.398  0.00  0.00    +0.001 C 
ATOM      9  C   UNL     1      -0.188   3.895  -5.924  0.00  0.00    +0.013 C 
ATOM     10  C   UNL     1      -1.597   3.754  -5.344  0.00  0.00    +0.087 C 
BRANCH  10  11
ATOM     11  C   UNL     1      -2.180   2.428  -5.758  0.00  0.00    +0.219 C 
ATOM     12  O   UNL     1      -1.940   1.431  -5.110  0.00  0.00    -0.275 OA
ATOM     13  N   UNL     1      -2.969   2.349  -6.848  0.00  0.00    -0.298 N 
ATOM     14  C   UNL     1      -3.167   3.520  -7.714  0.00  0.00    +0.126 C 
ATOM     15  C   UNL     1      -2.789   3.137  -9.150  0.00  0.00    +0.125 C 
ATOM     16  N   UNL     1      -3.466   1.879  -9.494  0.00  0.00    -0.314 N 
ATOM     17  C   UNL     1      -3.269   0.708  -8.628  0.00  0.00    +0.125 C 
ATOM     18  C   UNL     1      -3.642   1.090  -7.195  0.00  0.00    +0.126 C 
ATOM     19  C   UNL     1      -4.280   1.798 -10.618  0.00  0.00    +0.099 A 
ATOM     20  C   UNL     1      -4.360   2.879 -11.491  0.00  0.00    +0.042 A 
ATOM     21  C   UNL     1      -5.173   2.785 -12.605  0.00  0.00    +0.005 A 
ATOM     22  C   UNL     1      -5.883   1.608 -12.811  0.00  0.00    +0.018 A 
ATOM     23  C   UNL     1      -5.756   0.576 -11.904  0.00  0.00    +0.084 A 
ATOM     24  N   UNL     1      -4.968   0.691 -10.852  0.00  0.00    -0.350 N 
ATOM     25  H   UNL     1      -4.894  -0.051 -10.232  0.00  0.00    +0.166 HD
ENDBRANCH  10  11
ENDBRANCH   2   5
BRANCH   1  26
ATOM     26  C   UNL     1      -4.451   3.588  -1.355  0.00  0.00    +0.163 C 
BRANCH  26  27
ATOM     27  C   UNL     1      -5.125   4.936  -1.339  0.00  0.00    +0.231 C 
ATOM     28  O   UNL     1      -4.536   5.913  -1.751  0.00  0.00    -0.274 OA
ATOM     29  N   UNL     1      -6.381   5.055  -0.866  0.00  0.00    -0.328 N 
ATOM     30  H   UNL     1      -6.852   4.274  -0.537  0.00  0.00    +0.145 HD
ATOM     31  H   UNL     1      -6.815   5.923  -0.856  0.00  0.00    +0.145 HD
ENDBRANCH  26  27
BRANCH  26  32
ATOM     32  C   UNL     1      -4.362   3.045   0.072  0.00  0.00    +0.069 C 
BRANCH  32  39
ATOM     33  C   UNL     1       0.005   1.343  -0.003  0.00  0.00    +0.001 A 
ATOM     34  C   UNL     1       0.045  -0.044  -0.026  0.00  0.00    +0.002 A 
ATOM     35  C   UNL     1      -1.120  -0.780  -0.025  0.00  0.00    +0.026 A 
ATOM     36  C   UNL     1      -2.349  -0.130  -0.001  0.00  0.00    +0.047 A 
ATOM     37  N   UNL     1      -3.654  -0.568   0.006  0.00  0.00    -0.360 N 
ATOM     38  C   UNL     1      -4.504   0.504   0.033  0.00  0.00    +0.087 A 
ATOM     39  C   UNL     1      -3.800   1.647   0.044  0.00  0.00    -0.020 A 
ATOM     40  C   UNL     1      -2.383   1.277   0.023  0.00  0.00    +0.003 A 
ATOM     41  C   UNL     1      -1.191   2.003   0.027  0.00  0.00    +0.010 A 
ATOM     42  H   UNL     1      -3.929  -1.498  -0.007  0.00  0.00    +0.165 HD
ENDBRANCH  32  39
ENDBRANCH  26  32
ENDBRANCH   1  26
TORSDOF 6
