REMARK  Name = ZINC49281690
REMARK  4 active torsions:
REMARK  status: ('A' for Active; 'I' for Inactive)
REMARK    1  A    between atoms: C_1  and  C_2
REMARK    2  A    between atoms: N_8  and  C_11
REMARK    3  A    between atoms: N_12  and  C_13
REMARK    4  A    between atoms: C_13  and  C_14
REMARK                            x       y       z     vdW  Elec       q    Type
REMARK                         _______ _______ _______ _____ _____    ______ ____
ROOT
ATOM      1  C   UNL     1      -0.018   1.503   0.010  0.00  0.00    +0.088 C 
ATOM      2  C   UNL     1       0.002  -0.004   0.002  0.00  0.00    +0.130 A 
ATOM      3  N   UNL     1       0.005  -0.632  -1.161  0.00  0.00    -0.217 NA
ATOM      4  C   UNL     1       0.023  -1.958  -1.226  0.00  0.00    +0.133 A 
ATOM      5  C   UNL     1       0.038  -2.688  -0.022  0.00  0.00    +0.078 A 
ATOM      6  C   UNL     1       0.059  -4.061   0.307  0.00  0.00    +0.148 A 
ATOM      7  N   UNL     1       0.067  -4.174   1.605  0.00  0.00    -0.177 NA
ATOM      8  N   UNL     1       0.052  -2.901   2.190  0.00  0.00    -0.249 N 
ATOM      9  C   UNL     1       0.035  -1.973   1.192  0.00  0.00    +0.163 A 
ATOM     10  N   UNL     1       0.022  -0.641   1.152  0.00  0.00    -0.213 NA
ATOM     11  C   UNL     1       0.055  -2.616   3.627  0.00  0.00    +0.174 C 
ATOM     12  N   UNL     1       0.025  -2.607  -2.446  0.00  0.00    -0.328 N 
ATOM     13  H   UNL     1       0.038  -3.576  -2.480  0.00  0.00    +0.147 HD
ENDROOT
BRANCH  12  14
ATOM     14  C   UNL     1       0.008  -1.830  -3.688  0.00  0.00    +0.106 C 
BRANCH  14  15
ATOM     15  C   UNL     1       0.015  -2.783  -4.885  0.00  0.00    +0.010 C 
ATOM     16  C   UNL     1       0.113  -1.976  -6.186  0.00  0.00    +0.009 C 
ATOM     17  C   UNL     1       0.297  -2.953  -7.349  0.00  0.00    +0.027 C 
ATOM     18  C   UNL     1      -0.728  -4.047  -7.273  0.00  0.00    -0.031 C 
ATOM     19  C   UNL     1      -1.413  -4.325  -6.211  0.00  0.00    -0.031 C 
ATOM     20  C   UNL     1      -1.285  -3.590  -4.908  0.00  0.00    +0.032 C 
ENDBRANCH  14  15
ENDBRANCH  12  14
TORSDOF 2
