REMARK  Name = ZINC33526206
REMARK  7 active torsions:
REMARK  status: ('A' for Active; 'I' for Inactive)
REMARK    1  A    between atoms: C_1  and  C_2
REMARK    2  A    between atoms: C_2  and  C_3
REMARK    3  A    between atoms: C_3  and  N_4
REMARK    4  A    between atoms: N_4  and  C_5
REMARK    5  A    between atoms: C_6  and  C_17
REMARK    6  A    between atoms: C_11  and  C_16
REMARK    7  A    between atoms: N_21  and  C_25
REMARK                            x       y       z     vdW  Elec       q    Type
REMARK                         _______ _______ _______ _____ _____    ______ ____
ROOT
ATOM      1  C   UNL     1      -0.074   1.179   2.810  0.00  0.00    +0.134 A 
ATOM      2  C   UNL     1      -0.830   1.795   3.836  0.00  0.00    +0.081 A 
ATOM      3  C   UNL     1      -0.361   1.697   5.167  0.00  0.00    +0.267 A 
ATOM      4  O   UNL     1      -0.982   2.210   6.082  0.00  0.00    -0.267 OA
ATOM      5  N   UNL     1       0.790   1.032   5.407  0.00  0.00    -0.267 N 
ATOM      6  C   UNL     1       1.252   0.937   6.686  0.00  0.00    +0.099 A 
ATOM      7  C   UNL     1       2.400   0.277   6.960  0.00  0.00    -0.034 A 
ATOM      8  C   UNL     1       3.132  -0.320   5.924  0.00  0.00    +0.008 A 
ATOM      9  C   UNL     1       2.678  -0.230   4.642  0.00  0.00    +0.047 A 
ATOM     10  C   UNL     1       1.482   0.460   4.376  0.00  0.00    +0.142 A 
ATOM     11  N   UNL     1       1.046   0.542   3.118  0.00  0.00    -0.214 NA
ATOM     12  C   UNL     1       2.893   0.184   8.381  0.00  0.00    +0.045 C 
ENDROOT
BRANCH   2  13
ATOM     13  C   UNL     1      -2.026   2.488   3.538  0.00  0.00    +0.037 C 
ATOM     14  C   UNL     1      -3.221   2.014   3.997  0.00  0.00    +0.077 C 
ATOM     15  C   UNL     1      -3.513   0.796   4.675  0.00  0.00    +0.259 C 
ATOM     16  O   UNL     1      -2.632  -0.007   4.927  0.00  0.00    -0.269 OA
ATOM     17  N   UNL     1      -4.766   0.564   5.026  0.00  0.00    -0.252 N 
ATOM     18  C   UNL     1      -5.744   1.451   4.740  0.00  0.00    +0.121 C 
ATOM     19  S   UNL     1      -7.417   1.354   5.088  0.00  0.00    -0.027 S 
ATOM     20  S   UNL     1      -4.848   2.751   3.905  0.00  0.00    -0.061 S 
BRANCH  17  21
ATOM     21  C   UNL     1      -5.099  -0.677   5.730  0.00  0.00    +0.083 C 
ATOM     22  C   UNL     1      -6.104  -1.479   4.901  0.00  0.00    +0.023 C 
ATOM     23  C   UNL     1      -6.453  -2.775   5.636  0.00  0.00    +0.002 C 
ATOM     24  C   UNL     1      -7.067  -2.440   6.997  0.00  0.00    +0.000 C 
ATOM     25  C   UNL     1      -6.062  -1.638   7.826  0.00  0.00    +0.002 C 
ATOM     26  C   UNL     1      -5.713  -0.342   7.091  0.00  0.00    +0.023 C 
ENDBRANCH  17  21
ENDBRANCH   2  13
BRANCH   1  27
ATOM     27  N   UNL     1      -0.496   1.247   1.501  0.00  0.00    -0.328 N 
ATOM     28  H   UNL     1      -1.427   1.777   1.250  0.00  0.00    +0.147 HD
BRANCH  27  29
ATOM     29  C   UNL     1       0.294   0.612   0.443  0.00  0.00    +0.102 C 
BRANCH  29  31
ATOM     30  C   UNL     1       0.434   0.171  -2.013  0.00  0.00    +0.005 C 
ATOM     31  C   UNL     1      -0.391   0.834  -0.907  0.00  0.00    +0.015 C 
ENDBRANCH  29  31
ENDBRANCH  27  29
ENDBRANCH   1  27
TORSDOF 5
