REMARK  Name = ZINC09584564
REMARK  6 active torsions:
REMARK  status: ('A' for Active; 'I' for Inactive)
REMARK    1  A    between atoms: C_1  and  C_2
REMARK    2  A    between atoms: C_2  and  N_9
REMARK    3  A    between atoms: C_10  and  C_12
REMARK    4  A    between atoms: C_12  and  N_13
REMARK    5  A    between atoms: C_16  and  C_21
REMARK    6  A    between atoms: C_21  and  C_22
REMARK                            x       y       z     vdW  Elec       q    Type
REMARK                         _______ _______ _______ _____ _____    ______ ____
ROOT
ATOM      1  N   UNL     1      -2.655  -2.576   3.537  0.00  0.00    -0.216 N 
ATOM      2  C   UNL     1      -3.546  -2.549   4.548  0.00  0.00    +0.244 C 
ATOM      3  O   UNL     1      -4.678  -2.117   4.515  0.00  0.00    -0.273 OA
ATOM      4  C   UNL     1      -2.838  -3.172   5.735  0.00  0.00    +0.165 C 
ATOM      5  N   UNL     1      -1.506  -3.509   5.205  0.00  0.00    -0.287 N 
ATOM      6  C   UNL     1      -1.496  -3.128   3.915  0.00  0.00    +0.310 C 
ATOM      7  O   UNL     1      -0.541  -3.267   3.176  0.00  0.00    -0.252 OA
ATOM      8  H   UNL     1      -0.778  -3.929   5.691  0.00  0.00    +0.151 HD
ENDROOT
BRANCH   1   9
ATOM      9  C   UNL     1      -2.924  -2.069   2.189  0.00  0.00    +0.213 C 
BRANCH   9  11
ATOM     10  N   UNL     1      -2.699   0.067   0.962  0.00  0.00    -0.307 N 
ATOM     11  C   UNL     1      -2.538  -0.614   2.114  0.00  0.00    +0.231 C 
ATOM     12  O   UNL     1      -2.084  -0.056   3.090  0.00  0.00    -0.274 OA
ATOM     13  H   UNL     1      -3.062  -0.380   0.181  0.00  0.00    +0.149 HD
BRANCH  10  15
ATOM     14  C   UNL     1      -3.148   2.276   1.903  0.00  0.00    +0.033 C 
ATOM     15  C   UNL     1      -2.324   1.481   0.888  0.00  0.00    +0.053 C 
ATOM     16  C   UNL     1      -0.828   1.631   1.215  0.00  0.00    +0.049 C 
ATOM     17  C   UNL     1      -0.013   1.086   0.008  0.00  0.00    +0.168 C 
ATOM     18  S   UNL     1      -1.006   1.746  -1.397  0.00  0.00    -0.029 S 
ATOM     19  O   UNL     1      -0.474   3.005  -1.787  0.00  0.00    -0.174 OA
ATOM     20  O   UNL     1      -1.167   0.724  -2.370  0.00  0.00    -0.174 OA
ATOM     21  C   UNL     1      -2.609   2.015  -0.537  0.00  0.00    +0.191 C 
ENDBRANCH  10  15
ENDBRANCH   9  11
ENDBRANCH   1   9
BRANCH   4  22
ATOM     22  C   UNL     1      -3.570  -4.434   6.196  0.00  0.00    +0.069 C 
BRANCH  22  23
ATOM     23  C   UNL     1      -2.918  -4.963   7.448  0.00  0.00    -0.020 A 
ATOM     24  C   UNL     1      -1.979  -5.919   7.516  0.00  0.00    +0.087 A 
ATOM     25  N   UNL     1      -1.626  -6.134   8.821  0.00  0.00    -0.360 N 
ATOM     26  H   UNL     1      -0.963  -6.776   9.120  0.00  0.00    +0.165 HD
ATOM     27  C   UNL     1      -2.354  -5.305   9.645  0.00  0.00    +0.047 A 
ATOM     28  C   UNL     1      -3.196  -4.536   8.821  0.00  0.00    +0.003 A 
ATOM     29  C   UNL     1      -4.058  -3.597   9.390  0.00  0.00    +0.010 A 
ATOM     30  C   UNL     1      -4.080  -3.430  10.746  0.00  0.00    +0.001 A 
ATOM     31  C   UNL     1      -3.252  -4.187  11.563  0.00  0.00    +0.002 A 
ATOM     32  C   UNL     1      -2.393  -5.119  11.023  0.00  0.00    +0.026 A 
ENDBRANCH  22  23
ENDBRANCH   4  22
TORSDOF 5
