REMARK  Name = ZINC49340220
REMARK  6 active torsions:
REMARK  status: ('A' for Active; 'I' for Inactive)
REMARK    1  A    between atoms: C_1  and  C_2
REMARK    2  A    between atoms: C_2  and  O_3
REMARK    3  A    between atoms: O_3  and  C_4
REMARK    4  A    between atoms: N_6  and  C_7
REMARK    5  A    between atoms: N_15  and  C_16
REMARK    6  A    between atoms: C_16  and  C_17
REMARK                            x       y       z     vdW  Elec       q    Type
REMARK                         _______ _______ _______ _____ _____    ______ ____
ROOT
ATOM      1  C   UNL     1       1.512  -3.748  -2.593  0.00  0.00    +0.079 C 
ATOM      2  C   UNL     1       2.738  -4.262  -1.836  0.00  0.00    +0.041 C 
ATOM      3  C   UNL     1       2.832  -5.783  -1.997  0.00  0.00    +0.111 C 
ATOM      4  N   UNL     1       2.828  -6.108  -3.430  0.00  0.00    -0.286 N 
ATOM      5  C   UNL     1       1.740  -5.586  -4.269  0.00  0.00    +0.111 C 
ATOM      6  C   UNL     1       1.659  -4.068  -4.083  0.00  0.00    +0.041 C 
ATOM      7  C   UNL     1       3.803  -6.870  -3.964  0.00  0.00    +0.302 C 
ATOM      8  O   UNL     1       4.747  -7.216  -3.281  0.00  0.00    -0.253 OA
ATOM      9  N   UNL     1       3.731  -7.248  -5.256  0.00  0.00    -0.295 N 
ATOM     10  H   UNL     1       3.016  -6.913  -5.820  0.00  0.00    +0.151 HD
ENDROOT
BRANCH   1  13
ATOM     11  C   UNL     1       0.779  -1.799  -1.327  0.00  0.00    +0.400 C 
ATOM     12  O   UNL     1       0.312  -2.552  -0.495  0.00  0.00    -0.226 OA
ATOM     13  N   UNL     1       1.400  -2.298  -2.414  0.00  0.00    -0.278 N 
ATOM     14  H   UNL     1       1.773  -1.697  -3.078  0.00  0.00    +0.152 HD
BRANCH  11  15
ATOM     15  O   UNL     1       0.676  -0.467  -1.163  0.00  0.00    -0.451 OA
BRANCH  15  17
ATOM     16  C   UNL     1      -0.012   1.522   0.026  0.00  0.00    +0.048 C 
ATOM     17  C   UNL     1       0.006  -0.008   0.013  0.00  0.00    +0.230 C 
ENDBRANCH  15  17
ENDBRANCH  11  15
ENDBRANCH   1  13
BRANCH   9  18
ATOM     18  C   UNL     1       4.731  -8.165  -5.808  0.00  0.00    +0.148 C 
BRANCH  18  19
ATOM     19  C   UNL     1       4.427  -8.426  -7.260  0.00  0.00    +0.006 C 
ATOM     20  C   UNL     1       5.263  -8.027  -8.188  0.00  0.00    +0.021 C 
ATOM     21 BR   UNL     1       2.838  -9.329  -7.745  0.00  0.00    -0.054 Br
ENDBRANCH  18  19
ENDBRANCH   9  18
TORSDOF 5
