REMARK  Name = ZINC08790268
REMARK  8 active torsions:
REMARK  status: ('A' for Active; 'I' for Inactive)
REMARK    1  A    between atoms: C_1  and  C_2
REMARK    2  A    between atoms: C_4  and  C_39
REMARK    3  A    between atoms: C_13  and  C_15
REMARK    4  A    between atoms: C_15  and  C_16
REMARK    5  A    between atoms: C_19  and  O_22
REMARK    6  A    between atoms: N_25  and  C_28
REMARK    7  A    between atoms: C_28  and  C_29
REMARK    8  A    between atoms: C_29  and  C_30
REMARK                            x       y       z     vdW  Elec       q    Type
REMARK                         _______ _______ _______ _____ _____    ______ ____
ROOT
ATOM      1  C   UNL     1       6.596   0.489   0.211  0.00  0.00    +0.044 C 
ATOM      2  C   UNL     1       5.339   0.356  -0.610  0.00  0.00    -0.050 A 
ATOM      3  C   UNL     1       5.194  -0.703  -1.488  0.00  0.00    +0.008 A 
ATOM      4  C   UNL     1       4.046  -0.830  -2.242  0.00  0.00    -0.029 A 
ATOM      5  C   UNL     1       3.023   0.109  -2.125  0.00  0.00    +0.039 A 
ATOM      6  C   UNL     1       3.181   1.171  -1.239  0.00  0.00    -0.027 A 
ATOM      7  C   UNL     1       4.329   1.293  -0.488  0.00  0.00    +0.008 A 
ATOM      8  C   UNL     1       1.925   1.987  -1.349  0.00  0.00    +0.050 C 
ATOM      9  C   UNL     1       1.207   2.098   0.002  0.00  0.00    +0.088 C 
ATOM     10  C   UNL     1       0.607   3.532   0.010  0.00  0.00    +0.073 C 
ATOM     11  C   UNL     1       1.007   4.135  -1.354  0.00  0.00    -0.053 C 
ATOM     12  C   UNL     1      -0.885   3.284   0.025  0.00  0.00    +0.224 C 
ATOM     13  O   UNL     1      -1.738   4.145   0.037  0.00  0.00    -0.275 OA
ATOM     14  N   UNL     1      -1.117   1.966   0.018  0.00  0.00    -0.241 N 
ATOM     15  C   UNL     1      -0.014   1.208   0.009  0.00  0.00    +0.225 C 
ATOM     16  O   UNL     1       0.002  -0.004   0.002  0.00  0.00    -0.275 OA
ATOM     17  C   UNL     1       1.079   1.269  -2.365  0.00  0.00    +0.211 C 
ATOM     18  O   UNL     1      -0.025   1.594  -2.747  0.00  0.00    -0.277 OA
ATOM     19  N   UNL     1       1.786   0.195  -2.767  0.00  0.00    -0.286 N 
ATOM     20  C   UNL     1       3.898  -1.987  -3.196  0.00  0.00    +0.045 C 
ATOM     21  H   UNL     1       1.472  -0.444  -3.426  0.00  0.00    +0.155 HD
ATOM     22  N   UNL     1       2.182   3.358  -1.753  0.00  0.00    +0.394 N 
ATOM     23  H   UNL     1       2.313   3.409  -2.770  0.00  0.00    -0.083 HD
ATOM     24  H   UNL     1       3.021   3.716  -1.281  0.00  0.00    -0.083 HD
ENDROOT
BRANCH  11  25
ATOM     25  C   UNL     1       1.345   5.620  -1.200  0.00  0.00    +0.020 C 
BRANCH  25  26
ATOM     26  C   UNL     1       1.612   6.217  -2.558  0.00  0.00    -0.049 A 
ATOM     27  C   UNL     1       2.897   6.220  -3.069  0.00  0.00    +0.007 A 
ATOM     28  C   UNL     1       3.144   6.761  -4.316  0.00  0.00    +0.045 A 
ATOM     29  C   UNL     1       2.104   7.313  -5.050  0.00  0.00    +0.117 A 
ATOM     30  C   UNL     1       0.817   7.313  -4.532  0.00  0.00    +0.045 A 
ATOM     31  C   UNL     1       0.574   6.765  -3.287  0.00  0.00    +0.007 A 
BRANCH  29  32
ATOM     32  O   UNL     1       2.345   7.851  -6.274  0.00  0.00    -0.507 OA
ATOM     33  H   UNL     1       2.566   8.792  -6.254  0.00  0.00    +0.292 HD
ENDBRANCH  29  32
ENDBRANCH  25  26
ENDBRANCH  11  25
BRANCH  14  34
ATOM     34  C   UNL     1      -2.468   1.400   0.022  0.00  0.00    +0.121 C 
BRANCH  34  35
ATOM     35  C   UNL     1      -2.930   1.197   1.467  0.00  0.00    +0.054 C 
BRANCH  35  36
ATOM     36  C   UNL     1      -4.320   0.614   1.472  0.00  0.00    -0.046 A 
ATOM     37  C   UNL     1      -5.420   1.451   1.486  0.00  0.00    +0.004 A 
ATOM     38  C   UNL     1      -6.695   0.916   1.486  0.00  0.00    +0.000 A 
ATOM     39  C   UNL     1      -6.870  -0.455   1.482  0.00  0.00    +0.000 A 
ATOM     40  C   UNL     1      -5.770  -1.292   1.472  0.00  0.00    +0.000 A 
ATOM     41  C   UNL     1      -4.495  -0.757   1.467  0.00  0.00    +0.004 A 
ENDBRANCH  35  36
ENDBRANCH  34  35
ENDBRANCH  14  34
TORSDOF 6
