REMARK  Name = ZINC13640859
REMARK  8 active torsions:
REMARK  status: ('A' for Active; 'I' for Inactive)
REMARK    1  A    between atoms: C_1  and  O_2
REMARK    2  A    between atoms: O_2  and  C_3
REMARK    3  A    between atoms: C_5  and  C_13
REMARK    4  A    between atoms: C_7  and  O_11
REMARK    5  A    between atoms: C_8  and  O_9
REMARK    6  A    between atoms: O_9  and  C_10
REMARK    7  A    between atoms: O_11  and  C_12
REMARK    8  A    between atoms: C_26  and  O_29
REMARK                            x       y       z     vdW  Elec       q    Type
REMARK                         _______ _______ _______ _____ _____    ______ ____
ROOT
ATOM      1  C   UNL     1       2.294   5.186   0.593  0.00  0.00    +0.105 C 
ATOM      2  C   UNL     1       1.663   6.448  -0.002  0.00  0.00    +0.029 C 
ATOM      3  C   UNL     1       2.015   7.640   0.932  0.00  0.00    +0.033 C 
ATOM      4  C   UNL     1       0.983   7.540   2.038  0.00  0.00    -0.030 C 
ATOM      5  C   UNL     1      -0.056   6.853   1.636  0.00  0.00    -0.023 C 
ATOM      6  C   UNL     1       0.135   6.389   0.210  0.00  0.00    +0.049 C 
ATOM      7  C   UNL     1      -0.393   4.997   0.031  0.00  0.00    -0.016 A 
ATOM      8  C   UNL     1      -1.772   4.818   0.030  0.00  0.00    +0.006 A 
ATOM      9  C   UNL     1      -2.320   3.563  -0.128  0.00  0.00    +0.004 A 
ATOM     10  C   UNL     1      -1.497   2.461  -0.279  0.00  0.00    +0.047 A 
ATOM     11  C   UNL     1      -0.124   2.627  -0.283  0.00  0.00    +0.138 A 
ATOM     12  C   UNL     1       0.432   3.900  -0.128  0.00  0.00    +0.073 A 
ATOM     13  N   UNL     1       1.825   4.013  -0.145  0.00  0.00    -0.334 N 
ATOM     14  H   UNL     1       2.260   3.171   0.201  0.00  0.00    +0.147 HD
ENDROOT
BRANCH   1  17
ATOM     15  C   UNL     1       0.507   4.086   3.736  0.00  0.00    +0.165 A 
ATOM     16  C   UNL     1       0.876   4.204   2.404  0.00  0.00    +0.055 A 
ATOM     17  C   UNL     1       1.897   5.061   2.041  0.00  0.00    -0.020 A 
ATOM     18  C   UNL     1       2.560   5.800   3.003  0.00  0.00    +0.055 A 
ATOM     19  C   UNL     1       2.194   5.692   4.337  0.00  0.00    +0.165 A 
ATOM     20  C   UNL     1       1.167   4.831   4.706  0.00  0.00    +0.204 A 
BRANCH  15  22
ATOM     21  C   UNL     1      -1.131   2.508   3.042  0.00  0.00    +0.277 C 
ATOM     22  O   UNL     1      -0.498   3.243   4.092  0.00  0.00    -0.491 OA
ENDBRANCH  15  22
BRANCH  20  23
ATOM     23  O   UNL     1       0.808   4.719   6.014  0.00  0.00    -0.488 OA
ATOM     24  C   UNL     1       1.479   3.723   6.788  0.00  0.00    +0.277 C 
ENDBRANCH  20  23
BRANCH  19  25
ATOM     25  O   UNL     1       2.843   6.423   5.282  0.00  0.00    -0.491 OA
ATOM     26  C   UNL     1       3.888   7.286   4.831  0.00  0.00    +0.277 C 
ENDBRANCH  19  25
ENDBRANCH   1  17
BRANCH  11  27
ATOM     27  O   UNL     1       0.687   1.546  -0.436  0.00  0.00    -0.505 OA
ATOM     28  H   UNL     1       0.906   1.347  -1.357  0.00  0.00    +0.292 HD
ENDBRANCH  11  27
TORSDOF 5
