REMARK  Name = ZINC14965159
REMARK  11 active torsions:
REMARK  status: ('A' for Active; 'I' for Inactive)
REMARK    1  A    between atoms: C_1  and  O_2
REMARK    2  A    between atoms: O_2  and  C_3
REMARK    3  A    between atoms: C_7  and  C_11
REMARK    4  A    between atoms: C_8  and  O_9
REMARK    5  A    between atoms: O_9  and  C_10
REMARK    6  A    between atoms: C_11  and  N_70
REMARK    7  A    between atoms: C_14  and  C_17
REMARK    8  A    between atoms: C_14  and  O_36
REMARK    9  A    between atoms: C_24  and  C_26
REMARK   10  A    between atoms: N_28  and  C_29
REMARK   11  A    between atoms: C_29  and  C_30
REMARK                            x       y       z     vdW  Elec       q    Type
REMARK                         _______ _______ _______ _____ _____    ______ ____
ROOT
ATOM      1  C   UNL     1       0.541   3.362  -2.323  0.00  0.00    -0.075 C 
ATOM      2  C   UNL     1       0.901   3.808  -3.742  0.00  0.00    +0.021 C 
ATOM      3  C   UNL     1       0.659   5.314  -3.875  0.00  0.00    +0.088 C 
ATOM      4  C   UNL     1       1.492   6.052  -2.823  0.00  0.00    +0.021 C 
ATOM      5  C   UNL     1       1.114   5.541  -1.431  0.00  0.00    -0.075 C 
ATOM      6  N   UNL     1       1.394   4.091  -1.360  0.00  0.00    +0.383 N 
ATOM      7  H   UNL     1       2.379   3.930  -1.599  0.00  0.00    -0.081 HD
ENDROOT
BRANCH   3   8
ATOM      8  C   UNL     1       1.069   5.770  -5.252  0.00  0.00    -0.015 A 
ATOM      9  C   UNL     1       2.372   6.192  -5.479  0.00  0.00    +0.010 A 
ATOM     10  C   UNL     1       2.769   6.608  -6.731  0.00  0.00    +0.047 A 
ATOM     11  C   UNL     1       1.856   6.617  -7.780  0.00  0.00    +0.136 A 
ATOM     12  C   UNL     1       0.535   6.192  -7.543  0.00  0.00    +0.021 A 
ATOM     13  C   UNL     1       0.154   5.769  -6.267  0.00  0.00    +0.018 A 
ATOM     14  C   UNL     1      -0.158   6.319  -8.824  0.00  0.00    +0.063 A 
ATOM     15  C   UNL     1       0.762   6.792  -9.704  0.00  0.00    +0.190 A 
ATOM     16  O   UNL     1       1.945   6.964  -9.078  0.00  0.00    -0.450 OA
BRANCH  15  17
ATOM     17  C   UNL     1       0.507   7.075 -11.124  0.00  0.00    +0.279 C 
ATOM     18  O   UNL     1      -0.599   6.885 -11.592  0.00  0.00    -0.267 OA
ATOM     19  N   UNL     1       1.499   7.545 -11.906  0.00  0.00    -0.306 N 
ATOM     20  H   UNL     1       2.381   7.696 -11.532  0.00  0.00    +0.149 HD
BRANCH  19  21
ATOM     21  C   UNL     1       1.245   7.827 -13.321  0.00  0.00    +0.136 C 
BRANCH  21  22
ATOM     22  C   UNL     1       2.527   8.345 -13.976  0.00  0.00    +0.135 C 
ATOM     23  C   UNL     1       2.252   8.767 -15.436  0.00  0.00    +0.035 C 
ATOM     24  C   UNL     1       3.527   8.341 -16.197  0.00  0.00    +0.031 C 
ATOM     25  C   UNL     1       4.422   7.712 -15.106  0.00  0.00    +0.160 C 
ATOM     26  O   UNL     1       3.504   7.286 -14.075  0.00  0.00    -0.375 OA
ENDBRANCH  21  22
ENDBRANCH  19  21
ENDBRANCH  15  17
ENDBRANCH   3   8
BRANCH   3  27
ATOM     27  O   UNL     1      -0.727   5.594  -3.671  0.00  0.00    -0.384 OA
ATOM     28  H   UNL     1      -1.314   5.158  -4.303  0.00  0.00    +0.211 HD
ENDBRANCH   3  27
BRANCH   6  29
ATOM     29  C   UNL     1       1.145   3.596   0.010  0.00  0.00    -0.039 C 
BRANCH  29  34
ATOM     30  C   UNL     1       2.399   0.024  -0.021  0.00  0.00    +0.162 A 
ATOM     31  C   UNL     1       1.207  -0.682  -0.013  0.00  0.00    +0.049 A 
ATOM     32  C   UNL     1       0.002  -0.004   0.002  0.00  0.00    +0.004 A 
ATOM     33  C   UNL     1      -0.017   1.378   0.010  0.00  0.00    +0.005 A 
ATOM     34  C   UNL     1       1.169   2.089   0.002  0.00  0.00    -0.019 A 
ATOM     35  C   UNL     1       2.380   1.415  -0.013  0.00  0.00    +0.163 A 
BRANCH  30  37
ATOM     36  C   UNL     1       3.528  -2.069  -0.042  0.00  0.00    +0.277 C 
ATOM     37  O   UNL     1       3.585  -0.641  -0.035  0.00  0.00    -0.491 OA
ENDBRANCH  30  37
BRANCH  35  38
ATOM     38  O   UNL     1       3.548   2.113  -0.020  0.00  0.00    -0.491 OA
ATOM     39  C   UNL     1       4.093   2.452  -1.297  0.00  0.00    +0.277 C 
ENDBRANCH  35  38
ENDBRANCH  29  34
ENDBRANCH   6  29
TORSDOF 9
