REMARK  Name = ZINC38911756
REMARK  6 active torsions:
REMARK  status: ('A' for Active; 'I' for Inactive)
REMARK    1  A    between atoms: C_1  and  C_2
REMARK    2  A    between atoms: C_5  and  C_9
REMARK    3  A    between atoms: C_6  and  C_8
REMARK    4  A    between atoms: C_11  and  C_14
REMARK    5  A    between atoms: N_19  and  C_21
REMARK    6  A    between atoms: C_26  and  C_27
REMARK                            x       y       z     vdW  Elec       q    Type
REMARK                         _______ _______ _______ _____ _____    ______ ____
ROOT
ATOM      1  C   UNL     1      -0.349  -4.221  -0.265  0.00  0.00    +0.202 A 
ATOM      2  N   UNL     1      -0.438  -4.898  -1.423  0.00  0.00    -0.191 NA
ATOM      3  C   UNL     1      -0.603  -6.168  -1.187  0.00  0.00    +0.233 A 
ATOM      4  O   UNL     1      -0.625  -6.353   0.140  0.00  0.00    -0.337 OA
ATOM      5  N   UNL     1      -0.453  -5.072   0.726  0.00  0.00    -0.056 NA
ENDROOT
BRANCH   1  10
ATOM      6  C   UNL     1       0.394   1.467   0.256  0.00  0.00    +0.044 C 
ATOM      7  C   UNL     1       0.200  -0.021   0.120  0.00  0.00    -0.050 A 
ATOM      8  C   UNL     1      -0.761  -0.663   0.880  0.00  0.00    +0.004 A 
ATOM      9  C   UNL     1      -0.943  -2.026   0.760  0.00  0.00    +0.012 A 
ATOM     10  C   UNL     1      -0.158  -2.755  -0.131  0.00  0.00    +0.025 A 
ATOM     11  C   UNL     1       0.808  -2.103  -0.895  0.00  0.00    -0.039 A 
ATOM     12  C   UNL     1       0.978  -0.739  -0.770  0.00  0.00    +0.007 A 
ATOM     13  C   UNL     1       1.661  -2.885  -1.860  0.00  0.00    +0.044 C 
ENDBRANCH   1  10
BRANCH   3  14
ATOM     14  C   UNL     1      -0.745  -7.247  -2.229  0.00  0.00    +0.104 C 
ATOM     15  C   UNL     1       0.311  -8.357  -2.023  0.00  0.00    +0.111 C 
ATOM     16  C   UNL     1      -0.394  -9.387  -1.168  0.00  0.00    +0.221 C 
ATOM     17  O   UNL     1       0.158 -10.273  -0.551  0.00  0.00    -0.275 OA
ATOM     18  N   UNL     1      -1.721  -9.176  -1.191  0.00  0.00    -0.270 N 
ATOM     19  C   UNL     1      -2.064  -8.028  -2.040  0.00  0.00    +0.127 C 
BRANCH  18  20
ATOM     20  C   UNL     1      -2.656  -9.950  -0.495  0.00  0.00    +0.039 A 
ATOM     21  C   UNL     1      -3.025  -9.600   0.798  0.00  0.00    +0.024 A 
ATOM     22  C   UNL     1      -3.948 -10.367   1.482  0.00  0.00    +0.002 A 
ATOM     23  C   UNL     1      -4.504 -11.482   0.882  0.00  0.00    +0.000 A 
ATOM     24  C   UNL     1      -4.138 -11.833  -0.405  0.00  0.00    +0.005 A 
ATOM     25  C   UNL     1      -3.220 -11.067  -1.097  0.00  0.00    -0.029 A 
ATOM     26  C   UNL     1      -2.828 -11.446  -2.501  0.00  0.00    +0.045 C 
ENDBRANCH  18  20
ENDBRANCH   3  14
TORSDOF 3
