REMARK  Name = ZINC31163954
REMARK  11 active torsions:
REMARK  status: ('A' for Active; 'I' for Inactive)
REMARK    1  A    between atoms: C_1  and  C_2
REMARK    2  A    between atoms: C_9  and  O_15
REMARK    3  A    between atoms: C_16  and  C_41
REMARK    4  A    between atoms: C_20  and  C_39
REMARK    5  A    between atoms: C_20  and  C_40
REMARK    6  A    between atoms: C_21  and  O_38
REMARK    7  A    between atoms: C_22  and  O_27
REMARK    8  A    between atoms: C_24  and  O_26
REMARK    9  A    between atoms: O_27  and  C_28
REMARK   10  A    between atoms: C_28  and  C_30
REMARK   11  A    between atoms: C_31  and  C_32
REMARK                            x       y       z     vdW  Elec       q    Type
REMARK                         _______ _______ _______ _____ _____    ______ ____
ROOT
ATOM      1  C   UNL     1       1.098   6.109   0.993  0.00  0.00    +0.013 C 
ATOM      2  C   UNL     1      -0.018   6.212   2.022  0.00  0.00    +0.024 C 
ATOM      3  C   UNL     1      -1.115   5.159   1.873  0.00  0.00    +0.032 C 
ATOM      4  C   UNL     1      -2.220   5.444   0.898  0.00  0.00    +0.011 C 
ATOM      5  C   UNL     1      -2.738   6.872   0.843  0.00  0.00    +0.088 C 
ATOM      6  C   UNL     1      -1.658   7.938   0.878  0.00  0.00    +0.237 C 
ATOM      7  C   UNL     1      -0.679   7.566   1.973  0.00  0.00    +0.011 C 
ATOM      8  C   UNL     1      -0.551   8.608   2.767  0.00  0.00    +0.097 C 
ATOM      9  C   UNL     1      -1.459   9.671   2.317  0.00  0.00    +0.335 C 
ATOM     10  O   UNL     1      -1.548  10.773   2.823  0.00  0.00    -0.246 OA
ATOM     11  O   UNL     1      -2.175   9.244   1.256  0.00  0.00    -0.425 OA
ATOM     12  C   UNL     1      -2.112   4.783  -0.458  0.00  0.00    +0.004 C 
ATOM     13  C   UNL     1      -3.377   5.046  -1.286  0.00  0.00    +0.010 C 
ATOM     14  C   UNL     1      -4.567   4.355  -0.625  0.00  0.00    +0.001 C 
ATOM     15  C   UNL     1      -4.340   2.852  -0.747  0.00  0.00    +0.009 C 
ATOM     16  C   UNL     1      -3.067   2.427  -0.006  0.00  0.00    -0.002 C 
ATOM     17  C   UNL     1      -1.864   3.276  -0.343  0.00  0.00    +0.116 C 
ATOM     18  C   UNL     1      -0.637   3.021   0.515  0.00  0.00    +0.238 C 
ATOM     19  C   UNL     1      -0.528   3.765   1.821  0.00  0.00    +0.162 C 
ATOM     20  C   UNL     1      -3.378   2.359   1.487  0.00  0.00    +0.014 C 
ATOM     21  C   UNL     1      -2.799   0.976  -0.487  0.00  0.00    +0.014 C 
ATOM     22  C   UNL     1      -0.952   5.371  -1.284  0.00  0.00    +0.014 C 
ENDROOT
BRANCH   6  23
ATOM     23  O   UNL     1      -0.996   8.069  -0.382  0.00  0.00    -0.352 OA
ATOM     24  H   UNL     1      -0.188   8.805  -0.505  0.00  0.00    +0.214 HD
ENDBRANCH   6  23
BRANCH  19  25
ATOM     25  O   UNL     1      -1.044   2.978   2.906  0.00  0.00    -0.388 OA
ATOM     26  H   UNL     1      -0.726   1.932   3.027  0.00  0.00    +0.210 HD
ENDBRANCH  19  25
BRANCH  17  27
ATOM     27  O   UNL     1      -1.470   2.867  -1.693  0.00  0.00    -0.384 OA
ATOM     28  H   UNL     1      -1.229   1.814  -1.900  0.00  0.00    +0.210 HD
ENDBRANCH  17  27
BRANCH  18  29
ATOM     29  O   UNL     1      -0.440   1.620   0.757  0.00  0.00    -0.453 OA
BRANCH  29  30
ATOM     30  C   UNL     1       0.834   1.182   0.816  0.00  0.00    +0.332 C 
ATOM     31  O   UNL     1       1.754   1.963   0.661  0.00  0.00    -0.246 OA
BRANCH  30  32
ATOM     32  C   UNL     1       1.110  -0.234   1.059  0.00  0.00    +0.092 C 
ATOM     33  C   UNL     1       2.385  -0.673   1.112  0.00  0.00    +0.015 C 
BRANCH  33  34
ATOM     34  C   UNL     1       2.662  -2.098   1.357  0.00  0.00    -0.025 A 
ATOM     35  C   UNL     1       1.608  -2.998   1.541  0.00  0.00    +0.008 A 
ATOM     36  C   UNL     1       1.876  -4.332   1.765  0.00  0.00    +0.001 A 
ATOM     37  C   UNL     1       3.185  -4.778   1.819  0.00  0.00    +0.000 A 
ATOM     38  C   UNL     1       4.234  -3.893   1.643  0.00  0.00    +0.001 A 
ATOM     39  C   UNL     1       3.982  -2.557   1.413  0.00  0.00    +0.008 A 
ENDBRANCH  33  34
ENDBRANCH  30  32
ENDBRANCH  29  30
ENDBRANCH  18  29
TORSDOF 7
