REMARK  Name = ZINC17157965
REMARK  5 active torsions:
REMARK  status: ('A' for Active; 'I' for Inactive)
REMARK    1  A    between atoms: C_1  and  C_2
REMARK    2  A    between atoms: C_3  and  C_11
REMARK    3  A    between atoms: C_7  and  N_8
REMARK    4  A    between atoms: N_13  and  N_14
REMARK    5  A    between atoms: C_15  and  C_17
REMARK                            x       y       z     vdW  Elec       q    Type
REMARK                         _______ _______ _______ _____ _____    ______ ____
ROOT
ATOM      1  C   UNL     1       1.028   3.540   0.328  0.00  0.00    +0.260 C 
ATOM      2  O   UNL     1       2.034   4.219   0.267  0.00  0.00    -0.269 OA
ATOM      3  N   UNL     1      -0.166   4.123   0.552  0.00  0.00    -0.230 N 
ATOM      4  H   UNL     1      -1.077   3.509   0.606  0.00  0.00    +0.173 HD
ENDROOT
BRANCH   1   7
ATOM      5  C   UNL     1       3.622   2.273   0.127  0.00  0.00    +0.047 C 
ATOM      6  C   UNL     1       2.360   1.452   0.058  0.00  0.00    -0.008 A 
ATOM      7  C   UNL     1       1.115   2.074   0.156  0.00  0.00    +0.043 A 
ATOM      8  C   UNL     1      -0.049   1.306   0.092  0.00  0.00    +0.013 A 
ATOM      9  C   UNL     1       0.039  -0.061  -0.069  0.00  0.00    +0.003 A 
ATOM     10  C   UNL     1       1.276  -0.672  -0.166  0.00  0.00    +0.033 A 
ATOM     11  C   UNL     1       2.434   0.084  -0.103  0.00  0.00    +0.130 A 
BRANCH  11  12
ATOM     12  N   UNL     1       3.754  -0.577  -0.207  0.00  0.00    +0.057 N 
ATOM     13  O   UNL     1       3.826  -1.793  -0.226  0.00  0.00    -0.126 OA
ATOM     14  O   UNL     1       4.768   0.094  -0.275  0.00  0.00    -0.126 OA
ENDBRANCH  11  12
ENDBRANCH   1   7
BRANCH   3  15
ATOM     15  N   UNL     1      -0.248   5.512   0.714  0.00  0.00    -0.234 N 
ATOM     16  C   UNL     1      -1.442   6.095   0.938  0.00  0.00    +0.235 C 
ATOM     17  O   UNL     1      -2.446   5.418   0.999  0.00  0.00    -0.274 OA
ATOM     18  H   UNL     1       0.663   6.127   0.659  0.00  0.00    +0.173 HD
BRANCH  16  19
ATOM     19  C   UNL     1      -1.530   7.590   1.113  0.00  0.00    +0.049 C 
ATOM     20  C   UNL     1      -0.681   8.014   2.313  0.00  0.00    +0.019 C 
ATOM     21  C   UNL     1      -0.770   9.530   2.491  0.00  0.00    -0.009 C 
ATOM     22  C   UNL     1      -2.228   9.931   2.730  0.00  0.00    +0.007 C 
ATOM     23  C   UNL     1      -3.076   9.507   1.530  0.00  0.00    -0.009 C 
ATOM     24  C   UNL     1      -2.987   7.990   1.352  0.00  0.00    +0.019 C 
ATOM     25  C   UNL     1      -2.558  10.200   0.268  0.00  0.00    +0.007 C 
ATOM     26  C   UNL     1      -1.100   9.799   0.029  0.00  0.00    -0.009 C 
ATOM     27  C   UNL     1      -0.252  10.223   1.229  0.00  0.00    +0.007 C 
ATOM     28  C   UNL     1      -1.011   8.282  -0.149  0.00  0.00    +0.019 C 
ENDBRANCH  16  19
ENDBRANCH   3  15
TORSDOF 4
