REMARK  Name = ZINC16213976
REMARK  4 active torsions:
REMARK  status: ('A' for Active; 'I' for Inactive)
REMARK    1  A    between atoms: C_3  and  N_34
REMARK    2  A    between atoms: C_6  and  C_7
REMARK    3  A    between atoms: C_18  and  N_23
REMARK    4  A    between atoms: C_24  and  C_26
REMARK                            x       y       z     vdW  Elec       q    Type
REMARK                         _______ _______ _______ _____ _____    ______ ____
ROOT
ATOM      1  C   UNL     1      -0.074   1.890  -2.410  0.00  0.00    +0.105 C 
ATOM      2  C   UNL     1      -0.868   1.656  -1.151  0.00  0.00    +0.029 C 
ATOM      3  C   UNL     1      -1.321   3.002  -0.538  0.00  0.00    +0.033 C 
ATOM      4  C   UNL     1      -1.444   2.676   0.940  0.00  0.00    -0.030 C 
ATOM      5  C   UNL     1      -0.707   1.625   1.248  0.00  0.00    -0.023 C 
ATOM      6  C   UNL     1      -0.010   1.100  -0.001  0.00  0.00    +0.049 C 
ATOM      7  C   UNL     1       1.387   1.659  -0.005  0.00  0.00    -0.018 A 
ATOM      8  C   UNL     1       2.213   1.357   1.069  0.00  0.00    +0.029 A 
ATOM      9  C   UNL     1       3.508   1.847   1.119  0.00  0.00    +0.034 A 
ATOM     10  C   UNL     1       3.990   2.648   0.092  0.00  0.00    +0.025 A 
ATOM     11  C   UNL     1       3.174   2.950  -0.979  0.00  0.00    +0.025 A 
ATOM     12  C   UNL     1       1.875   2.455  -1.026  0.00  0.00    +0.031 A 
ATOM     13  N   UNL     1       1.066   2.769  -2.127  0.00  0.00    -0.336 N 
ATOM     14  H   UNL     1       1.253   3.542  -2.682  0.00  0.00    +0.147 HD
ENDROOT
BRANCH   1  20
ATOM     15  C   UNL     1       1.555  -0.010  -2.362  0.00  0.00    +0.008 A 
ATOM     16  C   UNL     1       2.013  -1.228  -2.828  0.00  0.00    +0.033 A 
ATOM     17  C   UNL     1       1.353  -1.866  -3.861  0.00  0.00    +0.126 A 
ATOM     18  C   UNL     1       0.231  -1.288  -4.425  0.00  0.00    +0.033 A 
ATOM     19  C   UNL     1      -0.231  -0.073  -3.956  0.00  0.00    +0.008 A 
ATOM     20  C   UNL     1       0.429   0.565  -2.922  0.00  0.00    -0.027 A 
BRANCH  17  21
ATOM     21  N   UNL     1       1.847  -3.168  -4.364  0.00  0.00    +0.056 N 
ATOM     22  O   UNL     1       1.264  -3.730  -5.274  0.00  0.00    -0.126 OA
ATOM     23  O   UNL     1       2.835  -3.677  -3.867  0.00  0.00    -0.126 OA
ENDBRANCH  17  21
ENDBRANCH   1  20
BRANCH   9  24
ATOM     24  N   UNL     1       4.332   1.536   2.208  0.00  0.00    -0.281 N 
ATOM     25  C   UNL     1       5.654   1.353   2.022  0.00  0.00    +0.250 C 
ATOM     26  O   UNL     1       6.146   1.540   0.926  0.00  0.00    -0.270 OA
ATOM     27  H   UNL     1       3.951   1.452   3.096  0.00  0.00    +0.155 HD
BRANCH  25  28
ATOM     28  C   UNL     1       6.507   0.924   3.150  0.00  0.00    +0.055 A 
ATOM     29  C   UNL     1       5.946   0.708   4.410  0.00  0.00    +0.016 A 
ATOM     30  C   UNL     1       6.746   0.309   5.459  0.00  0.00    +0.021 A 
ATOM     31  C   UNL     1       8.105   0.121   5.265  0.00  0.00    +0.042 A 
ATOM     32  C   UNL     1       8.668   0.332   4.018  0.00  0.00    +0.040 A 
ATOM     33  C   UNL     1       7.877   0.727   2.958  0.00  0.00    +0.054 A 
ATOM     34 CL   UNL     1       8.583   0.986   1.394  0.00  0.00    -0.083 Cl
ATOM     35 CL   UNL     1       9.106  -0.383   6.591  0.00  0.00    -0.083 Cl
ENDBRANCH  25  28
ENDBRANCH   9  24
TORSDOF 4
