REMARK  Name = ZINC22566295
REMARK  9 active torsions:
REMARK  status: ('A' for Active; 'I' for Inactive)
REMARK    1  A    between atoms: C_3  and  S_27
REMARK    2  A    between atoms: C_6  and  C_7
REMARK    3  A    between atoms: C_7  and  C_8
REMARK    4  A    between atoms: C_8  and  N_9
REMARK    5  A    between atoms: C_10  and  C_12
REMARK    6  A    between atoms: C_12  and  C_13
REMARK    7  A    between atoms: C_13  and  C_14
REMARK    8  A    between atoms: C_14  and  N_15
REMARK    9  A    between atoms: S_27  and  N_30
REMARK                            x       y       z     vdW  Elec       q    Type
REMARK                         _______ _______ _______ _____ _____    ______ ____
ROOT
ATOM      1  N   UNL     1      -4.438   4.281   3.157  0.00  0.00    -0.315 N 
ATOM      2  C   UNL     1      -3.337   3.548   2.901  0.00  0.00    +0.213 C 
ATOM      3  O   UNL     1      -2.676   3.106   3.817  0.00  0.00    -0.276 OA
ATOM      4  H   UNL     1      -5.037   4.682   2.326  0.00  0.00    +0.149 HD
ENDROOT
BRANCH   1   5
ATOM      5  C   UNL     1      -4.838   4.545   4.541  0.00  0.00    +0.109 C 
BRANCH   5   6
ATOM      6  C   UNL     1      -6.111   5.393   4.552  0.00  0.00    +0.054 C 
BRANCH   6  12
ATOM      7  C   UNL     1      -7.379   4.795   6.626  0.00  0.00    +0.005 A 
ATOM      8  C   UNL     1      -7.752   5.041   7.934  0.00  0.00    +0.029 A 
ATOM      9  C   UNL     1      -7.276   6.161   8.589  0.00  0.00    +0.105 A 
ATOM     10  C   UNL     1      -6.423   7.033   7.939  0.00  0.00    +0.029 A 
ATOM     11  C   UNL     1      -6.046   6.784   6.632  0.00  0.00    +0.005 A 
ATOM     12  C   UNL     1      -6.522   5.664   5.977  0.00  0.00    -0.046 A 
BRANCH   9  13
ATOM     13  S   UNL     1      -7.756   6.477  10.255  0.00  0.00    +0.056 S 
ATOM     14  O   UNL     1      -8.125   5.225  10.816  0.00  0.00    -0.153 OA
ATOM     15  O   UNL     1      -6.742   7.296  10.821  0.00  0.00    -0.153 OA
BRANCH  13  16
ATOM     16  N   UNL     1      -9.133   7.396  10.202  0.00  0.00    -0.204 NA
ATOM     17  H   UNL     1      -9.466   7.616  11.227  0.00  0.00    +0.144 HD
ATOM     18  H   UNL     1      -9.922   6.844   9.671  0.00  0.00    +0.144 HD
ENDBRANCH  13  16
ENDBRANCH   9  13
ENDBRANCH   6  12
ENDBRANCH   5   6
ENDBRANCH   1   5
BRANCH   2  19
ATOM     19  C   UNL     1      -2.926   3.277   1.477  0.00  0.00    +0.097 C 
BRANCH  19  20
ATOM     20  C   UNL     1      -1.653   2.428   1.466  0.00  0.00    +0.029 C 
BRANCH  20  21
ATOM     21  C   UNL     1      -1.235   2.154   0.020  0.00  0.00    +0.117 C 
BRANCH  21  22
ATOM     22  N   UNL     1      -0.016   1.341   0.009  0.00  0.00    -0.234 N 
ATOM     23  C   UNL     1       1.232   1.842   0.000  0.00  0.00    +0.254 C 
ATOM     24  O   UNL     1       1.523   3.021   0.003  0.00  0.00    -0.270 OA
ATOM     25  C   UNL     1       2.191   0.718  -0.015  0.00  0.00    +0.049 A 
ATOM     26  C   UNL     1       3.574   0.625  -0.029  0.00  0.00    +0.015 A 
ATOM     27  C   UNL     1       4.179  -0.621  -0.041  0.00  0.00    +0.016 A 
ATOM     28  C   UNL     1       3.413  -1.773  -0.040  0.00  0.00    +0.019 A 
ATOM     29  C   UNL     1       2.028  -1.695  -0.026  0.00  0.00    +0.029 A 
ATOM     30  C   UNL     1       1.409  -0.456  -0.014  0.00  0.00    +0.050 A 
ATOM     31  C   UNL     1       0.002  -0.004   0.002  0.00  0.00    +0.254 C 
ATOM     32  O   UNL     1      -0.974  -0.726   0.008  0.00  0.00    -0.270 OA
ATOM     33 BR   UNL     1       4.259  -3.464  -0.058  0.00  0.00    -0.050 Br
ENDBRANCH  21  22
ENDBRANCH  20  21
ENDBRANCH  19  20
ENDBRANCH   2  19
TORSDOF 9
