REMARK  Name = ZINC09327669
REMARK  4 active torsions:
REMARK  status: ('A' for Active; 'I' for Inactive)
REMARK    1  A    between atoms: C_7  and  O_8
REMARK    2  A    between atoms: C_9  and  C_24
REMARK    3  A    between atoms: C_13  and  C_15
REMARK    4  A    between atoms: C_18  and  N_21
REMARK                            x       y       z     vdW  Elec       q    Type
REMARK                         _______ _______ _______ _____ _____    ______ ____
ROOT
ATOM      1  C   UNL     1      -0.017   1.363   0.009  0.00  0.00    +0.001 A 
ATOM      2  C   UNL     1       1.170   2.082   0.002  0.00  0.00    +0.004 A 
ATOM      3  C   UNL     1       2.387   1.433  -0.013  0.00  0.00    +0.047 A 
ATOM      4  C   UNL     1       2.430   0.044  -0.021  0.00  0.00    +0.141 A 
ATOM      5  C   UNL     1       1.225  -0.681  -0.013  0.00  0.00    +0.059 A 
ATOM      6  C   UNL     1       0.002  -0.004   0.002  0.00  0.00    +0.015 A 
ATOM      7  C   UNL     1       1.277  -2.148  -0.022  0.00  0.00    +0.140 A 
ATOM      8  C   UNL     1       2.532  -2.753  -0.037  0.00  0.00    +0.082 A 
ATOM      9  C   UNL     1       3.688  -1.946  -0.043  0.00  0.00    +0.204 A 
ATOM     10  O   UNL     1       3.612  -0.606  -0.036  0.00  0.00    -0.440 OA
ATOM     11  N   UNL     1       4.885  -2.528  -0.058  0.00  0.00    -0.252 N 
ATOM     12  C   UNL     1       5.992  -1.779  -0.064  0.00  0.00    +0.250 C 
ATOM     13  O   UNL     1       5.905  -0.563  -0.057  0.00  0.00    -0.270 OA
ATOM     14  H   UNL     1       4.954  -3.495  -0.063  0.00  0.00    +0.158 HD
ENDROOT
BRANCH   8  15
ATOM     15  C   UNL     1       2.650  -4.230  -0.045  0.00  0.00    -0.009 A 
ATOM     16  C   UNL     1       3.220  -4.893   1.042  0.00  0.00    +0.010 A 
ATOM     17  C   UNL     1       3.328  -6.268   1.028  0.00  0.00    +0.016 A 
ATOM     18  C   UNL     1       2.872  -6.990  -0.062  0.00  0.00    +0.018 A 
ATOM     19  C   UNL     1       2.306  -6.338  -1.143  0.00  0.00    +0.016 A 
ATOM     20  C   UNL     1       2.188  -4.963  -1.138  0.00  0.00    +0.010 A 
ATOM     21 BR   UNL     1       3.024  -8.875  -0.073  0.00  0.00    -0.050 Br
ENDBRANCH   8  15
BRANCH  12  22
ATOM     22  C   UNL     1       7.324  -2.426  -0.080  0.00  0.00    +0.037 A 
ATOM     23  C   UNL     1       7.426  -3.817  -0.094  0.00  0.00    +0.015 A 
ATOM     24  C   UNL     1       8.670  -4.414  -0.109  0.00  0.00    +0.033 A 
ATOM     25  C   UNL     1       9.814  -3.636  -0.110  0.00  0.00    +0.126 A 
ATOM     26  C   UNL     1       9.719  -2.256  -0.096  0.00  0.00    +0.033 A 
ATOM     27  C   UNL     1       8.481  -1.647  -0.087  0.00  0.00    +0.015 A 
BRANCH  25  28
ATOM     28  N   UNL     1      11.146  -4.283  -0.125  0.00  0.00    +0.056 N 
ATOM     29  O   UNL     1      11.232  -5.489  -0.137  0.00  0.00    -0.126 OA
ATOM     30  O   UNL     1      12.147  -3.605  -0.126  0.00  0.00    -0.126 OA
ENDBRANCH  25  28
ENDBRANCH  12  22
BRANCH   7  31
ATOM     31  O   UNL     1       0.146  -2.887  -0.015  0.00  0.00    -0.505 OA
ATOM     32  H   UNL     1      -0.666  -2.362  -0.005  0.00  0.00    +0.292 HD
ENDBRANCH   7  31
TORSDOF 4
