REMARK  Name = ZINC36273445
REMARK  10 active torsions:
REMARK  status: ('A' for Active; 'I' for Inactive)
REMARK    1  A    between atoms: C_1  and  C_2
REMARK    2  A    between atoms: C_2  and  C_3
REMARK    3  A    between atoms: C_3  and  C_4
REMARK    4  A    between atoms: C_4  and  N_5
REMARK    5  A    between atoms: N_5  and  C_6
REMARK    6  A    between atoms: N_5  and  C_7
REMARK    7  A    between atoms: C_7  and  C_8
REMARK    8  A    between atoms: C_9  and  C_18
REMARK    9  A    between atoms: C_14  and  N_17
REMARK   10  A    between atoms: C_21  and  N_24
REMARK                            x       y       z     vdW  Elec       q    Type
REMARK                         _______ _______ _______ _____ _____    ______ ____
ROOT
ATOM      1  C   UNL     1      -4.296  -4.316   0.282  0.00  0.00    +0.035 A 
ATOM      2  C   UNL     1      -4.837  -4.823   1.425  0.00  0.00    +0.091 A 
ATOM      3  N   UNL     1      -5.958  -5.486   1.102  0.00  0.00    -0.228 NA
ATOM      4  C   UNL     1      -6.143  -5.413  -0.209  0.00  0.00    +0.138 A 
ATOM      5  N   UNL     1      -5.118  -4.680  -0.747  0.00  0.00    -0.303 N 
ATOM      6  C   UNL     1      -5.066  -4.444  -2.094  0.00  0.00    +0.115 A 
ATOM      7  C   UNL     1      -6.030  -4.929  -2.914  0.00  0.00    +0.041 A 
ATOM      8  C   UNL     1      -7.097  -5.683  -2.386  0.00  0.00    +0.028 A 
ATOM      9  C   UNL     1      -7.150  -5.929  -1.050  0.00  0.00    +0.048 A 
ENDROOT
BRANCH   2  10
ATOM     10  C   UNL     1      -4.281  -4.670   2.793  0.00  0.00    +0.002 A 
ATOM     11  C   UNL     1      -5.125  -4.374   3.861  0.00  0.00    +0.012 A 
ATOM     12  C   UNL     1      -4.603  -4.233   5.131  0.00  0.00    +0.033 A 
ATOM     13  C   UNL     1      -3.244  -4.384   5.344  0.00  0.00    +0.126 A 
ATOM     14  C   UNL     1      -2.402  -4.678   4.286  0.00  0.00    +0.033 A 
ATOM     15  C   UNL     1      -2.914  -4.827   3.014  0.00  0.00    +0.012 A 
BRANCH  13  16
ATOM     16  N   UNL     1      -2.690  -4.230   6.708  0.00  0.00    +0.056 N 
ATOM     17  O   UNL     1      -3.424  -3.973   7.634  0.00  0.00    -0.126 OA
ATOM     18  O   UNL     1      -1.503  -4.362   6.897  0.00  0.00    -0.126 OA
ENDBRANCH  13  16
ENDBRANCH   2  10
BRANCH   7  19
ATOM     19  N   UNL     1      -5.965  -4.679  -4.292  0.00  0.00    -0.357 N 
ATOM     20  H   UNL     1      -5.232  -4.160  -4.657  0.00  0.00    +0.142 HD
ATOM     21  H   UNL     1      -6.654  -5.025  -4.880  0.00  0.00    +0.142 HD
ENDBRANCH   7  19
BRANCH   1  22
ATOM     22  C   UNL     1      -3.033  -3.501   0.174  0.00  0.00    -0.022 C 
BRANCH  22  23
ATOM     23  N   UNL     1      -3.332  -2.093   0.466  0.00  0.00    +0.382 N 
ATOM     24  C   UNL     1      -4.229  -1.558  -0.567  0.00  0.00    -0.096 C 
ATOM     25  H   UNL     1      -3.779  -2.024   1.368  0.00  0.00    -0.082 HD
BRANCH  23  26
ATOM     26  C   UNL     1      -2.083  -1.320   0.478  0.00  0.00    -0.079 C 
BRANCH  26  27
ATOM     27  C   UNL     1      -2.378   0.120   0.905  0.00  0.00    -0.019 C 
BRANCH  27  29
ATOM     28  C   UNL     1      -1.373   2.364   1.344  0.00  0.00    +0.004 C 
ATOM     29  C   UNL     1      -1.077   0.925   0.918  0.00  0.00    -0.005 C 
ENDBRANCH  27  29
ENDBRANCH  26  27
ENDBRANCH  23  26
ENDBRANCH  22  23
ENDBRANCH   1  22
TORSDOF 8
