REMARK  Name = ZINC35233126
REMARK  5 active torsions:
REMARK  status: ('A' for Active; 'I' for Inactive)
REMARK    1  A    between atoms: C_1  and  C_2
REMARK    2  A    between atoms: C_7  and  N_10
REMARK    3  A    between atoms: N_10  and  S_11
REMARK    4  A    between atoms: S_11  and  C_14
REMARK    5  A    between atoms: N_16  and  C_19
REMARK                            x       y       z     vdW  Elec       q    Type
REMARK                         _______ _______ _______ _____ _____    ______ ____
ROOT
ATOM      1  S   UNL     1       2.396  -3.897   2.329  0.00  0.00    +0.079 S 
ATOM      2  O   UNL     1       2.966  -4.088   3.617  0.00  0.00    -0.151 OA
ATOM      3  O   UNL     1       1.596  -4.885   1.696  0.00  0.00    -0.151 OA
ENDROOT
BRANCH   1   4
ATOM      4  C   UNL     1       3.732  -3.552   1.234  0.00  0.00    +0.230 A 
ATOM      5  C   UNL     1       3.731  -3.741  -0.101  0.00  0.00    +0.156 A 
ATOM      6  N   UNL     1       4.960  -3.346  -0.557  0.00  0.00    -0.323 N 
ATOM      7  C   UNL     1       5.669  -2.928   0.514  0.00  0.00    +0.202 A 
ATOM      8  N   UNL     1       4.927  -3.050   1.581  0.00  0.00    -0.215 NA
ATOM      9  C   UNL     1       5.419  -3.370  -1.948  0.00  0.00    +0.151 C 
ATOM     10 CL   UNL     1       2.424  -4.367  -1.057  0.00  0.00    -0.060 Cl
ENDBRANCH   1   4
BRANCH   1  11
ATOM     11  N   UNL     1       1.471  -2.526   2.420  0.00  0.00    -0.185 NA
ATOM     12  H   UNL     1       1.399  -2.045   3.259  0.00  0.00    +0.148 HD
BRANCH  11  18
ATOM     13  C   UNL     1      -0.019   1.526   0.010  0.00  0.00    +0.007 C 
ATOM     14  C   UNL     1       0.002  -0.004   0.002  0.00  0.00    -0.013 C 
ATOM     15  C   UNL     1      -1.433  -0.534   0.013  0.00  0.00    +0.003 C 
ATOM     16  C   UNL     1      -1.413  -2.063   0.004  0.00  0.00    +0.002 C 
ATOM     17  C   UNL     1      -0.673  -2.570   1.244  0.00  0.00    +0.020 C 
ATOM     18  C   UNL     1       0.763  -2.041   1.233  0.00  0.00    +0.077 C 
ATOM     19  C   UNL     1       0.742  -0.511   1.242  0.00  0.00    +0.023 C 
ENDBRANCH  11  18
ENDBRANCH   1  11
TORSDOF 3
