REMARK  Name = ZINC00925014
REMARK  11 active torsions:
REMARK  status: ('A' for Active; 'I' for Inactive)
REMARK    1  A    between atoms: C_1  and  C_2
REMARK    2  A    between atoms: C_2  and  C_3
REMARK    3  A    between atoms: C_10  and  C_15
REMARK    4  A    between atoms: C_15  and  N_16
REMARK    5  A    between atoms: N_16  and  C_17
REMARK    6  A    between atoms: N_16  and  S_26
REMARK    7  A    between atoms: C_17  and  C_18
REMARK    8  A    between atoms: C_21  and  O_24
REMARK    9  A    between atoms: O_24  and  C_25
REMARK   10  A    between atoms: S_26  and  C_29
REMARK   11  A    between atoms: C_30  and  C_38
REMARK                            x       y       z     vdW  Elec       q    Type
REMARK                         _______ _______ _______ _____ _____    ______ ____
ROOT
ATOM      1  N   UNL     1       3.302   1.131  -1.843  0.00  0.00    -0.168 NA
ENDROOT
BRANCH   1   2
ATOM      2  S   UNL     1       3.290   1.354  -0.202  0.00  0.00    +0.064 S 
ATOM      3  O   UNL     1       2.254   0.528   0.312  0.00  0.00    -0.153 OA
ATOM      4  O   UNL     1       3.325   2.757   0.018  0.00  0.00    -0.153 OA
BRANCH   2   5
ATOM      5  C   UNL     1       4.805   0.707   0.423  0.00  0.00    +0.136 A 
ATOM      6  C   UNL     1       5.041  -0.626   0.382  0.00  0.00    -0.022 A 
ATOM      7  C   UNL     1       6.227  -1.173   0.872  0.00  0.00    +0.007 A 
ATOM      8  C   UNL     1       7.201  -0.394   1.400  0.00  0.00    +0.031 A 
ATOM      9  C   UNL     1       7.023   1.012   1.476  0.00  0.00    +0.102 A 
ATOM     10  C   UNL     1       5.779   1.584   0.968  0.00  0.00    +0.126 A 
ATOM     11  N   UNL     1       5.747   2.908   1.101  0.00  0.00    -0.189 NA
ATOM     12  S   UNL     1       7.104   3.314   1.770  0.00  0.00    +0.117 S 
ATOM     13  N   UNL     1       7.842   1.945   1.957  0.00  0.00    -0.191 NA
ATOM     14  C   UNL     1       3.994  -1.540  -0.201  0.00  0.00    +0.046 C 
ENDBRANCH   2   5
ENDBRANCH   1   2
BRANCH   1  15
ATOM     15  C   UNL     1       2.616  -0.022  -2.431  0.00  0.00    +0.150 C 
BRANCH  15  23
ATOM     16  C   UNL     1      -0.937   1.812  -7.154  0.00  0.00    -0.047 A 
ATOM     17  C   UNL     1      -2.099   1.990  -6.414  0.00  0.00    +0.005 A 
ATOM     18  C   UNL     1      -2.115   1.742  -5.059  0.00  0.00    +0.026 A 
ATOM     19  C   UNL     1      -0.956   1.311  -4.422  0.00  0.00    +0.049 A 
ATOM     20  C   UNL     1       0.220   1.132  -5.175  0.00  0.00    -0.001 A 
ATOM     21  C   UNL     1       0.213   1.388  -6.550  0.00  0.00    +0.013 A 
ATOM     22  C   UNL     1       1.437   0.683  -4.495  0.00  0.00    +0.020 A 
ATOM     23  C   UNL     1       1.383   0.446  -3.161  0.00  0.00    +0.033 A 
ATOM     24  C   UNL     1       0.178   0.641  -2.452  0.00  0.00    +0.254 A 
ATOM     25  O   UNL     1       0.153   0.426  -1.252  0.00  0.00    -0.268 OA
ATOM     26  N   UNL     1      -0.943   1.058  -3.067  0.00  0.00    -0.322 N 
ATOM     27  H   UNL     1      -1.779   1.185  -2.534  0.00  0.00    +0.169 HD
BRANCH  16  29
ATOM     28  C   UNL     1      -1.319   0.811  -9.390  0.00  0.00    +0.009 C 
ATOM     29  C   UNL     1      -0.945   2.088  -8.635  0.00  0.00    +0.032 C 
ENDBRANCH  16  29
ENDBRANCH  15  23
ENDBRANCH   1  15
BRANCH   1  30
ATOM     30  C   UNL     1       3.999   2.088  -2.706  0.00  0.00    +0.145 C 
BRANCH  30  31
ATOM     31  C   UNL     1       5.391   1.587  -2.990  0.00  0.00    -0.031 A 
ATOM     32  C   UNL     1       6.435   1.940  -2.155  0.00  0.00    +0.008 A 
ATOM     33  C   UNL     1       7.712   1.478  -2.410  0.00  0.00    +0.046 A 
ATOM     34  C   UNL     1       7.948   0.667  -3.510  0.00  0.00    +0.120 A 
ATOM     35  C   UNL     1       6.900   0.318  -4.350  0.00  0.00    +0.046 A 
ATOM     36  C   UNL     1       5.624   0.779  -4.088  0.00  0.00    +0.008 A 
BRANCH  34  37
ATOM     37  O   UNL     1       9.204   0.214  -3.766  0.00  0.00    -0.495 OA
ATOM     38  C   UNL     1      10.234   0.614  -2.860  0.00  0.00    +0.277 C 
ENDBRANCH  34  37
ENDBRANCH  30  31
ENDBRANCH   1  30
TORSDOF 8
