REMARK  Name = ZINC39638572
REMARK  7 active torsions:
REMARK  status: ('A' for Active; 'I' for Inactive)
REMARK    1  A    between atoms: C_1  and  C_2
REMARK    2  A    between atoms: C_2  and  O_3
REMARK    3  A    between atoms: O_3  and  C_4
REMARK    4  A    between atoms: C_9  and  C_10
REMARK    5  A    between atoms: C_10  and  N_11
REMARK    6  A    between atoms: C_12  and  C_14
REMARK    7  A    between atoms: C_25  and  C_27
REMARK                            x       y       z     vdW  Elec       q    Type
REMARK                         _______ _______ _______ _____ _____    ______ ____
ROOT
ATOM      1  C   UNL     1      -0.426   0.432   6.536  0.00  0.00    +0.100 C 
ATOM      2  C   UNL     1      -0.826  -0.944   7.115  0.00  0.00    +0.121 C 
ATOM      3  N   UNL     1      -0.055  -1.058   8.375  0.00  0.00    -0.296 N 
ATOM      4  C   UNL     1      -0.100   0.304   8.959  0.00  0.00    +0.115 C 
ATOM      5  C   UNL     1       0.046   1.249   7.750  0.00  0.00    -0.004 C 
ATOM      6  C   UNL     1      -0.835   2.481   7.934  0.00  0.00    -0.010 C 
ATOM      7  C   UNL     1      -0.310   3.308   9.111  0.00  0.00    -0.082 C 
ATOM      8  N   UNL     1       1.078   3.708   8.850  0.00  0.00    +0.379 N 
ATOM      9  C   UNL     1       1.935   2.520   8.767  0.00  0.00    -0.082 C 
ATOM     10  C   UNL     1       1.505   1.660   7.575  0.00  0.00    -0.010 C 
ATOM     11  C   UNL     1       0.550  -2.153   8.877  0.00  0.00    +0.247 C 
ATOM     12  O   UNL     1       0.606  -3.173   8.218  0.00  0.00    -0.270 OA
ATOM     13  H   UNL     1       1.122   4.214   7.978  0.00  0.00    -0.086 HD
ATOM     14  H   UNL     1       1.401   4.303   9.597  0.00  0.00    -0.086 HD
ENDROOT
BRANCH  11  15
ATOM     15  C   UNL     1       1.146  -2.114  10.229  0.00  0.00    +0.038 A 
ATOM     16  C   UNL     1       0.733  -1.149  11.150  0.00  0.00    +0.013 A 
ATOM     17  C   UNL     1       1.292  -1.117  12.410  0.00  0.00    +0.002 A 
ATOM     18  C   UNL     1       2.262  -2.039  12.764  0.00  0.00    +0.015 A 
ATOM     19  C   UNL     1       2.676  -2.998  11.856  0.00  0.00    +0.019 A 
ATOM     20  C   UNL     1       2.119  -3.045  10.594  0.00  0.00    +0.028 A 
ATOM     21 BR   UNL     1       4.003  -4.253  12.349  0.00  0.00    -0.050 Br
ENDBRANCH  11  15
BRANCH   1  23
ATOM     22  N   UNL     1       0.875   1.206   4.580  0.00  0.00    -0.311 N 
ATOM     23  C   UNL     1       0.694   0.277   5.540  0.00  0.00    +0.218 C 
ATOM     24  O   UNL     1       1.432  -0.683   5.602  0.00  0.00    -0.275 OA
ATOM     25  H   UNL     1       0.285   1.974   4.531  0.00  0.00    +0.149 HD
BRANCH  22  26
ATOM     26  C   UNL     1       1.964   1.055   3.612  0.00  0.00    +0.143 C 
BRANCH  26  32
ATOM     27  C   UNL     1       2.499   3.435   3.030  0.00  0.00    +0.125 A 
ATOM     28  C   UNL     1       2.488   4.502   2.144  0.00  0.00    +0.046 A 
ATOM     29  C   UNL     1       1.925   4.353   0.891  0.00  0.00    +0.004 A 
ATOM     30  C   UNL     1       1.373   3.140   0.520  0.00  0.00    +0.001 A 
ATOM     31  C   UNL     1       1.382   2.075   1.402  0.00  0.00    +0.009 A 
ATOM     32  C   UNL     1       1.949   2.218   2.654  0.00  0.00    +0.011 A 
BRANCH  27  33
ATOM     33  O   UNL     1       3.052   3.579   4.263  0.00  0.00    -0.492 OA
BRANCH  33  35
ATOM     34  C   UNL     1       4.173   4.830   6.000  0.00  0.00    +0.048 C 
ATOM     35  C   UNL     1       3.600   4.860   4.582  0.00  0.00    +0.225 C 
ENDBRANCH  33  35
ENDBRANCH  27  33
ENDBRANCH  26  32
ENDBRANCH  22  26
ENDBRANCH   1  23
TORSDOF 6
