REMARK  Name = ZINC44182346
REMARK  4 active torsions:
REMARK  status: ('A' for Active; 'I' for Inactive)
REMARK    1  A    between atoms: N_4  and  C_8
REMARK    2  A    between atoms: C_8  and  C_9
REMARK    3  A    between atoms: C_9  and  C_11
REMARK    4  A    between atoms: C_9  and  O_22
REMARK                            x       y       z     vdW  Elec       q    Type
REMARK                         _______ _______ _______ _____ _____    ______ ____
ROOT
ATOM      1  C   UNL     1       4.128  -0.936   1.400  0.00  0.00    +0.164 C 
ENDROOT
BRANCH   1   2
ATOM      2  C   UNL     1       5.447  -1.665   1.384  0.00  0.00    -0.014 A 
ATOM      3  C   UNL     1       6.627  -0.952   1.278  0.00  0.00    +0.010 A 
ATOM      4  C   UNL     1       7.841  -1.614   1.262  0.00  0.00    +0.050 A 
ATOM      5  C   UNL     1       7.871  -2.995   1.354  0.00  0.00    +0.162 A 
ATOM      6  C   UNL     1       6.687  -3.711   1.461  0.00  0.00    +0.162 A 
ATOM      7  C   UNL     1       5.473  -3.045   1.481  0.00  0.00    +0.055 A 
ATOM      8  O   UNL     1       6.727  -5.072   1.552  0.00  0.00    -0.488 OA
ATOM      9  C   UNL     1       7.162  -5.764   0.380  0.00  0.00    +0.232 C 
ATOM     10  C   UNL     1       8.680  -5.834   0.327  0.00  0.00    +0.082 C 
ATOM     11  C   UNL     1       9.318  -4.461   0.185  0.00  0.00    +0.232 C 
ATOM     12  O   UNL     1       9.062  -3.661   1.341  0.00  0.00    -0.488 OA
ENDBRANCH   1   2
BRANCH   1  13
ATOM     13  O   UNL     1       4.282   0.312   2.079  0.00  0.00    -0.385 OA
ATOM     14  H   UNL     1       4.930   0.904   1.673  0.00  0.00    +0.210 HD
ENDBRANCH   1  13
BRANCH   1  15
ATOM     15  C   UNL     1       3.668  -0.681  -0.037  0.00  0.00    +0.161 C 
BRANCH  15  19
ATOM     16  C   UNL     1      -0.016   1.360   0.009  0.00  0.00    +0.007 A 
ATOM     17  C   UNL     1       1.197   2.062   0.002  0.00  0.00    +0.018 A 
ATOM     18  C   UNL     1       2.369   1.385  -0.013  0.00  0.00    +0.089 A 
ATOM     19  N   UNL     1       2.385   0.027  -0.021  0.00  0.00    -0.312 N 
ATOM     20  C   UNL     1       1.237  -0.675  -0.014  0.00  0.00    +0.251 A 
ATOM     21  O   UNL     1       1.268  -1.895  -0.021  0.00  0.00    -0.268 OA
ATOM     22  C   UNL     1       0.002  -0.004   0.002  0.00  0.00    +0.070 A 
ENDBRANCH  15  19
ENDBRANCH   1  15
TORSDOF 4
