REMARK  Name = ZINC39604652
REMARK  4 active torsions:
REMARK  status: ('A' for Active; 'I' for Inactive)
REMARK    1  A    between atoms: C_3  and  C_9
REMARK    2  A    between atoms: C_13  and  C_22
REMARK    3  A    between atoms: N_24  and  C_25
REMARK    4  A    between atoms: C_25  and  C_26
REMARK                            x       y       z     vdW  Elec       q    Type
REMARK                         _______ _______ _______ _____ _____    ______ ____
ROOT
ATOM      1  C   UNL     1       3.944   2.223   0.074  0.00  0.00    +0.249 C 
ATOM      2  O   UNL     1       5.048   1.724   0.175  0.00  0.00    -0.270 OA
ATOM      3  N   UNL     1       3.818   3.559  -0.056  0.00  0.00    -0.296 N 
ATOM      4  C   UNL     1       2.569   4.355  -0.084  0.00  0.00    +0.121 C 
ATOM      5  C   UNL     1       2.899   5.628   0.727  0.00  0.00    +0.100 C 
ATOM      6  C   UNL     1       4.428   5.761   0.644  0.00  0.00    -0.004 C 
ATOM      7  C   UNL     1       4.899   4.564  -0.196  0.00  0.00    +0.115 C 
ATOM      8  C   UNL     1       4.809   7.070  -0.040  0.00  0.00    -0.010 C 
ATOM      9  C   UNL     1       6.334   7.206  -0.059  0.00  0.00    -0.082 C 
ATOM     10  N   UNL     1       6.846   7.183   1.317  0.00  0.00    +0.379 N 
ATOM     11  C   UNL     1       6.557   5.884   1.937  0.00  0.00    -0.082 C 
ATOM     12  C   UNL     1       5.041   5.692   2.040  0.00  0.00    -0.010 C 
ATOM     13  H   UNL     1       7.844   7.334   1.306  0.00  0.00    -0.086 HD
ATOM     14  H   UNL     1       6.404   7.915   1.851  0.00  0.00    -0.086 HD
ENDROOT
BRANCH   1  17
ATOM     15  C   UNL     1       0.505   0.907  -0.651  0.00  0.00    +0.039 A 
ATOM     16  C   UNL     1       1.625   1.710  -0.672  0.00  0.00    +0.019 A 
ATOM     17  C   UNL     1       2.743   1.367   0.093  0.00  0.00    +0.072 A 
ATOM     18  C   UNL     1       2.718   0.208   0.876  0.00  0.00    +0.138 A 
ATOM     19  C   UNL     1       1.589  -0.589   0.888  0.00  0.00    +0.077 A 
ATOM     20  C   UNL     1       0.485  -0.241   0.127  0.00  0.00    +0.126 A 
ATOM     21  F   UNL     1      -0.616  -1.024   0.143  0.00  0.00    -0.205 F 
ATOM     22  F   UNL     1       3.794  -0.132   1.618  0.00  0.00    -0.205 F 
ENDBRANCH   1  17
BRANCH   5  23
ATOM     23  C   UNL     1       2.461   5.466   2.160  0.00  0.00    +0.218 C 
ATOM     24  O   UNL     1       2.450   4.365   2.670  0.00  0.00    -0.275 OA
ATOM     25  N   UNL     1       2.081   6.543   2.874  0.00  0.00    -0.313 N 
ATOM     26  H   UNL     1       2.090   7.424   2.467  0.00  0.00    +0.149 HD
BRANCH  25  27
ATOM     27  C   UNL     1       1.655   6.386   4.267  0.00  0.00    +0.135 C 
BRANCH  27  28
ATOM     28  C   UNL     1       1.280   7.753   4.844  0.00  0.00    +0.135 C 
ATOM     29  C   UNL     1       0.859   7.613   6.328  0.00  0.00    +0.035 C 
ATOM     30  C   UNL     1       1.159   9.043   6.855  0.00  0.00    +0.031 C 
ATOM     31  C   UNL     1       2.401   9.442   6.030  0.00  0.00    +0.160 C 
ATOM     32  O   UNL     1       2.425   8.620   4.856  0.00  0.00    -0.375 OA
ENDBRANCH  27  28
ENDBRANCH  25  27
ENDBRANCH   5  23
TORSDOF 4
