REMARK  Name = ZINC36560522
REMARK  14 active torsions:
REMARK  status: ('A' for Active; 'I' for Inactive)
REMARK    1  A    between atoms: C_1  and  C_2
REMARK    2  A    between atoms: C_2  and  C_3
REMARK    3  A    between atoms: C_3  and  N_4
REMARK    4  A    between atoms: N_4  and  C_5
REMARK    5  A    between atoms: C_5  and  C_7
REMARK    6  A    between atoms: C_5  and  C_16
REMARK    7  A    between atoms: C_8  and  O_15
REMARK    8  A    between atoms: C_10  and  O_14
REMARK    9  A    between atoms: C_12  and  O_13
REMARK   10  A    between atoms: N_18  and  C_19
REMARK   11  A    between atoms: C_19  and  S_20
REMARK   12  A    between atoms: S_20  and  C_23
REMARK   13  A    between atoms: C_26  and  C_29
REMARK   14  A    between atoms: C_30  and  C_32
REMARK                            x       y       z     vdW  Elec       q    Type
REMARK                         _______ _______ _______ _____ _____    ______ ____
ROOT
ATOM      1  C   UNL     1      -1.287  -2.892   1.010  0.00  0.00    +0.199 C 
ENDROOT
BRANCH   1   2
ATOM      2  C   UNL     1      -2.366  -2.363   1.919  0.00  0.00    +0.065 A 
ATOM      3  C   UNL     1      -3.147  -3.243   2.653  0.00  0.00    +0.129 A 
ATOM      4  C   UNL     1      -4.140  -2.757   3.490  0.00  0.00    +0.091 A 
ATOM      5  C   UNL     1      -4.352  -1.390   3.593  0.00  0.00    +0.124 A 
ATOM      6  C   UNL     1      -3.571  -0.510   2.860  0.00  0.00    +0.091 A 
ATOM      7  C   UNL     1      -2.575  -0.996   2.026  0.00  0.00    +0.129 A 
BRANCH   7   8
ATOM      8  O   UNL     1      -1.807  -0.134   1.310  0.00  0.00    -0.506 OA
ATOM      9  H   UNL     1      -2.163   0.080   0.437  0.00  0.00    +0.292 HD
ENDBRANCH   7   8
BRANCH   5  10
ATOM     10  O   UNL     1      -5.326  -0.913   4.413  0.00  0.00    -0.507 OA
ATOM     11  H   UNL     1      -5.028  -0.736   5.315  0.00  0.00    +0.292 HD
ENDBRANCH   5  10
BRANCH   3  12
ATOM     12  O   UNL     1      -2.939  -4.582   2.553  0.00  0.00    -0.506 OA
ATOM     13  H   UNL     1      -2.359  -4.943   3.237  0.00  0.00    +0.292 HD
ENDBRANCH   3  12
ENDBRANCH   1   2
BRANCH   1  14
ATOM     14  C   UNL     1       0.064  -2.558   1.587  0.00  0.00    +0.240 C 
ATOM     15  O   UNL     1       0.847  -1.887   0.948  0.00  0.00    -0.273 OA
ATOM     16  N   UNL     1       0.403  -3.005   2.812  0.00  0.00    -0.294 N 
ATOM     17  H   UNL     1      -0.224  -3.541   3.323  0.00  0.00    +0.150 HD
BRANCH  16  18
ATOM     18  C   UNL     1       1.716  -2.680   3.373  0.00  0.00    +0.278 C 
BRANCH  18  19
ATOM     19  S   UNL     1       1.579  -1.207   4.423  0.00  0.00    +0.013 S 
ATOM     20  O   UNL     1       2.832  -0.916   5.025  0.00  0.00    -0.168 OA
ATOM     21  O   UNL     1       0.846  -0.193   3.749  0.00  0.00    -0.168 OA
BRANCH  19  22
ATOM     22  C   UNL     1       0.541  -1.699   5.759  0.00  0.00    +0.090 A 
ATOM     23  C   UNL     1      -0.829  -1.547   5.663  0.00  0.00    +0.027 A 
ATOM     24  C   UNL     1      -1.643  -1.933   6.712  0.00  0.00    +0.005 A 
ATOM     25  C   UNL     1      -1.087  -2.471   7.856  0.00  0.00    -0.050 A 
ATOM     26  C   UNL     1       0.284  -2.625   7.952  0.00  0.00    +0.005 A 
ATOM     27  C   UNL     1       1.097  -2.243   6.902  0.00  0.00    +0.027 A 
ATOM     28  C   UNL     1      -1.974  -2.891   9.000  0.00  0.00    +0.044 C 
ENDBRANCH  19  22
ENDBRANCH  18  19
ENDBRANCH  16  18
ENDBRANCH   1  14
BRANCH   1  29
ATOM     29  N   UNL     1      -1.419  -2.276  -0.314  0.00  0.00    -0.285 N 
ATOM     30  C   UNL     1      -2.355  -2.723  -1.174  0.00  0.00    +0.220 C 
ATOM     31  O   UNL     1      -3.021  -3.697  -0.894  0.00  0.00    -0.275 OA
BRANCH  30  32
ATOM     32  C   UNL     1      -2.573  -2.013  -2.485  0.00  0.00    +0.075 C 
ATOM     33  C   UNL     1      -3.303  -0.691  -2.234  0.00  0.00    +0.013 C 
ATOM     34  C   UNL     1      -3.524   0.030  -3.565  0.00  0.00    +0.001 C 
ATOM     35  C   UNL     1      -4.368  -0.851  -4.488  0.00  0.00    +0.000 C 
ATOM     36  C   UNL     1      -3.639  -2.172  -4.739  0.00  0.00    +0.001 C 
ATOM     37  C   UNL     1      -3.417  -2.894  -3.409  0.00  0.00    +0.013 C 
ENDBRANCH  30  32
BRANCH  29  38
ATOM     38  C   UNL     1      -0.533  -1.175  -0.701  0.00  0.00    +0.108 C 
BRANCH  38  40
ATOM     39  C   UNL     1       1.670  -0.610  -1.734  0.00  0.00    +0.005 C 
ATOM     40  C   UNL     1       0.659  -1.731  -1.481  0.00  0.00    +0.016 C 
ENDBRANCH  38  40
ENDBRANCH  29  38
ENDBRANCH   1  29
TORSDOF 12
