REMARK  Name = ZINC08734801
REMARK  6 active torsions:
REMARK  status: ('A' for Active; 'I' for Inactive)
REMARK    1  A    between atoms: C_1  and  C_2
REMARK    2  A    between atoms: C_2  and  C_3
REMARK    3  A    between atoms: C_3  and  C_5
REMARK    4  A    between atoms: C_3  and  N_37
REMARK    5  A    between atoms: C_12  and  C_13
REMARK    6  A    between atoms: C_12  and  N_37
REMARK                            x       y       z     vdW  Elec       q    Type
REMARK                         _______ _______ _______ _____ _____    ______ ____
ROOT
ATOM      1  N   UNL     1       1.460   2.006   0.003  0.00  0.00    +0.388 N 
ATOM      2  H   UNL     1       2.028   1.766   0.824  0.00  0.00    -0.084 HD
ATOM      3  H   UNL     1       1.904   1.629  -0.843  0.00  0.00    -0.084 HD
ENDROOT
BRANCH   1   4
ATOM      4  C   UNL     1       1.365   3.474  -0.111  0.00  0.00    -0.041 C 
BRANCH   4   5
ATOM      5  C   UNL     1       2.553   3.988  -0.882  0.00  0.00    -0.061 A 
ATOM      6  C   UNL     1       3.806   3.444  -0.665  0.00  0.00    +0.003 A 
ATOM      7  C   UNL     1       4.895   3.912  -1.375  0.00  0.00    +0.015 A 
ATOM      8  C   UNL     1       4.734   4.932  -2.296  0.00  0.00    +0.018 A 
ATOM      9  C   UNL     1       3.482   5.479  -2.509  0.00  0.00    +0.015 A 
ATOM     10  C   UNL     1       2.392   5.007  -1.802  0.00  0.00    +0.003 A 
ATOM     11 BR   UNL     1       6.225   5.578  -3.263  0.00  0.00    -0.050 Br
ENDBRANCH   4   5
BRANCH   4  13
ATOM     12  C   UNL     1       1.127   5.603   1.174  0.00  0.00    +0.002 C 
ATOM     13  C   UNL     1       1.357   4.095   1.287  0.00  0.00    -0.015 C 
ENDBRANCH   4  13
ENDBRANCH   1   4
BRANCH   1  14
ATOM     14  C   UNL     1       0.116   1.416   0.151  0.00  0.00    -0.006 C 
BRANCH  14  15
ATOM     15  C   UNL     1       0.232  -0.086   0.137  0.00  0.00    +0.094 A 
ATOM     16  N   UNL     1       0.309  -0.729   1.311  0.00  0.00    -0.344 N 
ATOM     17  H   UNL     1       0.289  -0.221   2.137  0.00  0.00    +0.167 HD
ATOM     18  C   UNL     1       0.417  -2.121   1.360  0.00  0.00    +0.060 A 
ATOM     19  C   UNL     1       0.506  -2.953   2.477  0.00  0.00    +0.034 A 
ATOM     20  C   UNL     1       0.606  -4.293   2.321  0.00  0.00    +0.048 A 
ATOM     21  S   UNL     1       0.579  -4.480   0.545  0.00  0.00    -0.090 S 
ATOM     22  C   UNL     1       0.438  -2.765   0.118  0.00  0.00    +0.102 A 
ATOM     23  C   UNL     1       0.354  -2.040  -1.077  0.00  0.00    +0.287 A 
ATOM     24  O   UNL     1       0.373  -2.614  -2.155  0.00  0.00    -0.265 OA
ATOM     25  N   UNL     1       0.247  -0.696  -1.016  0.00  0.00    -0.197 NA
ENDBRANCH  14  15
ENDBRANCH   1  14
TORSDOF 5
