REMARK  Name = ZINC35646696
REMARK  12 active torsions:
REMARK  status: ('A' for Active; 'I' for Inactive)
REMARK    1  A    between atoms: C_1  and  C_2
REMARK    2  A    between atoms: C_2  and  O_3
REMARK    3  A    between atoms: O_3  and  C_4
REMARK    4  A    between atoms: C_4  and  C_6
REMARK    5  A    between atoms: C_7  and  C_23
REMARK    6  A    between atoms: N_8  and  C_22
REMARK    7  A    between atoms: C_12  and  C_14
REMARK    8  A    between atoms: C_17  and  C_21
REMARK    9  A    between atoms: C_19  and  C_20
REMARK   10  A    between atoms: C_23  and  N_24
REMARK   11  A    between atoms: C_28  and  C_31
REMARK   12  A    between atoms: C_32  and  C_34
REMARK                            x       y       z     vdW  Elec       q    Type
REMARK                         _______ _______ _______ _____ _____    ______ ____
ROOT
ATOM      1  C   UNL     1      -4.277  -3.052   0.377  0.00  0.00    +0.080 C 
ATOM      2  C   UNL     1      -4.150  -4.396   0.384  0.00  0.00    +0.041 C 
ATOM      3  N   UNL     1      -5.245  -5.207   0.475  0.00  0.00    -0.260 N 
ATOM      4  C   UNL     1      -6.501  -4.751   0.561  0.00  0.00    +0.307 C 
ATOM      5  O   UNL     1      -7.413  -5.551   0.639  0.00  0.00    -0.252 OA
ATOM      6  N   UNL     1      -6.787  -3.434   0.567  0.00  0.00    -0.288 N 
ATOM      7  C   UNL     1      -5.674  -2.474   0.479  0.00  0.00    +0.144 C 
ATOM      8  C   UNL     1      -5.034  -6.657   0.477  0.00  0.00    +0.139 C 
ATOM      9  H   UNL     1      -7.705  -3.126   0.630  0.00  0.00    +0.151 HD
ENDROOT
BRANCH   7  10
ATOM     10  C   UNL     1      -5.722  -1.587   1.696  0.00  0.00    -0.020 A 
ATOM     11  C   UNL     1      -6.095  -2.112   2.920  0.00  0.00    +0.006 A 
ATOM     12  C   UNL     1      -6.139  -1.298   4.036  0.00  0.00    +0.004 A 
ATOM     13  C   UNL     1      -5.811   0.041   3.929  0.00  0.00    -0.050 A 
ATOM     14  C   UNL     1      -5.438   0.565   2.706  0.00  0.00    +0.007 A 
ATOM     15  C   UNL     1      -5.389  -0.250   1.590  0.00  0.00    -0.045 A 
ATOM     16  C   UNL     1      -4.978   0.321   0.258  0.00  0.00    +0.044 C 
ATOM     17  C   UNL     1      -5.861   0.928   5.146  0.00  0.00    +0.044 C 
ENDBRANCH   7  10
BRANCH   1  18
ATOM     18  C   UNL     1      -3.143  -2.211   0.284  0.00  0.00    +0.339 C 
ATOM     19  O   UNL     1      -2.717  -1.652   1.277  0.00  0.00    -0.245 OA
BRANCH  18  20
ATOM     20  O   UNL     1      -2.534  -2.028  -0.907  0.00  0.00    -0.462 OA
BRANCH  20  22
ATOM     21  C   UNL     1      -0.855  -1.059  -2.349  0.00  0.00    +0.048 C 
ATOM     22  C   UNL     1      -1.331  -1.258  -0.909  0.00  0.00    +0.229 C 
ENDBRANCH  20  22
ENDBRANCH  18  20
ENDBRANCH   1  18
BRANCH   2  23
ATOM     23  C   UNL     1      -2.777  -5.012   0.290  0.00  0.00    +0.136 C 
BRANCH  23  24
ATOM     24  N   UNL     1      -2.487  -5.752   1.525  0.00  0.00    -0.294 NA
ATOM     25  C   UNL     1      -2.391  -4.841   2.674  0.00  0.00    +0.104 C 
ATOM     26  C   UNL     1      -2.269  -5.662   3.963  0.00  0.00    +0.123 C 
ATOM     27  N   UNL     1      -1.145  -6.598   3.816  0.00  0.00    -0.296 N 
ATOM     28  C   UNL     1      -1.099  -7.449   2.617  0.00  0.00    +0.087 C 
ATOM     29  C   UNL     1      -1.268  -6.558   1.381  0.00  0.00    +0.107 C 
ATOM     30  C   UNL     1       0.246  -8.175   2.553  0.00  0.00    +0.029 C 
ATOM     31  C   UNL     1      -0.181  -6.675   4.755  0.00  0.00    +0.219 C 
ATOM     32  O   UNL     1       0.793  -7.373   4.569  0.00  0.00    -0.275 OA
BRANCH  31  33
ATOM     33  C   UNL     1      -0.314  -5.892   6.036  0.00  0.00    +0.075 C 
ATOM     34  C   UNL     1      -0.091  -4.390   5.764  0.00  0.00    +0.013 C 
ATOM     35  C   UNL     1       0.675  -3.888   7.013  0.00  0.00    +0.001 C 
ATOM     36  C   UNL     1       1.623  -5.071   7.332  0.00  0.00    +0.001 C 
ATOM     37  C   UNL     1       0.776  -6.325   7.033  0.00  0.00    +0.013 C 
ENDBRANCH  31  33
ENDBRANCH  23  24
ENDBRANCH   2  23
TORSDOF 7
