REMARK  Name = ZINC63273085
REMARK  5 active torsions:
REMARK  status: ('A' for Active; 'I' for Inactive)
REMARK    1  A    between atoms: C_4  and  C_6
REMARK    2  A    between atoms: C_6  and  N_7
REMARK    3  A    between atoms: C_10  and  N_13
REMARK    4  A    between atoms: C_14  and  C_16
REMARK    5  A    between atoms: C_16  and  N_17
REMARK                            x       y       z     vdW  Elec       q    Type
REMARK                         _______ _______ _______ _____ _____    ______ ____
ROOT
ATOM      1  N   UNL     1      -1.617  -6.136  -1.295  0.00  0.00    -0.311 N 
ATOM      2  C   UNL     1      -2.159  -7.002  -2.174  0.00  0.00    +0.231 C 
ATOM      3  O   UNL     1      -2.317  -6.673  -3.330  0.00  0.00    -0.274 OA
ATOM      4  H   UNL     1      -1.490  -6.399  -0.370  0.00  0.00    +0.149 HD
ENDROOT
BRANCH   1   8
ATOM      5  N   UNL     1       0.629  -2.576  -1.516  0.00  0.00    +0.380 N 
ATOM      6  C   UNL     1      -0.739  -2.462  -0.994  0.00  0.00    -0.077 C 
ATOM      7  C   UNL     1      -1.232  -3.839  -0.542  0.00  0.00    +0.003 C 
ATOM      8  C   UNL     1      -1.218  -4.797  -1.736  0.00  0.00    +0.069 C 
ATOM      9  C   UNL     1       0.198  -4.851  -2.318  0.00  0.00    +0.003 C 
ATOM     10  C   UNL     1       0.638  -3.437  -2.704  0.00  0.00    -0.077 C 
ATOM     11  H   UNL     1       1.225  -2.977  -0.807  0.00  0.00    -0.082 HD
BRANCH   5  12
ATOM     12  C   UNL     1       1.127  -1.242  -1.876  0.00  0.00    -0.075 C 
BRANCH  12  16
ATOM     13  C   UNL     1       3.093   1.230  -0.256  0.00  0.00    +0.000 C 
ATOM     14  C   UNL     1       3.041   0.239   0.934  0.00  0.00    +0.000 C 
ATOM     15  C   UNL     1       2.332  -0.994   0.321  0.00  0.00    +0.002 C 
ATOM     16  C   UNL     1       1.262  -0.390  -0.612  0.00  0.00    -0.028 C 
ATOM     17  C   UNL     1       1.745   1.024  -0.978  0.00  0.00    +0.002 C 
ENDBRANCH  12  16
ENDBRANCH   5  12
ENDBRANCH   1   8
BRANCH   2  18
ATOM     18  C   UNL     1      -2.570  -8.379  -1.719  0.00  0.00    +0.212 C 
BRANCH  18  19
ATOM     19  N   UNL     1      -3.127  -9.121  -2.853  0.00  0.00    -0.233 N 
ATOM     20  C   UNL     1      -4.428  -9.094  -3.165  0.00  0.00    +0.227 C 
ATOM     21  O   UNL     1      -5.279  -8.472  -2.567  0.00  0.00    -0.275 OA
ATOM     22  C   UNL     1      -4.672  -9.960  -4.380  0.00  0.00    +0.095 C 
ATOM     23  C   UNL     1      -5.449 -11.235  -3.924  0.00  0.00    +0.025 C 
ATOM     24  C   UNL     1      -4.841 -12.306  -4.901  0.00  0.00    +0.016 C 
ATOM     25  C   UNL     1      -3.366 -12.032  -4.429  0.00  0.00    +0.025 C 
ATOM     26  C   UNL     1      -3.253 -10.503  -4.723  0.00  0.00    +0.095 C 
ATOM     27  C   UNL     1      -2.377  -9.876  -3.663  0.00  0.00    +0.227 C 
ATOM     28  O   UNL     1      -1.179 -10.034  -3.561  0.00  0.00    -0.275 OA
ATOM     29  C   UNL     1      -3.559 -12.108  -2.910  0.00  0.00    -0.027 C 
ATOM     30  C   UNL     1      -4.759 -11.649  -2.619  0.00  0.00    -0.027 C 
ENDBRANCH  18  19
ENDBRANCH   2  18
TORSDOF 5
