REMARK  Name = ZINC15027170
REMARK  9 active torsions:
REMARK  status: ('A' for Active; 'I' for Inactive)
REMARK    1  A    between atoms: C_1  and  C_2
REMARK    2  A    between atoms: C_2  and  C_3
REMARK    3  A    between atoms: C_2  and  C_4
REMARK    4  A    between atoms: C_4  and  C_6
REMARK    5  A    between atoms: C_4  and  N_16
REMARK    6  A    between atoms: C_17  and  C_19
REMARK    7  A    between atoms: C_19  and  C_20
REMARK    8  A    between atoms: C_20  and  N_21
REMARK    9  A    between atoms: N_24  and  C_25
REMARK                            x       y       z     vdW  Elec       q    Type
REMARK                         _______ _______ _______ _____ _____    ______ ____
ROOT
ATOM      1  N   UNL     1      -4.657  -0.137  -0.860  0.00  0.00    -0.308 N 
ATOM      2  C   UNL     1      -5.660  -0.844  -1.419  0.00  0.00    +0.215 C 
ATOM      3  O   UNL     1      -5.762  -2.031  -1.195  0.00  0.00    -0.276 OA
ATOM      4  H   UNL     1      -4.575   0.813  -1.039  0.00  0.00    +0.149 HD
ENDROOT
BRANCH   1   5
ATOM      5  C   UNL     1      -3.692  -0.803   0.018  0.00  0.00    +0.106 C 
BRANCH   5   6
ATOM      6  C   UNL     1      -2.397  -0.033   0.016  0.00  0.00    -0.023 A 
ATOM      7  C   UNL     1      -2.415   1.349   0.026  0.00  0.00    +0.009 A 
ATOM      8  C   UNL     1      -1.229   2.059   0.019  0.00  0.00    +0.050 A 
ATOM      9  C   UNL     1      -0.017   1.385   0.010  0.00  0.00    +0.162 A 
ATOM     10  C   UNL     1       0.002  -0.004   0.002  0.00  0.00    +0.162 A 
ATOM     11  C   UNL     1      -1.192  -0.710   0.004  0.00  0.00    +0.055 A 
ATOM     12  O   UNL     1       1.181  -0.685  -0.007  0.00  0.00    -0.485 OA
ATOM     13  C   UNL     1       2.347   0.053  -0.387  0.00  0.00    +0.270 C 
ATOM     14  C   UNL     1       2.334   1.392   0.364  0.00  0.00    +0.270 C 
ATOM     15  O   UNL     1       1.143   2.098   0.002  0.00  0.00    -0.485 OA
ENDBRANCH   5   6
BRANCH   5  17
ATOM     16  C   UNL     1      -3.242  -1.554   2.358  0.00  0.00    +0.009 C 
ATOM     17  C   UNL     1      -4.250  -0.858   1.441  0.00  0.00    +0.008 C 
ATOM     18  C   UNL     1      -4.502   0.564   1.946  0.00  0.00    +0.009 C 
ENDBRANCH   5  17
ENDBRANCH   1   5
BRANCH   2  19
ATOM     19  C   UNL     1      -6.653  -0.158  -2.322  0.00  0.00    +0.114 C 
BRANCH  19  20
ATOM     20  C   UNL     1      -7.679  -1.179  -2.819  0.00  0.00    +0.115 C 
BRANCH  20  21
ATOM     21  N   UNL     1      -8.644  -0.512  -3.697  0.00  0.00    -0.299 N 
ATOM     22  C   UNL     1      -9.646  -1.219  -4.256  0.00  0.00    +0.300 C 
ATOM     23  O   UNL     1      -9.749  -2.410  -4.032  0.00  0.00    -0.253 OA
ATOM     24  N   UNL     1     -10.534  -0.606  -5.063  0.00  0.00    -0.294 N 
ATOM     25  H   UNL     1      -8.562   0.438  -3.876  0.00  0.00    +0.150 HD
ATOM     26  H   UNL     1     -10.452   0.344  -5.242  0.00  0.00    +0.151 HD
BRANCH  24  27
ATOM     27  C   UNL     1     -11.624  -1.374  -5.671  0.00  0.00    +0.037 C 
ATOM     28  C   UNL     1     -11.039  -2.487  -6.542  0.00  0.00    +0.029 C 
ATOM     29  C   UNL     1     -12.177  -3.290  -7.177  0.00  0.00    -0.008 C 
ATOM     30  C   UNL     1     -13.034  -2.363  -8.041  0.00  0.00    +0.007 C 
ATOM     31  C   UNL     1     -13.619  -1.250  -7.170  0.00  0.00    -0.008 C 
ATOM     32  C   UNL     1     -12.481  -0.448  -6.535  0.00  0.00    +0.029 C 
ATOM     33  C   UNL     1     -14.485  -1.866  -6.068  0.00  0.00    +0.007 C 
ATOM     34  C   UNL     1     -13.627  -2.793  -5.204  0.00  0.00    -0.008 C 
ATOM     35  C   UNL     1     -13.042  -3.906  -6.076  0.00  0.00    +0.007 C 
ATOM     36  C   UNL     1     -12.489  -1.990  -4.570  0.00  0.00    +0.029 C 
ENDBRANCH  24  27
ENDBRANCH  20  21
ENDBRANCH  19  20
ENDBRANCH   2  19
TORSDOF 7
