REMARK  Name = ZINC44610241
REMARK  3 active torsions:
REMARK  status: ('A' for Active; 'I' for Inactive)
REMARK    1  A    between atoms: C_6  and  C_7
REMARK    2  A    between atoms: C_7  and  N_8
REMARK    3  A    between atoms: N_8  and  C_9
REMARK                            x       y       z     vdW  Elec       q    Type
REMARK                         _______ _______ _______ _____ _____    ______ ____
ROOT
ATOM      1  N   UNL     1      -1.726  -1.017  -1.368  0.00  0.00    -0.324 N 
ATOM      2  H   UNL     1      -1.191  -0.691  -2.109  0.00  0.00    +0.148 HD
ENDROOT
BRANCH   1   3
ATOM      3  C   UNL     1      -2.897  -1.712  -1.614  0.00  0.00    +0.143 A 
ATOM      4  C   UNL     1      -3.656  -2.169  -0.576  0.00  0.00    +0.154 A 
ATOM      5  N   UNL     1      -4.785  -2.838  -0.794  0.00  0.00    -0.256 NA
ATOM      6  C   UNL     1      -5.211  -3.084  -2.012  0.00  0.00    +0.161 A 
ATOM      7  C   UNL     1      -4.466  -2.635  -3.116  0.00  0.00    +0.199 A 
ATOM      8  N   UNL     1      -3.305  -1.941  -2.894  0.00  0.00    -0.176 N 
ATOM      9  N   UNL     1      -2.808  -1.632  -4.164  0.00  0.00    -0.037 NA
ATOM     10  N   UNL     1      -3.641  -2.118  -5.022  0.00  0.00    -0.022 NA
ATOM     11  N   UNL     1      -4.613  -2.715  -4.429  0.00  0.00    -0.107 NA
ENDBRANCH   1   3
BRANCH   1  12
ATOM     12  C   UNL     1      -1.293  -0.775   0.010  0.00  0.00    +0.138 C 
BRANCH  12  18
ATOM     13  C   UNL     1      -0.017   1.378   0.010  0.00  0.00    +0.006 A 
ATOM     14  C   UNL     1       1.171   2.086   0.002  0.00  0.00    +0.015 A 
ATOM     15  C   UNL     1       2.378   1.411  -0.013  0.00  0.00    +0.018 A 
ATOM     16  C   UNL     1       2.396   0.027  -0.021  0.00  0.00    +0.015 A 
ATOM     17  C   UNL     1       1.208  -0.679  -0.013  0.00  0.00    +0.006 A 
ATOM     18  C   UNL     1       0.002  -0.004   0.002  0.00  0.00    -0.030 A 
ATOM     19 BR   UNL     1       4.003   2.378  -0.024  0.00  0.00    -0.050 Br
ENDBRANCH  12  18
ENDBRANCH   1  12
TORSDOF 3
