REMARK  Name = ZINC14993226
REMARK  10 active torsions:
REMARK  status: ('A' for Active; 'I' for Inactive)
REMARK    1  A    between atoms: C_1  and  C_2
REMARK    2  A    between atoms: C_2  and  C_3
REMARK    3  A    between atoms: C_2  and  C_4
REMARK    4  A    between atoms: C_4  and  C_5
REMARK    5  A    between atoms: C_5  and  C_19
REMARK    6  A    between atoms: N_8  and  C_12
REMARK    7  A    between atoms: C_12  and  C_13
REMARK    8  A    between atoms: C_13  and  C_14
REMARK    9  A    between atoms: C_24  and  C_25
REMARK   10  A    between atoms: C_24  and  N_69
REMARK                            x       y       z     vdW  Elec       q    Type
REMARK                         _______ _______ _______ _____ _____    ______ ____
ROOT
ATOM      1  C   UNL     1      -3.509  -1.587   7.724  0.00  0.00    +0.115 C 
ATOM      2  C   UNL     1      -2.553  -2.526   7.018  0.00  0.00    +0.247 C 
ATOM      3  O   UNL     1      -2.645  -2.951   5.886  0.00  0.00    -0.273 OA
ATOM      4  N   UNL     1      -1.578  -2.792   7.909  0.00  0.00    -0.224 N 
ATOM      5  C   UNL     1      -1.784  -2.158   9.069  0.00  0.00    +0.309 C 
ATOM      6  O   UNL     1      -1.040  -2.242  10.027  0.00  0.00    -0.252 OA
ATOM      7  N   UNL     1      -2.906  -1.416   9.057  0.00  0.00    -0.285 N 
ATOM      8  H   UNL     1      -3.251  -0.875   9.785  0.00  0.00    +0.151 HD
ENDROOT
BRANCH   1   9
ATOM      9  C   UNL     1      -3.586  -0.245   6.992  0.00  0.00    +0.018 C 
ATOM     10  C   UNL     1      -2.170   0.278   6.733  0.00  0.00    -0.013 C 
ATOM     11  C   UNL     1      -2.252   1.589   5.948  0.00  0.00    -0.078 C 
ATOM     12  C   UNL     1      -4.325   0.899   4.900  0.00  0.00    -0.078 C 
ATOM     13  C   UNL     1      -4.305  -0.433   5.654  0.00  0.00    -0.013 C 
ATOM     14  N   UNL     1      -2.932   1.335   4.661  0.00  0.00    +0.382 N 
ATOM     15  H   UNL     1      -2.432   0.592   4.160  0.00  0.00    -0.081 HD
BRANCH  14  16
ATOM     16  C   UNL     1      -2.923   2.560   3.835  0.00  0.00    -0.043 C 
BRANCH  16  17
ATOM     17  C   UNL     1      -3.422   2.219   2.454  0.00  0.00    -0.063 A 
ATOM     18  C   UNL     1      -4.769   2.322   2.159  0.00  0.00    +0.005 A 
ATOM     19  C   UNL     1      -5.231   2.008   0.898  0.00  0.00    +0.046 A 
ATOM     20  C   UNL     1      -4.345   1.583  -0.089  0.00  0.00    +0.124 A 
ATOM     21  C   UNL     1      -2.993   1.490   0.219  0.00  0.00    -0.002 A 
ATOM     22  C   UNL     1      -2.534   1.801   1.479  0.00  0.00    +0.009 A 
ATOM     23  C   UNL     1      -2.284   1.022  -1.037  0.00  0.00    +0.080 C 
ATOM     24  C   UNL     1      -3.355   1.277  -2.124  0.00  0.00    +0.234 C 
ATOM     25  O   UNL     1      -4.584   1.219  -1.379  0.00  0.00    -0.491 OA
ENDBRANCH  16  17
ENDBRANCH  14  16
ENDBRANCH   1   9
BRANCH   1  26
ATOM     26  C   UNL     1      -4.900  -2.215   7.839  0.00  0.00    +0.038 C 
BRANCH  26  28
ATOM     27  C   UNL     1      -6.235  -3.977   9.004  0.00  0.00    +0.007 C 
ATOM     28  C   UNL     1      -4.821  -3.471   8.710  0.00  0.00    -0.015 C 
ATOM     29  C   UNL     1      -4.034  -4.555   7.972  0.00  0.00    +0.007 C 
ENDBRANCH  26  28
ENDBRANCH   1  26
BRANCH   4  30
ATOM     30  C   UNL     1      -0.434  -3.668   7.642  0.00  0.00    +0.123 C 
BRANCH  30  31
ATOM     31  C   UNL     1      -0.789  -5.104   8.034  0.00  0.00    +0.062 C 
BRANCH  31  32
ATOM     32  C   UNL     1       0.387  -6.005   7.759  0.00  0.00    -0.009 A 
ATOM     33  C   UNL     1       1.419  -6.334   8.574  0.00  0.00    +0.011 A 
ATOM     34  C   UNL     1       2.396  -7.192   8.105  0.00  0.00    +0.008 A 
ATOM     35  C   UNL     1       2.299  -7.670   6.840  0.00  0.00    +0.045 A 
ATOM     36  S   UNL     1       0.788  -6.909   6.272  0.00  0.00    -0.102 S 
ENDBRANCH  31  32
ENDBRANCH  30  31
ENDBRANCH   4  30
TORSDOF 8
