REMARK  Name = ZINC39431102
REMARK  7 active torsions:
REMARK  status: ('A' for Active; 'I' for Inactive)
REMARK    1  A    between atoms: C_1  and  C_2
REMARK    2  A    between atoms: C_2  and  C_4
REMARK    3  A    between atoms: C_2  and  S_16
REMARK    4  A    between atoms: S_16  and  C_17
REMARK    5  A    between atoms: N_28  and  C_29
REMARK    6  A    between atoms: C_34  and  O_35
REMARK    7  A    between atoms: O_35  and  C_36
REMARK                            x       y       z     vdW  Elec       q    Type
REMARK                         _______ _______ _______ _____ _____    ______ ____
ROOT
ATOM      1  C   UNL     1       2.753  -0.145   1.240  0.00  0.00    +0.227 C 
ATOM      2  N   UNL     1       3.162  -0.628  -0.084  0.00  0.00    -0.316 N 
ATOM      3  C   UNL     1       2.760   0.083  -1.209  0.00  0.00    +0.041 A 
ATOM      4  C   UNL     1       2.571  -0.536  -2.433  0.00  0.00    +0.024 A 
ATOM      5  C   UNL     1       2.181   0.214  -3.526  0.00  0.00    +0.002 A 
ATOM      6  C   UNL     1       1.979   1.580  -3.407  0.00  0.00    +0.001 A 
ATOM      7  C   UNL     1       2.159   2.212  -2.194  0.00  0.00    +0.015 A 
ATOM      8  C   UNL     1       2.546   1.467  -1.082  0.00  0.00    +0.058 A 
ATOM      9  C   UNL     1       2.728   2.091   0.240  0.00  0.00    +0.255 C 
ATOM     10  O   UNL     1       2.714   3.301   0.355  0.00  0.00    -0.269 OA
ATOM     11  N   UNL     1       2.909   1.308   1.318  0.00  0.00    -0.236 N 
ATOM     12  H   UNL     1       3.704  -1.428  -0.172  0.00  0.00    +0.149 HD
ENDROOT
BRANCH  11  13
ATOM     13  C   UNL     1       3.252   1.898   2.541  0.00  0.00    +0.081 A 
ATOM     14  C   UNL     1       4.586   2.086   2.873  0.00  0.00    +0.027 A 
ATOM     15  C   UNL     1       4.922   2.669   4.080  0.00  0.00    +0.002 A 
ATOM     16  C   UNL     1       3.931   3.066   4.960  0.00  0.00    +0.004 A 
ATOM     17  C   UNL     1       2.600   2.881   4.636  0.00  0.00    +0.047 A 
ATOM     18  C   UNL     1       2.255   2.303   3.425  0.00  0.00    +0.141 A 
BRANCH  18  19
ATOM     19  O   UNL     1       0.945   2.126   3.103  0.00  0.00    -0.493 OA
ATOM     20  C   UNL     1      -0.023   2.565   4.058  0.00  0.00    +0.277 C 
ENDBRANCH  18  19
ENDBRANCH  11  13
BRANCH   1  21
ATOM     21  S   UNL     1       1.016  -0.579   1.527  0.00  0.00    -0.108 S 
BRANCH  21  23
ATOM     22  C   UNL     1       1.442  -3.132   0.641  0.00  0.00    +0.027 C 
ATOM     23  C   UNL     1       1.062  -2.353   1.903  0.00  0.00    +0.112 C 
BRANCH  23  24
ATOM     24  C   UNL     1      -0.295  -2.801   2.381  0.00  0.00    +0.123 A 
ATOM     25  N   UNL     1      -0.489  -4.125   2.620  0.00  0.00    -0.309 N 
ATOM     26  H   UNL     1       0.239  -4.750   2.481  0.00  0.00    +0.170 HD
ATOM     27  C   UNL     1      -1.689  -4.578   3.051  0.00  0.00    +0.259 A 
ATOM     28  O   UNL     1      -1.877  -5.761   3.270  0.00  0.00    -0.267 OA
ATOM     29  C   UNL     1      -2.758  -3.586   3.244  0.00  0.00    +0.065 A 
ATOM     30  C   UNL     1      -4.029  -3.949   3.684  0.00  0.00    +0.015 A 
ATOM     31  C   UNL     1      -4.993  -2.978   3.848  0.00  0.00    +0.001 A 
ATOM     32  C   UNL     1      -4.707  -1.646   3.578  0.00  0.00    +0.002 A 
ATOM     33  C   UNL     1      -3.457  -1.267   3.142  0.00  0.00    +0.028 A 
ATOM     34  C   UNL     1      -2.463  -2.232   2.969  0.00  0.00    +0.078 A 
ATOM     35  N   UNL     1      -1.217  -1.903   2.547  0.00  0.00    -0.233 NA
ENDBRANCH  23  24
ENDBRANCH  21  23
ENDBRANCH   1  21
TORSDOF 5
