REMARK  Name = ZINC59471592
REMARK  4 active torsions:
REMARK  status: ('A' for Active; 'I' for Inactive)
REMARK    1  A    between atoms: C_10  and  C_11
REMARK    2  A    between atoms: N_12  and  N_13
REMARK    3  A    between atoms: C_14  and  C_16
REMARK    4  A    between atoms: C_19  and  C_22
REMARK                            x       y       z     vdW  Elec       q    Type
REMARK                         _______ _______ _______ _____ _____    ______ ____
ROOT
ATOM      1  C   UNL     1       7.473   4.176  -0.249  0.00  0.00    +0.038 A 
ATOM      2  C   UNL     1       8.683   3.486  -0.165  0.00  0.00    +0.013 A 
ATOM      3  C   UNL     1       9.873   4.184  -0.174  0.00  0.00    +0.006 A 
ATOM      4  C   UNL     1       9.868   5.564  -0.267  0.00  0.00    -0.027 A 
ATOM      5  C   UNL     1       8.672   6.254  -0.350  0.00  0.00    +0.006 A 
ATOM      6  C   UNL     1       7.475   5.568  -0.348  0.00  0.00    +0.013 A 
ENDROOT
BRANCH   4   7
ATOM      7  C   UNL     1      11.172   6.320  -0.276  0.00  0.00    +0.105 C 
ATOM      8  C   UNL     1      11.436   6.928   1.090  0.00  0.00    +0.029 C 
ATOM      9  C   UNL     1      11.717   5.959   2.246  0.00  0.00    +0.033 C 
ATOM     10  C   UNL     1      12.619   6.806   3.146  0.00  0.00    -0.030 C 
ATOM     11  C   UNL     1      13.249   7.724   2.422  0.00  0.00    -0.023 C 
ATOM     12  C   UNL     1      12.847   7.580   0.989  0.00  0.00    +0.049 C 
ATOM     13  C   UNL     1      12.751   8.728   0.061  0.00  0.00    -0.019 A 
ATOM     14  C   UNL     1      13.480   9.884   0.235  0.00  0.00    +0.006 A 
ATOM     15  C   UNL     1      13.365  10.924  -0.668  0.00  0.00    +0.000 A 
ATOM     16  C   UNL     1      12.516  10.806  -1.754  0.00  0.00    +0.002 A 
ATOM     17  C   UNL     1      11.777   9.655  -1.934  0.00  0.00    +0.023 A 
ATOM     18  C   UNL     1      11.880   8.606  -1.028  0.00  0.00    +0.031 A 
ATOM     19  N   UNL     1      11.095   7.460  -1.215  0.00  0.00    -0.336 N 
ATOM     20  H   UNL     1      10.490   7.414  -1.971  0.00  0.00    +0.147 HD
ENDBRANCH   4   7
BRANCH   1  22
ATOM     21  N   UNL     1       6.195   2.090  -0.145  0.00  0.00    -0.203 N 
ATOM     22  C   UNL     1       6.194   3.435  -0.241  0.00  0.00    +0.263 C 
ATOM     23  O   UNL     1       5.141   4.038  -0.320  0.00  0.00    -0.268 OA
ATOM     24  H   UNL     1       7.035   1.609  -0.082  0.00  0.00    +0.178 HD
BRANCH  21  26
ATOM     25  C   UNL     1       4.984   0.091  -0.045  0.00  0.00    +0.139 C 
ATOM     26  N   UNL     1       4.983   1.388  -0.137  0.00  0.00    -0.187 NA
BRANCH  25  36
ATOM     27  C   UNL     1      -0.016   1.357   0.038  0.00  0.00    +0.001 A 
ATOM     28  C   UNL     1       1.168   2.091   0.031  0.00  0.00    +0.001 A 
ATOM     29  C   UNL     1       2.379   1.466   0.007  0.00  0.00    +0.009 A 
ATOM     30  C   UNL     1       2.435   0.067  -0.011  0.00  0.00    -0.009 A 
ATOM     31  C   UNL     1       1.233  -0.682  -0.004  0.00  0.00    -0.017 A 
ATOM     32  C   UNL     1       0.002  -0.004   0.021  0.00  0.00    +0.008 A 
ATOM     33  C   UNL     1       1.294  -2.086  -0.021  0.00  0.00    +0.008 A 
ATOM     34  C   UNL     1       2.494  -2.729  -0.044  0.00  0.00    +0.001 A 
ATOM     35  C   UNL     1       3.696  -2.036  -0.051  0.00  0.00    +0.010 A 
ATOM     36  C   UNL     1       3.711  -0.646  -0.036  0.00  0.00    +0.002 A 
ENDBRANCH  25  36
ENDBRANCH  21  26
ENDBRANCH   1  22
TORSDOF 4
