REMARK  Name = ZINC34749508
REMARK  8 active torsions:
REMARK  status: ('A' for Active; 'I' for Inactive)
REMARK    1  A    between atoms: C_1  and  C_2
REMARK    2  A    between atoms: C_2  and  C_3
REMARK    3  A    between atoms: C_4  and  C_37
REMARK    4  A    between atoms: N_10  and  C_29
REMARK    5  A    between atoms: N_16  and  C_19
REMARK    6  A    between atoms: C_19  and  C_20
REMARK    7  A    between atoms: N_22  and  C_23
REMARK    8  A    between atoms: C_29  and  C_30
REMARK                            x       y       z     vdW  Elec       q    Type
REMARK                         _______ _______ _______ _____ _____    ______ ____
ROOT
ATOM      1  C   UNL     1      -1.295  -0.205  -0.172  0.00  0.00    -0.023 A 
ATOM      2  C   UNL     1      -1.387   1.099   0.127  0.00  0.00    -0.007 A 
ATOM      3  S   UNL     1      -2.588   1.708  -1.041  0.00  0.00    -0.073 S 
ATOM      4  C   UNL     1      -2.932   0.192  -1.897  0.00  0.00    +0.117 A 
ATOM      5  C   UNL     1      -2.099  -0.743  -1.255  0.00  0.00    +0.076 A 
ATOM      6  C   UNL     1      -2.166  -2.082  -1.754  0.00  0.00    +0.264 A 
ATOM      7  O   UNL     1      -1.484  -2.962  -1.257  0.00  0.00    -0.267 OA
ATOM      8  N   UNL     1      -2.993  -2.358  -2.780  0.00  0.00    -0.271 N 
ATOM      9  C   UNL     1      -3.763  -1.388  -3.349  0.00  0.00    +0.202 A 
ATOM     10  N   UNL     1      -3.729  -0.149  -2.903  0.00  0.00    -0.208 NA
ATOM     11  N   UNL     1      -4.594  -1.708  -4.393  0.00  0.00    -0.304 N 
ATOM     12  C   UNL     1      -4.120  -1.643  -5.784  0.00  0.00    +0.089 C 
ATOM     13  C   UNL     1      -5.128  -0.831  -6.604  0.00  0.00    -0.059 C 
ATOM     14  N   UNL     1      -6.467  -1.414  -6.447  0.00  0.00    +0.387 N 
ATOM     15  C   UNL     1      -6.904  -1.294  -5.050  0.00  0.00    -0.059 C 
ATOM     16  C   UNL     1      -5.982  -2.133  -4.153  0.00  0.00    +0.089 C 
ATOM     17  C   UNL     1      -0.651   1.867   1.195  0.00  0.00    +0.052 C 
ATOM     18  H   UNL     1      -6.441  -2.389  -6.707  0.00  0.00    -0.081 HD
ENDROOT
BRANCH   1  20
ATOM     19  C   UNL     1       1.012  -1.108  -0.067  0.00  0.00    +0.009 C 
ATOM     20  C   UNL     1      -0.363  -1.100   0.604  0.00  0.00    +0.033 C 
ENDBRANCH   1  20
BRANCH  14  21
ATOM     21  C   UNL     1      -7.413  -0.704  -7.317  0.00  0.00    +0.019 C 
BRANCH  21  22
ATOM     22  C   UNL     1      -8.760  -1.378  -7.250  0.00  0.00    +0.197 C 
ATOM     23  O   UNL     1      -8.916  -2.353  -6.547  0.00  0.00    -0.278 OA
ATOM     24  N   UNL     1      -9.791  -0.896  -7.973  0.00  0.00    -0.314 N 
ATOM     25  H   UNL     1      -9.666  -0.116  -8.535  0.00  0.00    +0.149 HD
BRANCH  24  26
ATOM     26  C   UNL     1     -11.100  -1.552  -7.908  0.00  0.00    +0.073 C 
ATOM     27  C   UNL     1     -11.138  -2.714  -8.901  0.00  0.00    +0.022 C 
ATOM     28  C   UNL     1     -12.505  -3.398  -8.834  0.00  0.00    +0.002 C 
ATOM     29  C   UNL     1     -13.599  -2.389  -9.188  0.00  0.00    +0.000 C 
ATOM     30  C   UNL     1     -13.560  -1.226  -8.194  0.00  0.00    +0.002 C 
ATOM     31  C   UNL     1     -12.193  -0.542  -8.262  0.00  0.00    +0.022 C 
ENDBRANCH  24  26
ENDBRANCH  21  22
ENDBRANCH  14  21
BRANCH   8  32
ATOM     32  C   UNL     1      -3.066  -3.728  -3.295  0.00  0.00    +0.224 C 
BRANCH  32  33
ATOM     33  C   UNL     1      -4.069  -4.514  -2.491  0.00  0.00    +0.236 C 
ATOM     34  O   UNL     1      -4.664  -3.983  -1.577  0.00  0.00    -0.274 OA
ATOM     35  N   UNL     1      -4.305  -5.808  -2.787  0.00  0.00    -0.300 N 
ATOM     36  C   UNL     1      -3.652  -6.574  -3.859  0.00  0.00    +0.108 C 
ATOM     37  C   UNL     1      -4.254  -7.995  -3.838  0.00  0.00    +0.020 C 
ATOM     38  C   UNL     1      -5.615  -7.785  -3.124  0.00  0.00    +0.020 C 
ATOM     39  C   UNL     1      -5.255  -6.690  -2.086  0.00  0.00    +0.108 C 
ENDBRANCH  32  33
ENDBRANCH   8  32
TORSDOF 6
