REMARK  Name = ZINC49506581
REMARK  11 active torsions:
REMARK  status: ('A' for Active; 'I' for Inactive)
REMARK    1  A    between atoms: C_1  and  C_2
REMARK    2  A    between atoms: C_2  and  O_3
REMARK    3  A    between atoms: O_3  and  C_4
REMARK    4  A    between atoms: C_7  and  C_35
REMARK    5  A    between atoms: C_9  and  S_10
REMARK    6  A    between atoms: S_10  and  N_13
REMARK    7  A    between atoms: N_13  and  C_14
REMARK    8  A    between atoms: N_23  and  S_24
REMARK    9  A    between atoms: S_24  and  C_27
REMARK   10  A    between atoms: C_30  and  O_33
REMARK   11  A    between atoms: O_33  and  C_34
REMARK                            x       y       z     vdW  Elec       q    Type
REMARK                         _______ _______ _______ _____ _____    ______ ____
ROOT
ATOM      1  C   UNL     1       0.369   1.739  -3.708  0.00  0.00    +0.048 A 
ATOM      2  C   UNL     1       0.234   1.309  -2.394  0.00  0.00    +0.026 A 
ATOM      3  C   UNL     1      -0.746   1.856  -1.590  0.00  0.00    +0.027 A 
ATOM      4  C   UNL     1      -1.595   2.835  -2.093  0.00  0.00    +0.055 A 
ATOM      5  C   UNL     1      -1.460   3.268  -3.403  0.00  0.00    -0.023 A 
ATOM      6  C   UNL     1      -0.474   2.720  -4.207  0.00  0.00    +0.030 A 
ATOM      7  C   UNL     1      -2.357   4.333  -3.976  0.00  0.00    +0.039 C 
ATOM      8  C   UNL     1      -3.644   4.447  -3.160  0.00  0.00    +0.025 C 
ATOM      9  C   UNL     1      -3.280   4.598  -1.677  0.00  0.00    +0.132 C 
ATOM     10  N   UNL     1      -2.586   3.372  -1.258  0.00  0.00    -0.203 N 
ENDROOT
BRANCH  10  11
ATOM     11  S   UNL     1      -2.969   2.636   0.175  0.00  0.00    +0.075 S 
ATOM     12  O   UNL     1      -4.245   3.130   0.557  0.00  0.00    -0.150 OA
ATOM     13  O   UNL     1      -2.709   1.250   0.002  0.00  0.00    -0.150 OA
BRANCH  11  14
ATOM     14  C   UNL     1      -1.822   3.216   1.381  0.00  0.00    +0.109 A 
ATOM     15  C   UNL     1      -0.704   2.463   1.688  0.00  0.00    +0.032 A 
ATOM     16  C   UNL     1       0.196   2.916   2.634  0.00  0.00    +0.047 A 
ATOM     17  C   UNL     1      -0.023   4.127   3.274  0.00  0.00    +0.120 A 
ATOM     18  C   UNL     1      -1.145   4.880   2.963  0.00  0.00    +0.047 A 
ATOM     19  C   UNL     1      -2.039   4.426   2.014  0.00  0.00    +0.032 A 
BRANCH  17  20
ATOM     20  O   UNL     1       0.861   4.574   4.205  0.00  0.00    -0.495 OA
ATOM     21  C   UNL     1       0.572   5.829   4.824  0.00  0.00    +0.277 C 
ENDBRANCH  17  20
ENDBRANCH  11  14
ENDBRANCH  10  11
BRANCH   1  22
ATOM     22  N   UNL     1       1.361   1.185  -4.526  0.00  0.00    -0.216 N 
ATOM     23  H   UNL     1       1.148   0.921  -5.435  0.00  0.00    +0.174 HD
BRANCH  22  24
ATOM     24  S   UNL     1       2.897   0.981  -3.943  0.00  0.00    +0.076 S 
ATOM     25  O   UNL     1       3.679   0.489  -5.024  0.00  0.00    -0.150 OA
ATOM     26  O   UNL     1       2.775   0.282  -2.712  0.00  0.00    -0.150 OA
BRANCH  24  32
ATOM     27  C   UNL     1       3.726   3.511  -4.564  0.00  0.00    +0.147 A 
ATOM     28  C   UNL     1       4.215   4.772  -4.254  0.00  0.00    +0.048 A 
ATOM     29  C   UNL     1       4.504   5.096  -2.942  0.00  0.00    +0.007 A 
ATOM     30  C   UNL     1       4.307   4.165  -1.939  0.00  0.00    -0.048 A 
ATOM     31  C   UNL     1       3.821   2.908  -2.245  0.00  0.00    +0.036 A 
ATOM     32  C   UNL     1       3.524   2.581  -3.555  0.00  0.00    +0.150 A 
ATOM     33  C   UNL     1       4.623   4.522  -0.509  0.00  0.00    +0.044 C 
BRANCH  27  34
ATOM     34  O   UNL     1       3.440   3.190  -5.853  0.00  0.00    -0.490 OA
BRANCH  34  36
ATOM     35  C   UNL     1       3.312   3.654  -8.221  0.00  0.00    +0.048 C 
ATOM     36  C   UNL     1       3.769   4.159  -6.851  0.00  0.00    +0.226 C 
ENDBRANCH  34  36
ENDBRANCH  27  34
ENDBRANCH  24  32
ENDBRANCH  22  24
ENDBRANCH   1  22
TORSDOF 8
