REMARK  Name = ZINC05279532
REMARK  5 active torsions:
REMARK  status: ('A' for Active; 'I' for Inactive)
REMARK    1  A    between atoms: C_1  and  C_2
REMARK    2  A    between atoms: C_2  and  C_3
REMARK    3  A    between atoms: C_3  and  C_23
REMARK    4  A    between atoms: N_6  and  N_10
REMARK    5  A    between atoms: C_11  and  C_13
REMARK                            x       y       z     vdW  Elec       q    Type
REMARK                         _______ _______ _______ _____ _____    ______ ____
ROOT
ATOM      1  C   UNL     1       5.525  -2.236   0.550  0.00  0.00    +0.139 C 
ATOM      2  C   UNL     1       4.222  -1.629   1.030  0.00  0.00    +0.268 C 
ATOM      3  O   UNL     1       3.748  -1.699   2.144  0.00  0.00    -0.271 OA
ATOM      4  N   UNL     1       3.699  -0.996  -0.038  0.00  0.00    -0.137 N 
ATOM      5  C   UNL     1       4.480  -1.121  -1.117  0.00  0.00    +0.327 C 
ATOM      6  O   UNL     1       4.217  -0.640  -2.202  0.00  0.00    -0.251 OA
ATOM      7  N   UNL     1       5.591  -1.837  -0.867  0.00  0.00    -0.280 N 
ATOM      8  H   UNL     1       6.298  -2.051  -1.496  0.00  0.00    +0.152 HD
ENDROOT
BRANCH   1   9
ATOM      9  C   UNL     1       6.690  -1.666   1.317  0.00  0.00    -0.015 A 
ATOM     10  C   UNL     1       7.123  -2.282   2.476  0.00  0.00    +0.006 A 
ATOM     11  C   UNL     1       8.194  -1.761   3.177  0.00  0.00    +0.000 A 
ATOM     12  C   UNL     1       8.827  -0.618   2.724  0.00  0.00    +0.000 A 
ATOM     13  C   UNL     1       8.391   0.001   1.568  0.00  0.00    +0.000 A 
ATOM     14  C   UNL     1       7.322  -0.523   0.864  0.00  0.00    +0.006 A 
ENDBRANCH   1   9
BRANCH   4  15
ATOM     15  N   UNL     1       2.485  -0.298  -0.023  0.00  0.00    -0.220 N 
ATOM     16  C   UNL     1       2.482   1.050  -0.016  0.00  0.00    +0.261 C 
ATOM     17  O   UNL     1       3.534   1.660  -0.023  0.00  0.00    -0.269 OA
ATOM     18  H   UNL     1       1.645  -0.784  -0.018  0.00  0.00    +0.174 HD
BRANCH  16  19
ATOM     19  C   UNL     1       1.201   1.787   0.000  0.00  0.00    +0.039 A 
ATOM     20  C   UNL     1      -0.013   1.076   0.008  0.00  0.00    +0.014 A 
ATOM     21  C   UNL     1      -1.202   1.730   0.017  0.00  0.00    +0.009 A 
ATOM     22  C   UNL     1      -1.232   3.136   0.031  0.00  0.00    -0.018 A 
ATOM     23  C   UNL     1      -2.451   3.835   0.045  0.00  0.00    +0.008 A 
ATOM     24  C   UNL     1      -2.448   5.196   0.051  0.00  0.00    +0.001 A 
ATOM     25  C   UNL     1      -1.252   5.912   0.044  0.00  0.00    +0.001 A 
ATOM     26  C   UNL     1      -0.052   5.270   0.029  0.00  0.00    +0.008 A 
ATOM     27  C   UNL     1      -0.015   3.864   0.022  0.00  0.00    -0.017 A 
ATOM     28  C   UNL     1       1.205   3.171   0.007  0.00  0.00    +0.021 A 
ENDBRANCH  16  19
ENDBRANCH   4  15
BRANCH   1  30
ATOM     29  C   UNL     1       4.412  -4.328  -0.244  0.00  0.00    +0.007 C 
ATOM     30  C   UNL     1       5.490  -3.760   0.682  0.00  0.00    +0.037 C 
ENDBRANCH   1  30
TORSDOF 4
