REMARK  Name = ZINC21725642
REMARK  6 active torsions:
REMARK  status: ('A' for Active; 'I' for Inactive)
REMARK    1  A    between atoms: C_1  and  O_2
REMARK    2  A    between atoms: O_2  and  C_3
REMARK    3  A    between atoms: C_5  and  C_14
REMARK    4  A    between atoms: C_8  and  O_9
REMARK    5  A    between atoms: O_9  and  C_10
REMARK    6  A    between atoms: C_10  and  C_11
REMARK                            x       y       z     vdW  Elec       q    Type
REMARK                         _______ _______ _______ _____ _____    ______ ____
ROOT
ATOM      1  C   UNL     1       0.208   6.050  -0.473  0.00  0.00    +0.063 C 
ATOM      2  C   UNL     1      -0.906   6.925  -1.057  0.00  0.00    +0.109 C 
ATOM      3  C   UNL     1      -1.304   8.015  -0.104  0.00  0.00    +0.219 C 
ATOM      4  O   UNL     1      -2.471   8.340  -0.041  0.00  0.00    -0.275 OA
ATOM      5  N   UNL     1      -0.408   8.646   0.685  0.00  0.00    -0.270 N 
ATOM      6  C   UNL     1       0.901   8.169   0.701  0.00  0.00    +0.134 A 
ATOM      7  C   UNL     1       1.232   6.951   0.168  0.00  0.00    +0.020 A 
ATOM      8  C   UNL     1       2.596   6.764   0.341  0.00  0.00    +0.141 A 
ATOM      9  N   UNL     1       3.083   7.819   0.950  0.00  0.00    -0.171 NA
ATOM     10  N   UNL     1       2.033   8.721   1.188  0.00  0.00    -0.194 N 
ATOM     11  C   UNL     1       2.140   9.959   1.812  0.00  0.00    +0.196 A 
ATOM     12  N   UNL     1       1.200  10.842   2.055  0.00  0.00    -0.221 NA
ATOM     13  C   UNL     1       1.448  12.012   2.680  0.00  0.00    +0.081 A 
ATOM     14  C   UNL     1       0.532  13.040   3.005  0.00  0.00    +0.029 A 
ATOM     15  C   UNL     1       0.953  14.178   3.641  0.00  0.00    +0.002 A 
ATOM     16  C   UNL     1       2.284  14.364   3.989  0.00  0.00    +0.001 A 
ATOM     17  C   UNL     1       3.207  13.380   3.687  0.00  0.00    +0.017 A 
ATOM     18  C   UNL     1       2.794  12.237   3.050  0.00  0.00    +0.041 A 
ATOM     19  S   UNL     1       3.594  10.755   2.481  0.00  0.00    -0.048 S 
ATOM     20  H   UNL     1      -0.721   9.510   1.290  0.00  0.00    +0.156 HD
ENDROOT
BRANCH   1  23
ATOM     21  C   UNL     1      -0.787   2.893   1.346  0.00  0.00    +0.162 A 
ATOM     22  C   UNL     1      -0.259   3.751   0.395  0.00  0.00    +0.053 A 
ATOM     23  C   UNL     1      -0.368   5.119   0.562  0.00  0.00    -0.036 A 
ATOM     24  C   UNL     1      -1.003   5.634   1.677  0.00  0.00    +0.008 A 
ATOM     25  C   UNL     1      -1.532   4.784   2.629  0.00  0.00    +0.050 A 
ATOM     26  C   UNL     1      -1.432   3.411   2.465  0.00  0.00    +0.163 A 
BRANCH  21  28
ATOM     27  C   UNL     1      -0.013   1.086   0.008  0.00  0.00    +0.277 C 
ATOM     28  O   UNL     1      -0.682   1.547   1.184  0.00  0.00    -0.491 OA
ENDBRANCH  21  28
BRANCH  26  29
ATOM     29  O   UNL     1      -1.957   2.573   3.399  0.00  0.00    -0.479 OA
BRANCH  29  30
ATOM     30  C   UNL     1      -2.603   3.176   4.521  0.00  0.00    +0.324 C 
BRANCH  30  31
ATOM     31  C   UNL     1      -3.119   2.100   5.442  0.00  0.00    +0.248 C 
ATOM     32  O   UNL     1      -2.949   0.932   5.164  0.00  0.00    -0.272 OA
ATOM     33  N   UNL     1      -3.768   2.436   6.574  0.00  0.00    -0.327 N 
ATOM     34  H   UNL     1      -4.145   1.651   7.246  0.00  0.00    +0.145 HD
ATOM     35  H   UNL     1      -3.923   3.496   6.826  0.00  0.00    +0.145 HD
ENDBRANCH  30  31
ENDBRANCH  29  30
ENDBRANCH  26  29
ENDBRANCH   1  23
TORSDOF 5
