REMARK  Name = ZINC09323663
REMARK  6 active torsions:
REMARK  status: ('A' for Active; 'I' for Inactive)
REMARK    1  A    between atoms: C_3  and  O_24
REMARK    2  A    between atoms: C_6  and  C_7
REMARK    3  A    between atoms: N_8  and  N_9
REMARK    4  A    between atoms: N_9  and  C_10
REMARK    5  A    between atoms: C_13  and  C_19
REMARK    6  A    between atoms: C_15  and  N_16
REMARK                            x       y       z     vdW  Elec       q    Type
REMARK                         _______ _______ _______ _____ _____    ______ ____
ROOT
ATOM      1  N   UNL     1       2.240   0.856   0.031  0.00  0.00    -0.236 N 
ATOM      2  H   UNL     1       3.120   1.258  -0.048  0.00  0.00    +0.174 HD
ENDROOT
BRANCH   1   3
ATOM      3  C   UNL     1       1.102   1.661   0.024  0.00  0.00    +0.078 A 
ATOM      4  C   UNL     1      -0.162   1.082   0.021  0.00  0.00    +0.027 A 
ATOM      5  C   UNL     1      -1.287   1.883   0.007  0.00  0.00    +0.014 A 
ATOM      6  C   UNL     1      -1.157   3.260   0.008  0.00  0.00    +0.057 A 
ATOM      7  C   UNL     1       0.098   3.840   0.011  0.00  0.00    +0.047 A 
ATOM      8  C   UNL     1       1.228   3.045   0.018  0.00  0.00    +0.149 A 
BRANCH   6   9
ATOM      9  C   UNL     1      -2.388   4.130  -0.001  0.00  0.00    +0.417 C 
ATOM     10  F   UNL     1      -2.763   4.394  -1.322  0.00  0.00    -0.166 F 
ATOM     11  F   UNL     1      -3.431   3.470   0.657  0.00  0.00    -0.166 F 
ATOM     12  F   UNL     1      -2.111   5.335   0.655  0.00  0.00    -0.166 F 
ENDBRANCH   6   9
BRANCH   8  13
ATOM     13  N   UNL     1       2.571   3.667   0.022  0.00  0.00    +0.058 N 
ATOM     14  O   UNL     1       2.683   4.876   0.124  0.00  0.00    -0.126 OA
ATOM     15  O   UNL     1       3.565   2.971  -0.078  0.00  0.00    -0.126 OA
ENDBRANCH   8  13
ENDBRANCH   1   3
BRANCH   1  17
ATOM     16  C   UNL     1       3.174  -1.284   0.160  0.00  0.00    +0.138 C 
ATOM     17  N   UNL     1       2.114  -0.534   0.153  0.00  0.00    -0.190 NA
BRANCH  16  23
ATOM     18  C   UNL     1       1.776  -3.328   0.407  0.00  0.00    +0.013 A 
ATOM     19  C   UNL     1       1.657  -4.697   0.521  0.00  0.00    +0.047 A 
ATOM     20  C   UNL     1       2.791  -5.497   0.528  0.00  0.00    +0.130 A 
ATOM     21  C   UNL     1       4.052  -4.923   0.415  0.00  0.00    +0.055 A 
ATOM     22  C   UNL     1       4.181  -3.556   0.295  0.00  0.00    +0.027 A 
ATOM     23  C   UNL     1       3.041  -2.747   0.288  0.00  0.00    -0.004 A 
ATOM     24  I   UNL     1       5.758  -6.138   0.428  0.00  0.00    -0.040 I 
BRANCH  20  25
ATOM     25  O   UNL     1       2.668  -6.845   0.647  0.00  0.00    -0.506 OA
ATOM     26  H   UNL     1       2.679  -7.162   1.560  0.00  0.00    +0.292 HD
ENDBRANCH  20  25
ENDBRANCH  16  23
ENDBRANCH   1  17
TORSDOF 6
