REMARK  Name = ZINC39590751
REMARK  4 active torsions:
REMARK  status: ('A' for Active; 'I' for Inactive)
REMARK    1  A    between atoms: C_1  and  C_2
REMARK    2  A    between atoms: C_5  and  C_8
REMARK    3  A    between atoms: C_11  and  C_18
REMARK    4  A    between atoms: C_21  and  C_24
REMARK                            x       y       z     vdW  Elec       q    Type
REMARK                         _______ _______ _______ _____ _____    ______ ____
ROOT
ATOM      1  C   UNL     1       0.061  -4.251  -0.021  0.00  0.00    +0.125 C 
ATOM      2  N   UNL     1       0.072  -5.047  -1.051  0.00  0.00    -0.173 NA
ATOM      3  N   UNL     1       0.008  -6.419  -0.938  0.00  0.00    -0.206 N 
ATOM      4  C   UNL     1      -0.341  -7.671  -1.649  0.00  0.00    +0.206 C 
ATOM      5  N   UNL     1      -0.991  -8.535  -0.635  0.00  0.00    -0.231 NA
ATOM      6  N   UNL     1      -0.903  -7.815   0.647  0.00  0.00    -0.224 NA
ATOM      7  C   UNL     1       0.259  -6.926   0.449  0.00  0.00    +0.240 C 
ATOM      8  S   UNL     1       0.083  -5.360   1.380  0.00  0.00    -0.063 S 
ATOM      9  H   UNL     1      -1.951  -8.722  -0.880  0.00  0.00    +0.143 HD
ATOM     10  H   UNL     1      -1.742  -7.281   0.820  0.00  0.00    +0.144 HD
ENDROOT
BRANCH   1  15
ATOM     11  C   UNL     1      -0.018   1.503   0.010  0.00  0.00    +0.044 C 
ATOM     12  C   UNL     1       0.002  -0.004   0.002  0.00  0.00    -0.050 A 
ATOM     13  C   UNL     1       0.006  -0.686  -1.202  0.00  0.00    +0.004 A 
ATOM     14  C   UNL     1       0.025  -2.066  -1.216  0.00  0.00    +0.011 A 
ATOM     15  C   UNL     1       0.041  -2.773  -0.013  0.00  0.00    +0.008 A 
ATOM     16  C   UNL     1       0.037  -2.079   1.198  0.00  0.00    +0.011 A 
ATOM     17  C   UNL     1       0.023  -0.699   1.198  0.00  0.00    +0.004 A 
ENDBRANCH   1  15
BRANCH   4  18
ATOM     18  C   UNL     1       0.923  -8.343  -2.189  0.00  0.00    +0.190 C 
ATOM     19  C   UNL     1       0.571  -9.592  -2.977  0.00  0.00    +0.034 C 
ATOM     20  C   UNL     1       1.177 -10.584  -2.296  0.00  0.00    +0.091 C 
ATOM     21  N   UNL     1       1.836 -10.085  -1.218  0.00  0.00    -0.154 NA
ATOM     22  N   UNL     1       1.749  -8.859  -1.086  0.00  0.00    -0.176 NA
BRANCH  20  23
ATOM     23  C   UNL     1       1.131 -12.019  -2.671  0.00  0.00    +0.002 A 
ATOM     24  C   UNL     1       0.428 -12.424  -3.804  0.00  0.00    +0.010 A 
ATOM     25  C   UNL     1       0.389 -13.760  -4.148  0.00  0.00    +0.001 A 
ATOM     26  C   UNL     1       1.046 -14.696  -3.371  0.00  0.00    +0.000 A 
ATOM     27  C   UNL     1       1.746 -14.300  -2.245  0.00  0.00    +0.001 A 
ATOM     28  C   UNL     1       1.796 -12.966  -1.895  0.00  0.00    +0.010 A 
ENDBRANCH  20  23
ENDBRANCH   4  18
TORSDOF 3
