REMARK  Name = ZINC66118966
REMARK  6 active torsions:
REMARK  status: ('A' for Active; 'I' for Inactive)
REMARK    1  A    between atoms: C_3  and  C_6
REMARK    2  A    between atoms: C_6  and  C_8
REMARK    3  A    between atoms: C_6  and  N_25
REMARK    4  A    between atoms: C_8  and  N_9
REMARK    5  A    between atoms: C_15  and  N_18
REMARK    6  A    between atoms: C_19  and  C_21
REMARK                            x       y       z     vdW  Elec       q    Type
REMARK                         _______ _______ _______ _____ _____    ______ ____
ROOT
ATOM      1  N   UNL     1       5.488   0.155   1.228  0.00  0.00    -0.300 N 
ATOM      2  C   UNL     1       6.086  -0.186   2.386  0.00  0.00    +0.302 C 
ATOM      3  O   UNL     1       5.455  -0.166   3.425  0.00  0.00    -0.253 OA
ATOM      4  N   UNL     1       7.384  -0.550   2.393  0.00  0.00    -0.286 N 
ATOM      5  C   UNL     1       8.189  -0.472   1.167  0.00  0.00    +0.111 C 
ATOM      6  C   UNL     1       8.838  -1.837   0.915  0.00  0.00    +0.041 C 
ATOM      7  C   UNL     1       9.625  -2.260   2.158  0.00  0.00    +0.076 C 
ATOM      8  C   UNL     1       8.671  -2.390   3.348  0.00  0.00    +0.041 C 
ATOM      9  C   UNL     1       8.022  -1.026   3.628  0.00  0.00    +0.111 C 
ATOM     10  H   UNL     1       6.007   0.205   0.410  0.00  0.00    +0.150 HD
ENDROOT
BRANCH   7  11
ATOM     11  N   UNL     1      10.274  -3.549   1.910  0.00  0.00    -0.312 N 
ATOM     12  C   UNL     1      11.382  -3.889   2.598  0.00  0.00    +0.216 C 
ATOM     13  O   UNL     1      11.842  -3.128   3.422  0.00  0.00    -0.276 OA
ATOM     14  H   UNL     1       9.906  -4.158   1.251  0.00  0.00    +0.149 HD
BRANCH  12  15
ATOM     15  C   UNL     1      12.050  -5.216   2.342  0.00  0.00    +0.075 C 
ATOM     16  C   UNL     1      12.989  -5.208   1.124  0.00  0.00    +0.013 C 
ATOM     17  C   UNL     1      14.106  -4.771   2.087  0.00  0.00    +0.001 C 
ATOM     18  C   UNL     1      13.300  -5.452   3.205  0.00  0.00    +0.013 C 
ENDBRANCH  12  15
ENDBRANCH   7  11
BRANCH   1  19
ATOM     19  C   UNL     1       4.053   0.450   1.204  0.00  0.00    +0.098 C 
BRANCH  19  20
ATOM     20  C   UNL     1       3.605   0.688  -0.240  0.00  0.00    +0.016 C 
BRANCH  20  21
ATOM     21  N   UNL     1       2.147   0.860  -0.278  0.00  0.00    +0.387 N 
ATOM     22  C   UNL     1       1.676   0.924  -1.685  0.00  0.00    -0.078 C 
ATOM     23  C   UNL     1       0.179   0.538  -1.576  0.00  0.00    -0.020 C 
ATOM     24  C   UNL     1       0.182  -0.552  -0.480  0.00  0.00    -0.020 C 
ATOM     25  C   UNL     1       1.478  -0.317   0.318  0.00  0.00    -0.078 C 
ATOM     26  H   UNL     1       1.882   1.699   0.217  0.00  0.00    -0.081 HD
ENDBRANCH  20  21
BRANCH  20  29
ATOM     27  C   UNL     1       5.637   3.319  -1.830  0.00  0.00    +0.041 A 
ATOM     28  C   UNL     1       5.355   1.958  -1.573  0.00  0.00    +0.043 A 
ATOM     29  C   UNL     1       4.272   1.929  -0.775  0.00  0.00    +0.093 A 
ATOM     30  O   UNL     1       3.886   3.193  -0.536  0.00  0.00    -0.469 OA
ATOM     31  C   UNL     1       4.711   4.040  -1.173  0.00  0.00    +0.195 A 
ENDBRANCH  20  29
ENDBRANCH  19  20
ENDBRANCH   1  19
TORSDOF 6
