REMARK  Name = ZINC11898445
REMARK  9 active torsions:
REMARK  status: ('A' for Active; 'I' for Inactive)
REMARK    1  A    between atoms: C_1  and  C_2
REMARK    2  A    between atoms: C_2  and  C_3
REMARK    3  A    between atoms: C_8  and  N_9
REMARK    4  A    between atoms: C_10  and  C_12
REMARK    5  A    between atoms: N_14  and  C_15
REMARK    6  A    between atoms: C_15  and  C_16
REMARK    7  A    between atoms: C_16  and  C_18
REMARK    8  A    between atoms: C_16  and  N_62
REMARK    9  A    between atoms: N_22  and  C_23
REMARK                            x       y       z     vdW  Elec       q    Type
REMARK                         _______ _______ _______ _____ _____    ______ ____
ROOT
ATOM      1  C   UNL     1       4.809   3.901   0.285  0.00  0.00    -0.003 C 
ENDROOT
BRANCH   1  11
ATOM      2  C   UNL     1       2.529   3.914  -0.534  0.00  0.00    -0.073 C 
ATOM      3  C   UNL     1       1.387   2.966  -0.903  0.00  0.00    +0.017 C 
ATOM      4  C   UNL     1       0.935   2.206   0.318  0.00  0.00    -0.048 A 
ATOM      5  C   UNL     1      -0.296   1.569   0.281  0.00  0.00    +0.004 A 
ATOM      6  C   UNL     1      -0.749   0.864   1.378  0.00  0.00    +0.000 A 
ATOM      7  C   UNL     1       0.035   0.780   2.514  0.00  0.00    +0.000 A 
ATOM      8  C   UNL     1       1.260   1.414   2.551  0.00  0.00    +0.002 A 
ATOM      9  C   UNL     1       1.713   2.130   1.452  0.00  0.00    -0.061 A 
ATOM     10  C   UNL     1       3.055   2.809   1.543  0.00  0.00    -0.042 C 
ATOM     11  N   UNL     1       3.548   3.131   0.194  0.00  0.00    +0.389 N 
ATOM     12  H   UNL     1       3.726   2.258  -0.316  0.00  0.00    -0.080 HD
ENDBRANCH   1  11
BRANCH   1  13
ATOM     13  C   UNL     1       4.570   5.216   0.981  0.00  0.00    +0.006 A 
ATOM     14  C   UNL     1       3.404   5.623   1.524  0.00  0.00    +0.021 A 
ATOM     15  C   UNL     1       3.617   6.905   2.067  0.00  0.00    +0.019 A 
ATOM     16  C   UNL     1       4.904   7.233   1.836  0.00  0.00    +0.085 A 
ATOM     17  N   UNL     1       5.496   6.198   1.175  0.00  0.00    -0.355 N 
ATOM     18  C   UNL     1       6.894   6.151   0.741  0.00  0.00    +0.148 C 
ENDBRANCH   1  13
BRANCH   1  19
ATOM     19  C   UNL     1       5.836   3.087   1.075  0.00  0.00    +0.095 C 
BRANCH  19  22
ATOM     20  C   UNL     1       6.814   0.856   1.007  0.00  0.00    +0.299 C 
ATOM     21  O   UNL     1       7.365   1.097   2.061  0.00  0.00    -0.265 OA
ATOM     22  N   UNL     1       6.027   1.785   0.430  0.00  0.00    -0.309 N 
ATOM     23  H   UNL     1       5.587   1.592  -0.412  0.00  0.00    +0.149 HD
BRANCH  20  25
ATOM     24  N   UNL     1       7.796  -1.400   0.927  0.00  0.00    -0.278 N 
ATOM     25  C   UNL     1       7.009  -0.471   0.350  0.00  0.00    +0.303 C 
ATOM     26  O   UNL     1       6.458  -0.713  -0.704  0.00  0.00    -0.265 OA
ATOM     27  H   UNL     1       8.198  -1.226   1.793  0.00  0.00    +0.155 HD
BRANCH  24  33
ATOM     28  C   UNL     1       9.193  -3.332   0.546  0.00  0.00    -0.026 A 
ATOM     29  C   UNL     1       9.425  -4.532  -0.095  0.00  0.00    +0.005 A 
ATOM     30  C   UNL     1       8.503  -5.022  -1.003  0.00  0.00    +0.000 A 
ATOM     31  C   UNL     1       7.347  -4.311  -1.271  0.00  0.00    +0.002 A 
ATOM     32  C   UNL     1       7.107  -3.112  -0.629  0.00  0.00    +0.023 A 
ATOM     33  C   UNL     1       8.034  -2.615   0.280  0.00  0.00    +0.037 A 
BRANCH  28  35
ATOM     34  C   UNL     1       9.790  -3.216   2.951  0.00  0.00    +0.009 C 
ATOM     35  C   UNL     1      10.198  -2.800   1.536  0.00  0.00    +0.033 C 
ENDBRANCH  28  35
ENDBRANCH  24  33
ENDBRANCH  20  25
ENDBRANCH  19  22
ENDBRANCH   1  19
TORSDOF 7
