REMARK  Name = ZINC65750137
REMARK  3 active torsions:
REMARK  status: ('A' for Active; 'I' for Inactive)
REMARK    1  A    between atoms: C_1  and  C_2
REMARK    2  A    between atoms: C_4  and  C_7
REMARK    3  A    between atoms: C_7  and  N_8
REMARK                            x       y       z     vdW  Elec       q    Type
REMARK                         _______ _______ _______ _____ _____    ______ ____
ROOT
ATOM      1  N   UNL     1       1.424  -3.694  -1.928  0.00  0.00    -0.321 N 
ATOM      2  C   UNL     1       1.688  -4.784  -2.738  0.00  0.00    +0.131 A 
ATOM      3  C   UNL     1       3.024  -5.096  -3.114  0.00  0.00    +0.051 A 
ATOM      4  C   UNL     1       4.262  -4.400  -2.760  0.00  0.00    -0.025 A 
ATOM      5  C   UNL     1       5.410  -4.907  -3.253  0.00  0.00    -0.004 A 
ATOM      6  S   UNL     1       4.922  -6.321  -4.205  0.00  0.00    -0.073 S 
ATOM      7  C   UNL     1       3.171  -6.229  -3.940  0.00  0.00    +0.114 A 
ATOM      8  N   UNL     1       2.129  -6.938  -4.329  0.00  0.00    -0.228 NA
ATOM      9  C   UNL     1       0.913  -6.599  -3.948  0.00  0.00    +0.224 A 
ATOM     10  N   UNL     1       0.701  -5.553  -3.168  0.00  0.00    -0.220 NA
ATOM     11  C   UNL     1       6.798  -4.383  -3.041  0.00  0.00    +0.043 C 
ATOM     12  C   UNL     1       6.698  -2.958  -2.479  0.00  0.00    +0.005 C 
ATOM     13  C   UNL     1       5.688  -2.954  -1.328  0.00  0.00    +0.005 C 
ATOM     14  C   UNL     1       4.275  -3.156  -1.876  0.00  0.00    +0.037 C 
ATOM     15  H   UNL     1       2.141  -3.089  -1.681  0.00  0.00    +0.148 HD
ENDROOT
BRANCH   1  16
ATOM     16  C   UNL     1       0.062  -3.453  -1.444  0.00  0.00    +0.180 C 
BRANCH  16  20
ATOM     17  C   UNL     1      -0.286   1.403   0.058  0.00  0.00    +0.069 C 
ATOM     18  C   UNL     1      -0.103  -0.093   0.087  0.00  0.00    +0.081 A 
ATOM     19  C   UNL     1      -0.170  -0.955  -1.022  0.00  0.00    +0.072 A 
ATOM     20  C   UNL     1       0.045  -2.212  -0.589  0.00  0.00    +0.154 A 
ATOM     21  O   UNL     1       0.241  -2.166   0.737  0.00  0.00    -0.358 OA
ATOM     22  N   UNL     1       0.148  -0.813   1.144  0.00  0.00    -0.083 NA
ENDBRANCH  16  20
ENDBRANCH   1  16
TORSDOF 2
