REMARK  Name = ZINC34706543
REMARK  5 active torsions:
REMARK  status: ('A' for Active; 'I' for Inactive)
REMARK    1  A    between atoms: C_1  and  C_2
REMARK    2  A    between atoms: C_2  and  C_3
REMARK    3  A    between atoms: C_3  and  C_5
REMARK    4  A    between atoms: C_3  and  C_11
REMARK    5  A    between atoms: C_29  and  C_32
REMARK                            x       y       z     vdW  Elec       q    Type
REMARK                         _______ _______ _______ _____ _____    ______ ____
ROOT
ATOM      1  C   UNL     1      -4.236   2.120   7.296  0.00  0.00    +0.223 C 
ATOM      2  O   UNL     1      -3.813   3.187   7.689  0.00  0.00    -0.275 OA
ATOM      3  N   UNL     1      -3.664   0.974   7.714  0.00  0.00    -0.298 N 
ATOM      4  C   UNL     1      -4.083  -0.319   7.153  0.00  0.00    +0.127 C 
ATOM      5  C   UNL     1      -2.846  -1.035   6.596  0.00  0.00    +0.127 C 
ATOM      6  N   UNL     1      -1.792  -1.016   7.620  0.00  0.00    -0.298 N 
ATOM      7  C   UNL     1      -1.373   0.277   8.181  0.00  0.00    +0.127 C 
ATOM      8  C   UNL     1      -2.606   0.994   8.733  0.00  0.00    +0.127 C 
ATOM      9  C   UNL     1      -1.208  -2.184   8.045  0.00  0.00    +0.206 A 
ATOM     10  N   UNL     1      -1.436  -2.590   9.267  0.00  0.00    -0.215 NA
ATOM     11  C   UNL     1      -0.897  -3.733   9.761  0.00  0.00    +0.078 A 
ATOM     12  C   UNL     1      -1.152  -4.151  11.068  0.00  0.00    +0.028 A 
ATOM     13  C   UNL     1      -0.588  -5.317  11.537  0.00  0.00    +0.002 A 
ATOM     14  C   UNL     1       0.234  -6.085  10.723  0.00  0.00    +0.001 A 
ATOM     15  C   UNL     1       0.501  -5.694   9.429  0.00  0.00    +0.014 A 
ATOM     16  C   UNL     1      -0.059  -4.518   8.936  0.00  0.00    +0.045 A 
ATOM     17  C   UNL     1       0.189  -4.052   7.567  0.00  0.00    +0.173 A 
ATOM     18  N   UNL     1      -0.417  -2.878   7.171  0.00  0.00    -0.246 N 
ATOM     19  C   UNL     1      -0.028  -2.686   5.870  0.00  0.00    +0.178 A 
ATOM     20  N   UNL     1       0.752  -3.700   5.545  0.00  0.00    -0.128 NA
ATOM     21  N   UNL     1       0.885  -4.496   6.548  0.00  0.00    -0.128 NA
ENDROOT
BRANCH  19  22
ATOM     22  C   UNL     1      -0.407  -1.562   5.001  0.00  0.00    +0.057 A 
ATOM     23  C   UNL     1      -0.431  -0.209   5.286  0.00  0.00    +0.019 A 
ATOM     24  C   UNL     1      -0.828   0.661   4.296  0.00  0.00    +0.008 A 
ATOM     25  C   UNL     1      -1.181   0.169   3.081  0.00  0.00    +0.046 A 
ATOM     26  S   UNL     1      -0.950  -1.587   3.300  0.00  0.00    -0.094 S 
ENDBRANCH  19  22
BRANCH   1  27
ATOM     27  C   UNL     1      -5.402   2.077   6.342  0.00  0.00    +0.105 C 
BRANCH  27  28
ATOM     28  C   UNL     1      -5.381   3.304   5.468  0.00  0.00    -0.036 A 
ATOM     29  C   UNL     1      -5.458   4.561   6.039  0.00  0.00    +0.004 A 
ATOM     30  C   UNL     1      -5.439   5.687   5.237  0.00  0.00    +0.000 A 
ATOM     31  C   UNL     1      -5.343   5.556   3.864  0.00  0.00    +0.000 A 
ATOM     32  C   UNL     1      -5.265   4.300   3.293  0.00  0.00    +0.000 A 
ATOM     33  C   UNL     1      -5.280   3.174   4.095  0.00  0.00    +0.004 A 
ENDBRANCH  27  28
BRANCH  27  35
ATOM     34  C   UNL     1      -7.883   1.836   6.174  0.00  0.00    +0.005 C 
ATOM     35  C   UNL     1      -6.709   2.038   7.135  0.00  0.00    +0.014 C 
ENDBRANCH  27  35
ENDBRANCH   1  27
TORSDOF 4
