REMARK  Name = ZINC22238347
REMARK  8 active torsions:
REMARK  status: ('A' for Active; 'I' for Inactive)
REMARK    1  A    between atoms: C_1  and  O_2
REMARK    2  A    between atoms: O_2  and  C_3
REMARK    3  A    between atoms: C_6  and  C_24
REMARK    4  A    between atoms: C_8  and  C_9
REMARK    5  A    between atoms: C_9  and  N_11
REMARK    6  A    between atoms: C_14  and  C_17
REMARK    7  A    between atoms: C_17  and  N_18
REMARK    8  A    between atoms: C_24  and  N_25
REMARK                            x       y       z     vdW  Elec       q    Type
REMARK                         _______ _______ _______ _____ _____    ______ ____
ROOT
ATOM      1  C   UNL     1       0.605  -0.606  -1.054  0.00  0.00    +0.132 A 
ATOM      2  C   UNL     1       1.173   0.160  -2.062  0.00  0.00    +0.047 A 
ATOM      3  C   UNL     1       1.785  -0.455  -3.136  0.00  0.00    +0.009 A 
ATOM      4  C   UNL     1       1.838  -1.836  -3.216  0.00  0.00    -0.029 A 
ATOM      5  C   UNL     1       1.279  -2.612  -2.222  0.00  0.00    +0.022 A 
ATOM      6  C   UNL     1       0.662  -2.003  -1.129  0.00  0.00    +0.081 A 
ENDROOT
BRANCH   1   8
ATOM      7  C   UNL     1      -0.017   1.425   0.010  0.00  0.00    +0.277 C 
ATOM      8  O   UNL     1       0.002  -0.004   0.002  0.00  0.00    -0.494 OA
ENDBRANCH   1   8
BRANCH   6   9
ATOM      9  C   UNL     1       0.066  -2.830  -0.057  0.00  0.00    +0.273 C 
ATOM     10  O   UNL     1      -0.477  -2.295   0.895  0.00  0.00    -0.268 OA
BRANCH   9  11
ATOM     11  N   UNL     1       0.121  -4.162  -0.131  0.00  0.00    -0.152 NA
ATOM     12  C   UNL     1      -0.415  -4.906   0.834  0.00  0.00    +0.163 A 
ATOM     13  N   UNL     1      -0.451  -6.263   0.934  0.00  0.00    -0.341 N 
ATOM     14  C   UNL     1      -1.056  -6.824   2.016  0.00  0.00    +0.008 A 
ATOM     15  C   UNL     1      -1.584  -5.995   2.923  0.00  0.00    +0.067 A 
ATOM     16  S   UNL     1      -1.206  -4.397   2.228  0.00  0.00    -0.061 S 
ATOM     17  H   UNL     1      -0.053  -6.820   0.247  0.00  0.00    +0.167 HD
BRANCH  14  18
ATOM     18  C   UNL     1      -1.130  -8.320   2.185  0.00  0.00    -0.024 C 
BRANCH  18  19
ATOM     19  N   UNL     1      -1.958  -8.894   1.115  0.00  0.00    +0.383 N 
ATOM     20  C   UNL     1      -3.337  -8.411   1.254  0.00  0.00    -0.078 C 
ATOM     21  C   UNL     1      -4.186  -8.940   0.096  0.00  0.00    -0.019 C 
ATOM     22  C   UNL     1      -4.174 -10.471   0.121  0.00  0.00    -0.004 C 
ATOM     23  C   UNL     1      -2.725 -10.963   0.050  0.00  0.00    -0.019 C 
ATOM     24  C   UNL     1      -1.931 -10.358   1.210  0.00  0.00    -0.078 C 
ATOM     25  H   UNL     1      -1.592  -8.609   0.219  0.00  0.00    -0.081 HD
ENDBRANCH  18  19
ENDBRANCH  14  18
ENDBRANCH   9  11
ENDBRANCH   6   9
BRANCH   4  26
ATOM     26  C   UNL     1       2.509  -2.495  -4.394  0.00  0.00    +0.152 C 
BRANCH  26  27
ATOM     27  N   UNL     1       3.928  -2.701  -4.094  0.00  0.00    -0.230 N 
ATOM     28  C   UNL     1       4.899  -1.809  -4.358  0.00  0.00    +0.254 C 
ATOM     29  O   UNL     1       4.741  -0.721  -4.874  0.00  0.00    -0.270 OA
ATOM     30  C   UNL     1       6.191  -2.374  -3.914  0.00  0.00    +0.049 A 
ATOM     31  C   UNL     1       7.501  -1.922  -3.928  0.00  0.00    +0.014 A 
ATOM     32  C   UNL     1       8.510  -2.724  -3.418  0.00  0.00    +0.001 A 
ATOM     33  C   UNL     1       8.219  -3.970  -2.896  0.00  0.00    +0.001 A 
ATOM     34  C   UNL     1       6.913  -4.435  -2.875  0.00  0.00    +0.014 A 
ATOM     35  C   UNL     1       5.894  -3.644  -3.381  0.00  0.00    +0.049 A 
ATOM     36  C   UNL     1       4.431  -3.807  -3.515  0.00  0.00    +0.254 C 
ATOM     37  O   UNL     1       3.790  -4.776  -3.162  0.00  0.00    -0.270 OA
ENDBRANCH  26  27
ENDBRANCH   4  26
TORSDOF 7
