REMARK  Name = ZINC33937370
REMARK  14 active torsions:
REMARK  status: ('A' for Active; 'I' for Inactive)
REMARK    1  A    between atoms: C_1  and  C_2
REMARK    2  A    between atoms: C_2  and  C_3
REMARK    3  A    between atoms: C_3  and  C_4
REMARK    4  A    between atoms: C_4  and  C_6
REMARK    5  A    between atoms: C_4  and  N_18
REMARK    6  A    between atoms: N_10  and  C_11
REMARK    7  A    between atoms: C_11  and  C_12
REMARK    8  A    between atoms: N_18  and  C_19
REMARK    9  A    between atoms: N_18  and  C_28
REMARK   10  A    between atoms: C_19  and  C_20
REMARK   11  A    between atoms: C_20  and  C_21
REMARK   12  A    between atoms: C_25  and  C_27
REMARK   13  A    between atoms: C_28  and  C_29
REMARK   14  A    between atoms: C_33  and  C_41
REMARK                            x       y       z     vdW  Elec       q    Type
REMARK                         _______ _______ _______ _____ _____    ______ ____
ROOT
ATOM      1  N   UNL     1      -0.687  -2.620  -1.299  0.00  0.00    +0.389 N 
ATOM      2  H   UNL     1      -1.187  -2.163  -2.047  0.00  0.00    -0.080 HD
ENDROOT
BRANCH   1   3
ATOM      3  C   UNL     1      -1.126  -2.070  -0.009  0.00  0.00    +0.003 C 
BRANCH   3   4
ATOM      4  C   UNL     1      -1.479  -0.615  -0.177  0.00  0.00    +0.138 A 
ATOM      5  N   UNL     1      -0.789   0.287  -0.832  0.00  0.00    -0.115 NA
ATOM      6  N   UNL     1      -1.417   1.409  -0.746  0.00  0.00    -0.023 NA
ATOM      7  N   UNL     1      -2.490   1.246  -0.053  0.00  0.00    -0.044 NA
ATOM      8  N   UNL     1      -2.566   0.010   0.311  0.00  0.00    -0.228 N 
BRANCH   8   9
ATOM      9  C   UNL     1      -3.634  -0.597   1.110  0.00  0.00    +0.178 C 
BRANCH   9  10
ATOM     10  C   UNL     1      -3.282  -0.494   2.595  0.00  0.00    +0.140 C 
ATOM     11  C   UNL     1      -4.440  -1.049   3.462  0.00  0.00    +0.035 C 
ATOM     12  C   UNL     1      -3.675  -1.450   4.753  0.00  0.00    +0.031 C 
ATOM     13  C   UNL     1      -2.312  -1.914   4.196  0.00  0.00    +0.160 C 
ATOM     14  O   UNL     1      -2.151  -1.326   2.899  0.00  0.00    -0.375 OA
ENDBRANCH   9  10
ENDBRANCH   8   9
ENDBRANCH   3   4
BRANCH   3  15
ATOM     15  C   UNL     1       0.003  -2.207   1.014  0.00  0.00    -0.008 C 
BRANCH  15  17
ATOM     16  C   UNL     1       1.298  -3.825   2.410  0.00  0.00    +0.004 C 
ATOM     17  C   UNL     1       0.271  -3.689   1.284  0.00  0.00    -0.005 C 
ENDBRANCH  15  17
ENDBRANCH   3  15
ENDBRANCH   1   3
BRANCH   1  18
ATOM     18  C   UNL     1      -0.960  -4.062  -1.335  0.00  0.00    -0.073 C 
BRANCH  18  19
ATOM     19  C   UNL     1      -2.472  -4.296  -1.305  0.00  0.00    +0.016 C 
BRANCH  19  20
ATOM     20  C   UNL     1      -2.751  -5.776  -1.250  0.00  0.00    -0.049 A 
ATOM     21  C   UNL     1      -2.891  -6.496  -2.422  0.00  0.00    +0.003 A 
ATOM     22  C   UNL     1      -3.147  -7.854  -2.372  0.00  0.00    +0.001 A 
ATOM     23  C   UNL     1      -3.262  -8.491  -1.151  0.00  0.00    +0.003 A 
ATOM     24  C   UNL     1      -3.121  -7.771   0.021  0.00  0.00    -0.050 A 
ATOM     25  C   UNL     1      -2.861  -6.414  -0.029  0.00  0.00    +0.007 A 
ATOM     26  C   UNL     1      -3.247  -8.466   1.352  0.00  0.00    +0.044 C 
ENDBRANCH  19  20
ENDBRANCH  18  19
ENDBRANCH   1  18
BRANCH   1  27
ATOM     27  C   UNL     1       0.755  -2.390  -1.463  0.00  0.00    -0.037 C 
BRANCH  27  28
ATOM     28  C   UNL     1       1.179  -2.825  -2.843  0.00  0.00    +0.001 A 
ATOM     29  C   UNL     1       1.253  -1.914  -3.845  0.00  0.00    +0.017 A 
ATOM     30  C   UNL     1       1.668  -2.369  -5.173  0.00  0.00    -0.001 A 
ATOM     31  C   UNL     1       1.764  -1.476  -6.246  0.00  0.00    +0.013 A 
ATOM     32  C   UNL     1       2.155  -1.931  -7.473  0.00  0.00    -0.050 A 
ATOM     33  C   UNL     1       2.458  -3.273  -7.665  0.00  0.00    +0.005 A 
ATOM     34  C   UNL     1       2.370  -4.170  -6.623  0.00  0.00    +0.026 A 
ATOM     35  C   UNL     1       1.975  -3.729  -5.364  0.00  0.00    +0.049 A 
ATOM     36  N   UNL     1       1.880  -4.604  -4.303  0.00  0.00    -0.322 N 
ATOM     37  H   UNL     1       2.091  -5.542  -4.436  0.00  0.00    +0.169 HD
ATOM     38  C   UNL     1       1.502  -4.177  -3.085  0.00  0.00    +0.251 A 
ATOM     39  O   UNL     1       1.434  -4.978  -2.169  0.00  0.00    -0.268 OA
ATOM     40  C   UNL     1       2.258  -0.970  -8.629  0.00  0.00    +0.044 C 
ENDBRANCH  27  28
ENDBRANCH   1  27
TORSDOF 11
