REMARK  Name = ZINC10339256
REMARK  7 active torsions:
REMARK  status: ('A' for Active; 'I' for Inactive)
REMARK    1  A    between atoms: C_1  and  C_2
REMARK    2  A    between atoms: C_2  and  O_3
REMARK    3  A    between atoms: O_3  and  C_4
REMARK    4  A    between atoms: C_4  and  C_6
REMARK    5  A    between atoms: C_7  and  N_35
REMARK    6  A    between atoms: N_18  and  C_21
REMARK    7  A    between atoms: C_25  and  C_28
REMARK                            x       y       z     vdW  Elec       q    Type
REMARK                         _______ _______ _______ _____ _____    ______ ____
ROOT
ATOM      1  C   UNL     1      -4.263   2.130   2.427  0.00  0.00    +0.117 C 
ATOM      2  C   UNL     1      -4.864   2.023   1.212  0.00  0.00    +0.195 C 
ATOM      3  O   UNL     1      -4.148   2.014   0.079  0.00  0.00    -0.446 OA
ATOM      4  C   UNL     1      -2.844   1.681   0.107  0.00  0.00    +0.116 C 
ATOM      5  C   UNL     1      -2.122   1.771   1.240  0.00  0.00    +0.057 C 
ATOM      6  C   UNL     1      -2.769   2.233   2.520  0.00  0.00    +0.141 C 
ATOM      7  C   UNL     1      -2.346   3.630   2.854  0.00  0.00    -0.002 A 
ATOM      8  C   UNL     1      -2.520   4.822   2.184  0.00  0.00    +0.007 A 
ATOM      9  C   UNL     1      -1.995   5.963   2.781  0.00  0.00    +0.000 A 
ATOM     10  C   UNL     1      -1.330   5.902   3.988  0.00  0.00    +0.002 A 
ATOM     11  C   UNL     1      -1.151   4.707   4.668  0.00  0.00    +0.024 A 
ATOM     12  C   UNL     1      -1.673   3.554   4.080  0.00  0.00    +0.041 A 
ATOM     13  N   UNL     1      -1.641   2.246   4.530  0.00  0.00    -0.273 N 
ATOM     14  C   UNL     1      -2.260   1.402   3.679  0.00  0.00    +0.240 C 
ATOM     15  O   UNL     1      -2.387   0.203   3.817  0.00  0.00    -0.274 OA
ATOM     16  C   UNL     1      -1.009   1.827   5.784  0.00  0.00    +0.138 C 
ATOM     17  C   UNL     1      -0.751   1.441   1.266  0.00  0.00    +0.165 C 
ATOM     18  O   UNL     1      -0.134   1.523   2.309  0.00  0.00    -0.292 OA
ATOM     19  C   UNL     1      -0.038   0.990   0.020  0.00  0.00    +0.088 C 
ATOM     20  C   UNL     1      -0.731   1.605  -1.201  0.00  0.00    +0.034 C 
ATOM     21  C   UNL     1      -2.206   1.202  -1.176  0.00  0.00    +0.083 C 
ENDROOT
BRANCH  20  22
ATOM     22  C   UNL     1      -0.083   1.095  -2.462  0.00  0.00    -0.042 A 
ATOM     23  C   UNL     1      -0.069  -0.262  -2.731  0.00  0.00    +0.004 A 
ATOM     24  C   UNL     1       0.521  -0.731  -3.890  0.00  0.00    +0.002 A 
ATOM     25  C   UNL     1       1.106   0.155  -4.775  0.00  0.00    +0.020 A 
ATOM     26  C   UNL     1       1.097   1.511  -4.504  0.00  0.00    +0.041 A 
ATOM     27  C   UNL     1       0.502   1.981  -3.346  0.00  0.00    +0.024 A 
ATOM     28 CL   UNL     1       1.833   2.624  -5.615  0.00  0.00    -0.084 Cl
ENDBRANCH  20  22
BRANCH   2  29
ATOM     29  N   UNL     1      -6.228   1.923   1.144  0.00  0.00    -0.329 N 
ATOM     30  H   UNL     1      -6.762   2.018   1.949  0.00  0.00    +0.145 HD
ATOM     31  H   UNL     1      -6.661   1.758   0.292  0.00  0.00    +0.145 HD
ENDBRANCH   2  29
BRANCH   1  32
ATOM     32  C   UNL     1      -5.041   2.144   3.595  0.00  0.00    +0.342 C 
ATOM     33  O   UNL     1      -5.273   3.198   4.160  0.00  0.00    -0.245 OA
BRANCH  32  34
ATOM     34  O   UNL     1      -5.532   0.988   4.093  0.00  0.00    -0.462 OA
BRANCH  34  36
ATOM     35  C   UNL     1      -6.780  -0.323   5.694  0.00  0.00    +0.048 C 
ATOM     36  C   UNL     1      -6.315   1.076   5.285  0.00  0.00    +0.229 C 
ENDBRANCH  34  36
ENDBRANCH  32  34
ENDBRANCH   1  32
TORSDOF 5
