REMARK  Name = ZINC39711185
REMARK  12 active torsions:
REMARK  status: ('A' for Active; 'I' for Inactive)
REMARK    1  A    between atoms: C_1  and  C_2
REMARK    2  A    between atoms: C_5  and  C_40
REMARK    3  A    between atoms: C_6  and  N_8
REMARK    4  A    between atoms: N_11  and  C_14
REMARK    5  A    between atoms: C_14  and  C_16
REMARK    6  A    between atoms: C_14  and  C_30
REMARK    7  A    between atoms: C_21  and  C_29
REMARK    8  A    between atoms: C_22  and  C_28
REMARK    9  A    between atoms: N_35  and  C_36
REMARK   10  A    between atoms: C_36  and  C_37
REMARK   11  A    between atoms: C_36  and  C_38
REMARK   12  A    between atoms: C_36  and  C_39
REMARK                            x       y       z     vdW  Elec       q    Type
REMARK                         _______ _______ _______ _____ _____    ______ ____
ROOT
ATOM      1  C   UNL     1       0.475  -7.045   3.940  0.00  0.00    -0.009 C 
ENDROOT
BRANCH   1   2
ATOM      2  C   UNL     1       1.689  -6.960   4.868  0.00  0.00    +0.088 C 
ATOM      3  C   UNL     1       2.936  -7.054   4.011  0.00  0.00    -0.006 C 
ATOM      4  C   UNL     1       3.822  -6.021   4.080  0.00  0.00    -0.007 A 
ATOM      5  C   UNL     1       5.052  -6.031   3.288  0.00  0.00    +0.013 A 
ATOM      6  C   UNL     1       5.906  -4.980   3.389  0.00  0.00    -0.047 A 
ATOM      7  C   UNL     1       5.632  -3.900   4.230  0.00  0.00    -0.046 A 
ATOM      8  C   UNL     1       4.508  -3.830   4.990  0.00  0.00    +0.027 A 
ATOM      9  C   UNL     1       3.559  -4.868   4.959  0.00  0.00    +0.041 A 
ATOM     10  N   UNL     1       2.460  -4.788   5.710  0.00  0.00    -0.285 N 
ATOM     11  C   UNL     1       1.529  -5.727   5.728  0.00  0.00    +0.223 C 
ATOM     12  O   UNL     1       0.547  -5.598   6.434  0.00  0.00    -0.275 OA
ATOM     13  C   UNL     1       6.622  -2.766   4.296  0.00  0.00    +0.044 C 
ATOM     14  C   UNL     1       7.175  -4.979   2.578  0.00  0.00    +0.044 C 
ATOM     15  H   UNL     1       2.338  -4.005   6.269  0.00  0.00    +0.155 HD
ENDBRANCH   1   2
BRANCH   1  19
ATOM     16  N   UNL     1       0.523  -4.552   0.580  0.00  0.00    -0.333 N 
ATOM     17  C   UNL     1       1.754  -4.616   1.382  0.00  0.00    +0.086 C 
ATOM     18  C   UNL     1       1.707  -5.882   2.244  0.00  0.00    -0.059 C 
ATOM     19  N   UNL     1       0.469  -5.889   3.034  0.00  0.00    +0.387 N 
ATOM     20  C   UNL     1      -0.693  -5.976   2.140  0.00  0.00    -0.059 C 
ATOM     21  C   UNL     1      -0.765  -4.710   1.274  0.00  0.00    +0.086 C 
ATOM     22  H   UNL     1       0.412  -5.040   3.576  0.00  0.00    -0.081 HD
BRANCH  16  28
ATOM     23  C   UNL     1       0.577  -1.442  -3.225  0.00  0.00    +0.044 C 
ATOM     24  C   UNL     1       0.602  -2.844  -2.673  0.00  0.00    -0.049 A 
ATOM     25  C   UNL     1       0.677  -3.924  -3.533  0.00  0.00    +0.004 A 
ATOM     26  C   UNL     1       0.700  -5.212  -3.030  0.00  0.00    +0.005 A 
ATOM     27  C   UNL     1       0.649  -5.424  -1.667  0.00  0.00    -0.029 A 
ATOM     28  C   UNL     1       0.575  -4.341  -0.800  0.00  0.00    +0.033 A 
ATOM     29  C   UNL     1       0.557  -3.049  -1.308  0.00  0.00    +0.026 A 
ATOM     30  C   UNL     1       0.674  -6.828  -1.120  0.00  0.00    +0.045 C 
ENDBRANCH  16  28
ENDBRANCH   1  19
BRANCH   1  31
ATOM     31  C   UNL     1      -0.806  -7.045   4.776  0.00  0.00    +0.205 C 
ATOM     32  N   UNL     1      -0.851  -5.862   5.646  0.00  0.00    -0.152 NA
ATOM     33  N   UNL     1      -0.878  -6.232   6.822  0.00  0.00    -0.070 NA
ATOM     34  N   UNL     1      -0.859  -7.620   6.954  0.00  0.00    -0.179 N 
ATOM     35  N   UNL     1      -0.816  -8.193   5.707  0.00  0.00    -0.183 NA
ATOM     36  H   UNL     1      -0.875  -8.104   7.794  0.00  0.00    +0.191 HD
BRANCH  35  37
ATOM     37  C   UNL     1       0.393  -9.012   5.544  0.00  0.00    +0.035 C 
ATOM     38  C   UNL     1       1.464  -8.542   6.531  0.00  0.00    +0.029 C 
ATOM     39  C   UNL     1       0.056 -10.479   5.818  0.00  0.00    +0.029 C 
ATOM     40  C   UNL     1       0.918  -8.868   4.115  0.00  0.00    +0.029 C 
ENDBRANCH  35  37
ENDBRANCH   1  31
TORSDOF 5
