REMARK  Name = ZINC09969313
REMARK  4 active torsions:
REMARK  status: ('A' for Active; 'I' for Inactive)
REMARK    1  A    between atoms: C_4  and  S_7
REMARK    2  A    between atoms: S_7  and  C_10
REMARK    3  A    between atoms: C_18  and  N_19
REMARK    4  A    between atoms: N_22  and  C_25
REMARK                            x       y       z     vdW  Elec       q    Type
REMARK                         _______ _______ _______ _____ _____    ______ ____
ROOT
ATOM      1  C   UNL     1       0.280  -2.529   2.375  0.00  0.00    +0.131 A 
ATOM      2  C   UNL     1       0.266  -3.917   2.408  0.00  0.00    +0.112 A 
ATOM      3  C   UNL     1       1.124  -4.072   0.263  0.00  0.00    +0.052 A 
ATOM      4  C   UNL     1       1.558  -4.857  -0.817  0.00  0.00    +0.075 A 
ATOM      5  C   UNL     1       2.011  -4.260  -1.960  0.00  0.00    +0.164 A 
ATOM      6  C   UNL     1       2.046  -2.862  -2.071  0.00  0.00    +0.163 A 
ATOM      7  C   UNL     1       1.632  -2.073  -1.035  0.00  0.00    +0.061 A 
ATOM      8  C   UNL     1       1.164  -2.661   0.148  0.00  0.00    +0.025 A 
ATOM      9  C   UNL     1       0.726  -1.873   1.238  0.00  0.00    +0.066 A 
ATOM     10  O   UNL     1       2.491  -2.268  -3.213  0.00  0.00    -0.485 OA
ATOM     11  C   UNL     1       3.256  -3.084  -4.107  0.00  0.00    +0.270 C 
ATOM     12  C   UNL     1       2.529  -4.425  -4.276  0.00  0.00    +0.270 C 
ATOM     13  O   UNL     1       2.429  -5.046  -2.990  0.00  0.00    -0.485 OA
ATOM     14  N   UNL     1       0.674  -4.717   1.396  0.00  0.00    -0.359 N 
ATOM     15  H   UNL     1       0.650  -5.741   1.467  0.00  0.00    +0.165 HD
ENDROOT
BRANCH   9  16
ATOM     16  N   UNL     1       0.746  -0.488   1.173  0.00  0.00    -0.325 N 
ATOM     17  C   UNL     1      -0.143   0.003   0.112  0.00  0.00    +0.124 C 
ATOM     18  C   UNL     1      -0.153   1.534   0.125  0.00  0.00    +0.124 C 
ATOM     19  N   UNL     1       1.216   2.031  -0.067  0.00  0.00    -0.327 N 
ATOM     20  C   UNL     1       2.106   1.540   0.995  0.00  0.00    +0.124 C 
ATOM     21  C   UNL     1       2.116   0.010   0.981  0.00  0.00    +0.124 C 
BRANCH  19  22
ATOM     22  C   UNL     1       1.237   3.428  -0.132  0.00  0.00    +0.030 A 
ATOM     23  C   UNL     1       0.054   4.147  -0.024  0.00  0.00    +0.026 A 
ATOM     24  C   UNL     1       0.078   5.527  -0.084  0.00  0.00    +0.040 A 
ATOM     25  C   UNL     1       1.278   6.192  -0.263  0.00  0.00    +0.124 A 
ATOM     26  C   UNL     1       2.459   5.477  -0.376  0.00  0.00    +0.040 A 
ATOM     27  C   UNL     1       2.440   4.098  -0.312  0.00  0.00    +0.026 A 
ATOM     28  F   UNL     1       1.299   7.542  -0.326  0.00  0.00    -0.205 F 
ENDBRANCH  19  22
ENDBRANCH   9  16
BRANCH   1  29
ATOM     29  S   UNL     1      -0.273  -1.605   3.770  0.00  0.00    +0.028 S 
ATOM     30  O   UNL     1      -1.185  -0.633   3.278  0.00  0.00    -0.164 OA
ATOM     31  O   UNL     1      -0.633  -2.552   4.767  0.00  0.00    -0.164 OA
BRANCH  29  35
ATOM     32  C   UNL     1       3.299   0.667   5.373  0.00  0.00    +0.000 A 
ATOM     33  C   UNL     1       2.488   1.242   4.412  0.00  0.00    +0.002 A 
ATOM     34  C   UNL     1       1.397   0.548   3.923  0.00  0.00    +0.027 A 
ATOM     35  C   UNL     1       1.117  -0.721   4.394  0.00  0.00    +0.094 A 
ATOM     36  C   UNL     1       1.925  -1.294   5.358  0.00  0.00    +0.027 A 
ATOM     37  C   UNL     1       3.019  -0.602   5.844  0.00  0.00    +0.002 A 
ENDBRANCH  29  35
ENDBRANCH   1  29
TORSDOF 4
