REMARK  Name = ZINC08747332
REMARK  5 active torsions:
REMARK  status: ('A' for Active; 'I' for Inactive)
REMARK    1  A    between atoms: N_7  and  C_20
REMARK    2  A    between atoms: C_9  and  C_12
REMARK    3  A    between atoms: C_20  and  C_21
REMARK    4  A    between atoms: N_23  and  C_24
REMARK    5  A    between atoms: C_25  and  C_32
REMARK                            x       y       z     vdW  Elec       q    Type
REMARK                         _______ _______ _______ _____ _____    ______ ____
ROOT
ATOM      1  C   UNL     1      -2.057  -0.235  -8.915  0.00  0.00    +0.002 A 
ATOM      2  C   UNL     1      -0.805  -0.521  -9.429  0.00  0.00    +0.004 A 
ATOM      3  C   UNL     1       0.188   0.440  -9.406  0.00  0.00    +0.047 A 
ATOM      4  C   UNL     1      -0.067   1.694  -8.868  0.00  0.00    +0.143 A 
ATOM      5  C   UNL     1      -1.325   1.985  -8.354  0.00  0.00    +0.073 A 
ATOM      6  C   UNL     1      -2.318   1.011  -8.380  0.00  0.00    +0.027 A 
ATOM      7  N   UNL     1      -1.628   3.236  -7.808  0.00  0.00    -0.314 N 
ATOM      8  C   UNL     1      -0.422   3.977  -7.421  0.00  0.00    +0.160 C 
ATOM      9  C   UNL     1       0.555   3.973  -8.603  0.00  0.00    +0.276 C 
ATOM     10  O   UNL     1       0.935   2.616  -8.855  0.00  0.00    -0.476 OA
ENDROOT
BRANCH   9  11
ATOM     11  C   UNL     1       1.776   4.788  -8.260  0.00  0.00    +0.258 C 
ATOM     12  O   UNL     1       2.841   4.238  -8.077  0.00  0.00    -0.271 OA
ATOM     13  N   UNL     1       1.683   6.129  -8.157  0.00  0.00    -0.298 N 
ATOM     14  C   UNL     1       0.426   6.819  -8.477  0.00  0.00    +0.108 C 
ATOM     15  C   UNL     1       0.033   7.697  -7.279  0.00  0.00    +0.019 C 
ATOM     16  C   UNL     1       1.194   8.633  -6.937  0.00  0.00    +0.003 C 
ATOM     17  C   UNL     1       2.420   7.806  -6.545  0.00  0.00    +0.019 C 
ATOM     18  C   UNL     1       2.839   6.928  -7.728  0.00  0.00    +0.108 C 
ENDBRANCH   9  11
BRANCH   7  19
ATOM     19  C   UNL     1      -2.553   3.105  -6.674  0.00  0.00    +0.201 C 
BRANCH  19  20
ATOM     20  C   UNL     1      -1.885   2.328  -5.569  0.00  0.00    +0.235 C 
ATOM     21  O   UNL     1      -0.791   1.835  -5.749  0.00  0.00    -0.274 OA
ATOM     22  N   UNL     1      -2.504   2.179  -4.381  0.00  0.00    -0.278 N 
ATOM     23  H   UNL     1      -3.378   2.573  -4.237  0.00  0.00    +0.155 HD
BRANCH  22  24
ATOM     24  C   UNL     1      -1.889   1.464  -3.363  0.00  0.00    +0.090 A 
ATOM     25  C   UNL     1      -2.359   1.206  -2.088  0.00  0.00    +0.084 A 
ATOM     26  C   UNL     1      -1.508   0.418  -1.198  0.00  0.00    -0.018 A 
ATOM     27  C   UNL     1      -0.336   0.025  -1.729  0.00  0.00    -0.004 A 
ATOM     28  S   UNL     1      -0.347   0.677  -3.381  0.00  0.00    -0.077 S 
ATOM     29  C   UNL     1       0.484  -0.776  -0.754  0.00  0.00    +0.043 C 
ATOM     30  C   UNL     1      -0.142  -0.476   0.625  0.00  0.00    +0.010 C 
ATOM     31  C   UNL     1      -1.591  -0.109   0.236  0.00  0.00    +0.037 C 
BRANCH  25  32
ATOM     32  C   UNL     1      -3.634   1.693  -1.655  0.00  0.00    +0.102 C 
ATOM     33  N   UNL     1      -4.646   2.080  -1.312  0.00  0.00    -0.191 NA
ENDBRANCH  25  32
ENDBRANCH  22  24
ENDBRANCH  19  20
ENDBRANCH   7  19
TORSDOF 5
