REMARK  Name = ZINC19655278
REMARK  6 active torsions:
REMARK  status: ('A' for Active; 'I' for Inactive)
REMARK    1  A    between atoms: C_1  and  C_2
REMARK    2  A    between atoms: C_5  and  C_8
REMARK    3  A    between atoms: C_5  and  N_19
REMARK    4  A    between atoms: C_8  and  N_9
REMARK    5  A    between atoms: C_10  and  C_12
REMARK    6  A    between atoms: C_12  and  C_13
REMARK                            x       y       z     vdW  Elec       q    Type
REMARK                         _______ _______ _______ _____ _____    ______ ____
ROOT
ATOM      1  C   UNL     1      -1.878   3.935   2.249  0.00  0.00    +0.007 C 
ATOM      2  C   UNL     1      -1.042   3.374   1.096  0.00  0.00    -0.014 C 
ATOM      3  C   UNL     1      -0.875   1.863   1.275  0.00  0.00    +0.002 C 
ATOM      4  C   UNL     1      -0.040   1.303   0.122  0.00  0.00    -0.010 C 
ATOM      5  C   UNL     1      -0.748   1.584  -1.204  0.00  0.00    -0.050 C 
ATOM      6  C   UNL     1      -0.915   3.095  -1.383  0.00  0.00    -0.010 C 
ATOM      7  C   UNL     1      -1.750   3.655  -0.231  0.00  0.00    +0.002 C 
ENDROOT
BRANCH   5   8
ATOM      8  N   UNL     1      -2.070   0.943  -1.200  0.00  0.00    +0.384 N 
ATOM      9  C   UNL     1      -1.951  -0.506  -0.990  0.00  0.00    -0.078 C 
ATOM     10  C   UNL     1      -3.346  -1.118  -0.846  0.00  0.00    -0.019 C 
ATOM     11  C   UNL     1      -4.157  -0.832  -2.113  0.00  0.00    -0.004 C 
ATOM     12  C   UNL     1      -4.224   0.682  -2.336  0.00  0.00    -0.019 C 
ATOM     13  C   UNL     1      -2.804   1.242  -2.436  0.00  0.00    -0.078 C 
ATOM     14  H   UNL     1      -2.646   1.357  -0.360  0.00  0.00    -0.081 HD
ENDBRANCH   5   8
BRANCH   5  15
ATOM     15  C   UNL     1       0.087   1.024  -2.357  0.00  0.00    +0.092 C 
BRANCH  15  16
ATOM     16  N   UNL     1       1.396   1.681  -2.377  0.00  0.00    -0.316 N 
ATOM     17  C   UNL     1       2.274   1.405  -3.361  0.00  0.00    +0.219 C 
ATOM     18  O   UNL     1       1.981   0.612  -4.231  0.00  0.00    -0.275 OA
ATOM     19  H   UNL     1       1.662   2.400  -1.588  0.00  0.00    +0.149 HD
BRANCH  17  20
ATOM     20  C   UNL     1       3.621   2.082  -3.381  0.00  0.00    +0.160 C 
BRANCH  20  21
ATOM     21  C   UNL     1       4.406   1.603  -4.576  0.00  0.00    +0.112 A 
ATOM     22  N   UNL     1       4.462   2.085  -5.801  0.00  0.00    -0.144 NA
ATOM     23  N   UNL     1       5.178   1.562  -6.697  0.00  0.00    -0.126 NA
ATOM     24  C   UNL     1       5.922   0.489  -6.460  0.00  0.00    +0.179 A 
ATOM     25  S   UNL     1       5.534   0.222  -4.732  0.00  0.00    -0.035 S 
ATOM     26  N   UNL     1       6.763  -0.218  -7.306  0.00  0.00    -0.336 N 
ATOM     27  H   UNL     1       7.308  -1.097  -6.930  0.00  0.00    +0.144 HD
ATOM     28  H   UNL     1       6.884   0.098  -8.352  0.00  0.00    +0.144 HD
ENDBRANCH  20  21
ENDBRANCH  17  20
ENDBRANCH  15  16
ENDBRANCH   5  15
TORSDOF 5
