REMARK  Name = ZINC19930918
REMARK  5 active torsions:
REMARK  status: ('A' for Active; 'I' for Inactive)
REMARK    1  A    between atoms: C_4  and  C_7
REMARK    2  A    between atoms: C_7  and  N_8
REMARK    3  A    between atoms: C_12  and  C_13
REMARK    4  A    between atoms: C_13  and  C_15
REMARK    5  A    between atoms: C_13  and  N_22
REMARK                            x       y       z     vdW  Elec       q    Type
REMARK                         _______ _______ _______ _____ _____    ______ ____
ROOT
ATOM      1  N   UNL     1       3.710   3.864   2.209  0.00  0.00    -0.330 N 
ATOM      2  C   UNL     1       3.679   4.567   3.383  0.00  0.00    +0.105 A 
ATOM      3  C   UNL     1       2.724   5.506   3.250  0.00  0.00    +0.102 A 
ATOM      4  N   UNL     1       2.188   5.383   2.026  0.00  0.00    -0.348 N 
ATOM      5  C   UNL     1       2.770   4.397   1.399  0.00  0.00    +0.109 A 
ATOM      6  H   UNL     1       1.385   6.063   1.706  0.00  0.00    +0.166 HD
ENDROOT
BRANCH   1   7
ATOM      7  C   UNL     1       4.596   2.741   1.891  0.00  0.00    +0.158 C 
BRANCH   7  11
ATOM      8  C   UNL     1       8.029   4.185  -0.200  0.00  0.00    +0.000 A 
ATOM      9  C   UNL     1       8.043   4.106   1.180  0.00  0.00    +0.000 A 
ATOM     10  C   UNL     1       6.932   3.639   1.857  0.00  0.00    +0.005 A 
ATOM     11  C   UNL     1       5.807   3.251   1.154  0.00  0.00    -0.028 A 
ATOM     12  C   UNL     1       5.795   3.325  -0.227  0.00  0.00    +0.005 A 
ATOM     13  C   UNL     1       6.904   3.796  -0.903  0.00  0.00    +0.000 A 
ENDBRANCH   7  11
ENDBRANCH   1   7
BRANCH   5  14
ATOM     14  C   UNL     1       2.452   3.936   0.000  0.00  0.00    +0.146 C 
BRANCH  14  15
ATOM     15  C   UNL     1       1.157   3.166   0.008  0.00  0.00    -0.022 A 
ATOM     16  C   UNL     1       1.175   1.783   0.000  0.00  0.00    +0.005 A 
ATOM     17  C   UNL     1      -0.013   1.076   0.008  0.00  0.00    +0.001 A 
ATOM     18  C   UNL     1      -1.219   1.751   0.017  0.00  0.00    +0.015 A 
ATOM     19  C   UNL     1      -1.238   3.133   0.029  0.00  0.00    +0.018 A 
ATOM     20  C   UNL     1      -0.049   3.841   0.022  0.00  0.00    +0.021 A 
ATOM     21 BR   UNL     1      -2.888   4.057   0.049  0.00  0.00    -0.050 Br
ENDBRANCH  14  15
BRANCH  14  22
ATOM     22  N   UNL     1       2.322   5.103  -0.883  0.00  0.00    -0.318 NA
ATOM     23  H   UNL     1       2.090   4.766  -1.904  0.00  0.00    +0.119 HD
ATOM     24  H   UNL     1       1.512   5.751  -0.517  0.00  0.00    +0.119 HD
ENDBRANCH  14  22
ENDBRANCH   5  14
TORSDOF 5
