REMARK  Name = ZINC20861755
REMARK  1 active torsions:
REMARK  status: ('A' for Active; 'I' for Inactive)
REMARK    1  A    between atoms: C_6  and  C_7
REMARK                            x       y       z     vdW  Elec       q    Type
REMARK                         _______ _______ _______ _____ _____    ______ ____
ROOT
ATOM      1  C   UNL     1      -1.194   3.743   0.034  0.00  0.00    +0.165 A 
ATOM      2  N   UNL     1      -1.192   2.379   0.021  0.00  0.00    -0.220 NA
ATOM      3  C   UNL     1      -0.021   1.708   0.011  0.00  0.00    +0.119 A 
ATOM      4  S   UNL     1       0.002  -0.004   0.002  0.00  0.00    -0.030 SA
ATOM      5  C   UNL     1       1.176   2.438   0.004  0.00  0.00    +0.052 A 
ATOM      6  C   UNL     1       1.120   3.816   0.013  0.00  0.00    +0.228 A 
ATOM      7  N   UNL     1      -0.073   4.429   0.028  0.00  0.00    -0.193 NA
ATOM      8  O   UNL     1       2.246   4.559   0.005  0.00  0.00    -0.437 OA
ATOM      9  C   UNL     1       3.425   4.012   0.388  0.00  0.00    +0.134 A 
ATOM     10  C   UNL     1       4.467   4.848   0.774  0.00  0.00    +0.049 A 
ATOM     11  C   UNL     1       5.677   4.313   1.166  0.00  0.00    +0.042 A 
ATOM     12  C   UNL     1       5.855   2.940   1.177  0.00  0.00    +0.124 A 
ATOM     13  C   UNL     1       4.820   2.106   0.794  0.00  0.00    +0.046 A 
ATOM     14  C   UNL     1       3.606   2.639   0.400  0.00  0.00    +0.002 A 
ATOM     15  C   UNL     1       2.493   1.714  -0.014  0.00  0.00    +0.082 C 
ATOM     16  F   UNL     1       7.040   2.415   1.561  0.00  0.00    -0.205 F 
ENDROOT
BRANCH   1  22
ATOM     17  C   UNL     1      -3.685   3.752   0.052  0.00  0.00    +0.012 A 
ATOM     18  C   UNL     1      -4.885   4.430   0.072  0.00  0.00    +0.016 A 
ATOM     19  C   UNL     1      -4.901   5.815   0.080  0.00  0.00    +0.018 A 
ATOM     20  C   UNL     1      -3.713   6.527   0.074  0.00  0.00    +0.016 A 
ATOM     21  C   UNL     1      -2.506   5.860   0.059  0.00  0.00    +0.012 A 
ATOM     22  C   UNL     1      -2.483   4.463   0.051  0.00  0.00    +0.019 A 
ATOM     23 BR   UNL     1      -6.551   6.738   0.099  0.00  0.00    -0.050 Br
ENDBRANCH   1  22
TORSDOF 1
