REMARK  Name = ZINC26363443
REMARK  10 active torsions:
REMARK  status: ('A' for Active; 'I' for Inactive)
REMARK    1  A    between atoms: C_1  and  C_2
REMARK    2  A    between atoms: C_5  and  N_26
REMARK    3  A    between atoms: C_6  and  N_9
REMARK    4  A    between atoms: C_7  and  C_8
REMARK    5  A    between atoms: C_10  and  C_12
REMARK    6  A    between atoms: C_12  and  C_14
REMARK    7  A    between atoms: C_12  and  N_15
REMARK    8  A    between atoms: N_15  and  C_16
REMARK    9  A    between atoms: C_16  and  C_18
REMARK   10  A    between atoms: C_16  and  C_19
REMARK                            x       y       z     vdW  Elec       q    Type
REMARK                         _______ _______ _______ _____ _____    ______ ____
ROOT
ATOM      1  N   UNL     1       7.025   3.815  -1.551  0.00  0.00    -0.285 N 
ATOM      2  C   UNL     1       5.868   3.212  -1.891  0.00  0.00    +0.203 C 
ATOM      3  O   UNL     1       5.875   2.067  -2.288  0.00  0.00    -0.277 OA
ATOM      4  H   UNL     1       7.029   4.877  -1.266  0.00  0.00    +0.155 HD
ENDROOT
BRANCH   1  10
ATOM      5  C   UNL     1       9.587  -0.139  -0.144  0.00  0.00    +0.044 C 
ATOM      6  C   UNL     1       9.491   1.169  -0.887  0.00  0.00    -0.046 A 
ATOM      7  C   UNL     1      10.586   1.653  -1.579  0.00  0.00    +0.006 A 
ATOM      8  C   UNL     1      10.502   2.852  -2.261  0.00  0.00    +0.035 A 
ATOM      9  C   UNL     1       9.321   3.569  -2.259  0.00  0.00    +0.148 A 
ATOM     10  C   UNL     1       8.221   3.089  -1.560  0.00  0.00    +0.067 A 
ATOM     11  C   UNL     1       8.309   1.883  -0.876  0.00  0.00    -0.024 A 
ATOM     12  C   UNL     1       7.115   1.355  -0.122  0.00  0.00    +0.046 C 
BRANCH   9  13
ATOM     13  N   UNL     1       9.230   4.850  -2.994  0.00  0.00    +0.058 N 
ATOM     14  O   UNL     1      10.223   5.324  -3.516  0.00  0.00    -0.126 OA
ATOM     15  O   UNL     1       8.162   5.429  -3.078  0.00  0.00    -0.126 OA
ENDBRANCH   9  13
ENDBRANCH   1  10
BRANCH   2  16
ATOM     16  C   UNL     1       4.566   3.963  -1.779  0.00  0.00    +0.014 C 
ATOM     17  C   UNL     1       4.614   5.204  -2.672  0.00  0.00    -0.004 C 
BRANCH  16  18
ATOM     18  N   UNL     1       3.462   3.094  -2.205  0.00  0.00    +0.391 N 
ATOM     19  H   UNL     1       3.355   3.147  -3.299  0.00  0.00    -0.084 HD
ATOM     20  H   UNL     1       3.675   2.057  -1.908  0.00  0.00    -0.084 HD
BRANCH  18  21
ATOM     21  C   UNL     1       2.196   3.510  -1.588  0.00  0.00    -0.042 C 
ATOM     22  C   UNL     1       2.072   2.876  -0.201  0.00  0.00    -0.009 C 
BRANCH  21  23
ATOM     23  C   UNL     1       1.044   3.061  -2.450  0.00  0.00    -0.043 A 
ATOM     24  C   UNL     1       1.195   1.978  -3.295  0.00  0.00    +0.003 A 
ATOM     25  C   UNL     1       0.139   1.565  -4.086  0.00  0.00    +0.000 A 
ATOM     26  C   UNL     1      -1.067   2.240  -4.037  0.00  0.00    +0.001 A 
ATOM     27  C   UNL     1      -1.221   3.319  -3.188  0.00  0.00    +0.020 A 
ATOM     28  C   UNL     1      -0.164   3.733  -2.396  0.00  0.00    +0.043 A 
ATOM     29 CL   UNL     1      -0.354   5.094  -1.335  0.00  0.00    -0.083 Cl
ENDBRANCH  21  23
ENDBRANCH  18  21
ENDBRANCH  16  18
ENDBRANCH   2  16
TORSDOF 6
