REMARK  Name = ZINC66636789
REMARK  6 active torsions:
REMARK  status: ('A' for Active; 'I' for Inactive)
REMARK    1  A    between atoms: C_1  and  C_2
REMARK    2  A    between atoms: C_2  and  N_3
REMARK    3  A    between atoms: C_4  and  C_9
REMARK    4  A    between atoms: C_9  and  N_10
REMARK    5  A    between atoms: C_11  and  C_13
REMARK    6  A    between atoms: C_16  and  N_19
REMARK                            x       y       z     vdW  Elec       q    Type
REMARK                         _______ _______ _______ _____ _____    ______ ____
ROOT
ATOM      1  C   UNL     1      -3.115  -1.292  -6.025  0.00  0.00    +0.037 A 
ATOM      2  C   UNL     1      -2.056  -1.713  -6.834  0.00  0.00    +0.015 A 
ATOM      3  C   UNL     1      -2.291  -2.066  -8.144  0.00  0.00    +0.027 A 
ATOM      4  C   UNL     1      -3.580  -2.003  -8.663  0.00  0.00    +0.048 A 
ATOM      5  C   UNL     1      -4.636  -1.584  -7.860  0.00  0.00    +0.027 A 
ATOM      6  C   UNL     1      -4.410  -1.236  -6.548  0.00  0.00    +0.015 A 
ENDROOT
BRANCH   4   7
ATOM      7  N   UNL     1      -3.814  -2.362  -9.992  0.00  0.00    -0.299 N 
ATOM      8  C   UNL     1      -3.125  -1.919 -11.083  0.00  0.00    +0.205 A 
ATOM      9  N   UNL     1      -3.608  -2.456 -12.164  0.00  0.00    -0.235 NA
ATOM     10  C   UNL     1      -4.640  -3.280 -11.845  0.00  0.00    +0.089 A 
ATOM     11  C   UNL     1      -4.784  -3.236 -10.448  0.00  0.00    +0.073 A 
ATOM     12  C   UNL     1      -5.769  -3.992  -9.828  0.00  0.00    +0.028 A 
ATOM     13  C   UNL     1      -6.601  -4.787 -10.587  0.00  0.00    +0.002 A 
ATOM     14  C   UNL     1      -6.462  -4.837 -11.966  0.00  0.00    +0.002 A 
ATOM     15  C   UNL     1      -5.495  -4.088 -12.598  0.00  0.00    +0.030 A 
ENDBRANCH   4   7
BRANCH   1  17
ATOM     16  N   UNL     1      -1.618  -0.968  -4.117  0.00  0.00    -0.304 N 
ATOM     17  C   UNL     1      -2.867  -0.914  -4.620  0.00  0.00    +0.244 C 
ATOM     18  O   UNL     1      -3.790  -0.552  -3.916  0.00  0.00    -0.270 OA
ATOM     19  H   UNL     1      -0.881  -1.257  -4.679  0.00  0.00    +0.149 HD
BRANCH  16  20
ATOM     20  C   UNL     1      -1.372  -0.593  -2.723  0.00  0.00    +0.181 C 
BRANCH  20  22
ATOM     21  N   UNL     1       0.688  -0.476  -1.203  0.00  0.00    -0.306 N 
ATOM     22  C   UNL     1       0.096  -0.741  -2.414  0.00  0.00    +0.149 A 
ATOM     23  N   UNL     1       1.004  -1.138  -3.245  0.00  0.00    -0.157 NA
ATOM     24  N   UNL     1       2.236  -1.141  -2.577  0.00  0.00    -0.254 N 
ATOM     25  C   UNL     1       2.009  -0.721  -1.315  0.00  0.00    +0.176 A 
ATOM     26  S   UNL     1       3.182  -0.536  -0.082  0.00  0.00    -0.011 S 
ATOM     27  H   UNL     1       3.094  -1.394  -2.953  0.00  0.00    +0.191 HD
BRANCH  21  29
ATOM     28  C   UNL     1      -0.019   1.526   0.010  0.00  0.00    +0.027 C 
ATOM     29  C   UNL     1       0.002  -0.004   0.002  0.00  0.00    +0.122 C 
ENDBRANCH  21  29
ENDBRANCH  20  22
ENDBRANCH  16  20
ENDBRANCH   1  17
TORSDOF 5
