REMARK  Name = ZINC54375738
REMARK  4 active torsions:
REMARK  status: ('A' for Active; 'I' for Inactive)
REMARK    1  A    between atoms: C_9  and  C_11
REMARK    2  A    between atoms: C_11  and  N_12
REMARK    3  A    between atoms: N_12  and  C_13
REMARK    4  A    between atoms: C_13  and  C_14
REMARK                            x       y       z     vdW  Elec       q    Type
REMARK                         _______ _______ _______ _____ _____    ______ ____
ROOT
ATOM      1  C   UNL     1       3.757  -3.322  -0.052  0.00  0.00    -0.006 C 
ENDROOT
BRANCH   1  10
ATOM      2  C   UNL     1      -0.017   1.374   0.010  0.00  0.00    +0.002 A 
ATOM      3  C   UNL     1       1.170   2.094   0.002  0.00  0.00    +0.002 A 
ATOM      4  C   UNL     1       2.375   1.450  -0.013  0.00  0.00    +0.030 A 
ATOM      5  C   UNL     1       2.418   0.054  -0.021  0.00  0.00    +0.089 A 
ATOM      6  C   UNL     1       1.217  -0.675  -0.013  0.00  0.00    +0.066 A 
ATOM      7  C   UNL     1       0.002  -0.004   0.002  0.00  0.00    +0.028 A 
ATOM      8  N   UNL     1       1.580  -2.007  -0.024  0.00  0.00    -0.343 N 
ATOM      9  H   UNL     1       0.977  -2.767  -0.022  0.00  0.00    +0.167 HD
ATOM     10  C   UNL     1       2.939  -2.056  -0.038  0.00  0.00    +0.091 A 
ATOM     11  N   UNL     1       3.430  -0.852  -0.036  0.00  0.00    -0.234 NA
ENDBRANCH   1  10
BRANCH   1  12
ATOM     12  N   UNL     1       4.111  -3.661  -1.437  0.00  0.00    +0.388 N 
ATOM     13  H   UNL     1       3.268  -3.799  -1.975  0.00  0.00    -0.085 HD
ATOM     14  H   UNL     1       4.648  -2.908  -1.841  0.00  0.00    -0.085 HD
BRANCH  12  15
ATOM     15  C   UNL     1       4.908  -4.894  -1.451  0.00  0.00    -0.006 C 
BRANCH  15  16
ATOM     16  C   UNL     1       5.271  -5.242  -2.872  0.00  0.00    +0.091 A 
ATOM     17  C   UNL     1       6.376  -4.838  -3.523  0.00  0.00    +0.059 A 
ATOM     18  C   UNL     1       6.314  -5.393  -4.822  0.00  0.00    +0.070 A 
ATOM     19  C   UNL     1       5.172  -6.104  -4.887  0.00  0.00    +0.184 A 
ATOM     20  O   UNL     1       4.547  -6.013  -3.701  0.00  0.00    -0.454 OA
ATOM     21 BR   UNL     1       4.555  -7.072  -6.391  0.00  0.00    -0.007 Br
ATOM     22 BR   UNL     1       7.588  -5.178  -6.203  0.00  0.00    -0.046 Br
ENDBRANCH  15  16
ENDBRANCH  12  15
ENDBRANCH   1  12
TORSDOF 4
