REMARK  Name = ZINC13979237
REMARK  11 active torsions:
REMARK  status: ('A' for Active; 'I' for Inactive)
REMARK    1  A    between atoms: C_1  and  C_2
REMARK    2  A    between atoms: C_2  and  C_3
REMARK    3  A    between atoms: C_6  and  O_9
REMARK    4  A    between atoms: O_9  and  C_10
REMARK    5  A    between atoms: C_10  and  C_11
REMARK    6  A    between atoms: N_13  and  C_14
REMARK    7  A    between atoms: C_14  and  N_16
REMARK    8  A    between atoms: N_16  and  N_17
REMARK    9  A    between atoms: C_18  and  C_20
REMARK   10  A    between atoms: C_20  and  O_21
REMARK   11  A    between atoms: O_21  and  C_22
REMARK                            x       y       z     vdW  Elec       q    Type
REMARK                         _______ _______ _______ _____ _____    ______ ____
ROOT
ATOM      1  C   UNL     1       5.408  -4.043  -0.074  0.00  0.00    +0.153 C 
ATOM      2  S   UNL     1       6.999  -4.674  -0.093  0.00  0.00    -0.017 S 
ENDROOT
BRANCH   1   5
ATOM      3  C   UNL     1       4.547  -6.213  -0.078  0.00  0.00    +0.256 C 
ATOM      4  O   UNL     1       5.674  -6.660  -0.092  0.00  0.00    -0.272 OA
ATOM      5  N   UNL     1       4.351  -4.879  -0.069  0.00  0.00    -0.264 N 
ATOM      6  H   UNL     1       3.449  -4.522  -0.058  0.00  0.00    +0.157 HD
BRANCH   3   7
ATOM      7  C   UNL     1       3.366  -7.148  -0.072  0.00  0.00    +0.324 C 
BRANCH   7   8
ATOM      8  O   UNL     1       3.829  -8.500  -0.084  0.00  0.00    -0.483 OA
BRANCH   8  12
ATOM      9  C   UNL     1       0.958 -11.463  -0.073  0.00  0.00    -0.047 A 
ATOM     10  C   UNL     1       2.299 -11.801  -0.088  0.00  0.00    +0.007 A 
ATOM     11  C   UNL     1       3.262 -10.811  -0.092  0.00  0.00    +0.046 A 
ATOM     12  C   UNL     1       2.883  -9.476  -0.081  0.00  0.00    +0.121 A 
ATOM     13  C   UNL     1       1.537  -9.140  -0.060  0.00  0.00    +0.046 A 
ATOM     14  C   UNL     1       0.578 -10.133  -0.063  0.00  0.00    +0.007 A 
BRANCH   9  16
ATOM     15  C   UNL     1      -0.432 -12.920   1.374  0.00  0.00    +0.009 C 
ATOM     16  C   UNL     1      -0.091 -12.545  -0.070  0.00  0.00    +0.032 C 
ENDBRANCH   9  16
ENDBRANCH   8  12
ENDBRANCH   7   8
ENDBRANCH   3   7
ENDBRANCH   1   5
BRANCH   1  17
ATOM     17  N   UNL     1       5.212  -2.709  -0.065  0.00  0.00    -0.245 N 
ATOM     18  H   UNL     1       5.972  -2.107  -0.069  0.00  0.00    +0.172 HD
BRANCH  17  19
ATOM     19  N   UNL     1       3.909  -2.193  -0.049  0.00  0.00    -0.232 N 
ATOM     20  C   UNL     1       3.713  -0.860  -0.040  0.00  0.00    +0.267 C 
ATOM     21  O   UNL     1       4.664  -0.107  -0.044  0.00  0.00    -0.271 OA
ATOM     22  H   UNL     1       3.149  -2.795  -0.045  0.00  0.00    +0.173 HD
BRANCH  20  23
ATOM     23  C   UNL     1       2.312  -0.304  -0.023  0.00  0.00    +0.326 C 
BRANCH  23  24
ATOM     24  O   UNL     1       2.366   1.124  -0.015  0.00  0.00    -0.481 OA
BRANCH  24  25
ATOM     25  C   UNL     1       1.179   1.786   0.000  0.00  0.00    +0.139 A 
ATOM     26  C   UNL     1      -0.013   1.076   0.008  0.00  0.00    +0.048 A 
ATOM     27  C   UNL     1      -1.218   1.751   0.017  0.00  0.00    +0.019 A 
ATOM     28  C   UNL     1      -1.238   3.134   0.030  0.00  0.00    +0.019 A 
ATOM     29  C   UNL     1      -0.051   3.845   0.023  0.00  0.00    +0.039 A 
ATOM     30  C   UNL     1       1.157   3.174   0.008  0.00  0.00    +0.084 A 
ATOM     31 CL   UNL     1       2.646   4.066  -0.002  0.00  0.00    -0.080 Cl
ATOM     32 BR   UNL     1      -2.890   4.054   0.050  0.00  0.00    -0.050 Br
ENDBRANCH  24  25
ENDBRANCH  23  24
ENDBRANCH  20  23
ENDBRANCH  17  19
ENDBRANCH   1  17
TORSDOF 10
