REMARK  Name = ZINC65259925
REMARK  3 active torsions:
REMARK  status: ('A' for Active; 'I' for Inactive)
REMARK    1  A    between atoms: C_1  and  C_2
REMARK    2  A    between atoms: N_19  and  C_20
REMARK    3  A    between atoms: C_20  and  C_21
REMARK                            x       y       z     vdW  Elec       q    Type
REMARK                         _______ _______ _______ _____ _____    ______ ____
ROOT
ATOM      1  C   UNL     1      -0.018   1.503   0.010  0.00  0.00    +0.109 C 
ATOM      2  C   UNL     1       0.002  -0.004   0.002  0.00  0.00    +0.213 C 
ATOM      3  O   UNL     1       1.060  -0.596  -0.011  0.00  0.00    -0.276 OA
ATOM      4  N   UNL     1      -1.156  -0.694   0.009  0.00  0.00    -0.299 N 
ATOM      5  C   UNL     1      -2.446   0.009   0.019  0.00  0.00    +0.108 C 
ATOM      6  C   UNL     1      -3.283  -0.510   1.193  0.00  0.00    +0.021 C 
ATOM      7  C   UNL     1      -3.402  -2.033   1.095  0.00  0.00    +0.036 C 
ATOM      8  C   UNL     1      -2.012  -2.661   1.169  0.00  0.00    +0.102 C 
ATOM      9  C   UNL     1      -1.153  -2.164   0.001  0.00  0.00    +0.141 C 
ATOM     10  C   UNL     1      -2.130  -4.169   1.105  0.00  0.00    +0.098 C 
ATOM     11  N   UNL     1      -0.983  -4.889   1.389  0.00  0.00    -0.301 N 
ATOM     12  C   UNL     1      -0.147  -4.407   2.410  0.00  0.00    +0.053 A 
ATOM     13  C   UNL     1       0.870  -5.208   2.906  0.00  0.00    +0.025 A 
ATOM     14  C   UNL     1       1.698  -4.732   3.906  0.00  0.00    +0.002 A 
ATOM     15  C   UNL     1       1.515  -3.458   4.413  0.00  0.00    +0.002 A 
ATOM     16  C   UNL     1       0.502  -2.654   3.925  0.00  0.00    +0.025 A 
ATOM     17  C   UNL     1      -0.336  -3.126   2.925  0.00  0.00    +0.049 A 
ATOM     18  N   UNL     1      -1.375  -2.314   2.445  0.00  0.00    -0.329 N 
ATOM     19  N   UNL     1      -3.243  -4.753   0.801  0.00  0.00    -0.371 N 
ATOM     20  H   UNL     1      -1.667  -1.538   2.948  0.00  0.00    +0.147 HD
ATOM     21  H   UNL     1      -4.032  -4.223   0.607  0.00  0.00    +0.161 HD
ATOM     22  H   UNL     1      -0.765  -5.699   0.902  0.00  0.00    +0.153 HD
ENDROOT
BRANCH  19  23
ATOM     23  C   UNL     1      -3.313  -6.216   0.751  0.00  0.00    +0.149 C 
BRANCH  23  24
ATOM     24  C   UNL     1      -4.710  -6.639   0.376  0.00  0.00    -0.028 A 
ATOM     25  C   UNL     1      -5.655  -6.853   1.362  0.00  0.00    +0.005 A 
ATOM     26  C   UNL     1      -6.937  -7.242   1.019  0.00  0.00    +0.000 A 
ATOM     27  C   UNL     1      -7.273  -7.415  -0.311  0.00  0.00    +0.000 A 
ATOM     28  C   UNL     1      -6.329  -7.200  -1.297  0.00  0.00    +0.000 A 
ATOM     29  C   UNL     1      -5.048  -6.808  -0.953  0.00  0.00    +0.005 A 
ENDBRANCH  23  24
ENDBRANCH  19  23
TORSDOF 2
