REMARK  Name = ZINC28049502
REMARK  9 active torsions:
REMARK  status: ('A' for Active; 'I' for Inactive)
REMARK    1  A    between atoms: C_1  and  C_2
REMARK    2  A    between atoms: C_2  and  C_23
REMARK    3  A    between atoms: N_3  and  N_4
REMARK    4  A    between atoms: C_8  and  C_11
REMARK    5  A    between atoms: C_11  and  C_12
REMARK    6  A    between atoms: N_14  and  C_15
REMARK    7  A    between atoms: C_23  and  C_24
REMARK    8  A    between atoms: C_23  and  C_25
REMARK    9  A    between atoms: C_23  and  C_26
REMARK                            x       y       z     vdW  Elec       q    Type
REMARK                         _______ _______ _______ _____ _____    ______ ____
ROOT
ATOM      1  N   UNL     1      -7.745   0.437  -2.398  0.00  0.00    -0.127 NA
ATOM      2  C   UNL     1      -6.882   0.248  -1.417  0.00  0.00    +0.183 C 
ATOM      3  N   UNL     1      -7.038  -0.485  -0.292  0.00  0.00    -0.263 N 
ATOM      4  C   UNL     1      -6.143  -0.613   0.612  0.00  0.00    +0.233 C 
ATOM      5  C   UNL     1      -4.834   0.125   0.364  0.00  0.00    +0.149 C 
ATOM      6  S   UNL     1      -5.225   0.902  -1.256  0.00  0.00    -0.075 S 
ATOM      7  O   UNL     1      -6.345  -1.355   1.715  0.00  0.00    -0.274 OA
ATOM      8  H   UNL     1      -7.982  -1.019  -0.110  0.00  0.00    +0.157 HD
ENDROOT
BRANCH   1  11
ATOM      9  C   UNL     1      -9.481   0.882  -4.484  0.00  0.00    +0.063 C 
ATOM     10  C   UNL     1      -9.855   0.020  -3.307  0.00  0.00    +0.043 C 
ATOM     11  N   UNL     1      -9.009  -0.165  -2.344  0.00  0.00    -0.156 NA
BRANCH  10  12
ATOM     12  C   UNL     1     -11.215  -0.628  -3.249  0.00  0.00    +0.002 C 
ATOM     13  C   UNL     1     -11.338  -1.442  -1.960  0.00  0.00    +0.017 C 
ATOM     14  C   UNL     1     -12.297   0.454  -3.273  0.00  0.00    +0.017 C 
ATOM     15  C   UNL     1     -11.391  -1.552  -4.455  0.00  0.00    +0.017 C 
ENDBRANCH  10  12
ENDBRANCH   1  11
BRANCH   5  16
ATOM     16  C   UNL     1      -3.658  -0.847   0.246  0.00  0.00    +0.120 C 
BRANCH  16  17
ATOM     17  C   UNL     1      -2.373  -0.070   0.125  0.00  0.00    +0.219 C 
ATOM     18  O   UNL     1      -2.395   1.143   0.132  0.00  0.00    -0.275 OA
ATOM     19  N   UNL     1      -1.199  -0.722   0.009  0.00  0.00    -0.285 N 
ATOM     20  H   UNL     1      -1.186  -1.817  -0.088  0.00  0.00    +0.155 HD
BRANCH  19  21
ATOM     21  C   UNL     1       0.003  -0.005   0.013  0.00  0.00    +0.047 A 
ATOM     22  C   UNL     1       0.069   1.239   0.627  0.00  0.00    +0.024 A 
ATOM     23  C   UNL     1       1.257   1.944   0.629  0.00  0.00    +0.002 A 
ATOM     24  C   UNL     1       2.379   1.413   0.019  0.00  0.00    +0.001 A 
ATOM     25  C   UNL     1       2.317   0.175  -0.593  0.00  0.00    +0.017 A 
ATOM     26  C   UNL     1       1.132  -0.536  -0.598  0.00  0.00    +0.039 A 
ATOM     27 BR   UNL     1       1.047  -2.229  -1.437  0.00  0.00    -0.048 Br
ENDBRANCH  19  21
ENDBRANCH  16  17
ENDBRANCH   5  16
TORSDOF 5
