REMARK  Name = ZINC48654002
REMARK  4 active torsions:
REMARK  status: ('A' for Active; 'I' for Inactive)
REMARK    1  A    between atoms: C_1  and  C_2
REMARK    2  A    between atoms: C_7  and  S_8
REMARK    3  A    between atoms: S_8  and  N_11
REMARK    4  A    between atoms: N_11  and  C_12
REMARK                            x       y       z     vdW  Elec       q    Type
REMARK                         _______ _______ _______ _____ _____    ______ ____
ROOT
ATOM      1  S   UNL     1       0.025   0.173   2.726  0.00  0.00    +0.092 S 
ATOM      2  O   UNL     1      -1.014   1.138   2.644  0.00  0.00    -0.148 OA
ATOM      3  O   UNL     1       0.076  -0.808   3.753  0.00  0.00    -0.148 OA
ENDROOT
BRANCH   1  10
ATOM      4  C   UNL     1      -0.018   1.503   0.010  0.00  0.00    +0.046 C 
ATOM      5  C   UNL     1       0.002  -0.004   0.002  0.00  0.00    -0.024 A 
ATOM      6  C   UNL     1       0.006  -0.688  -1.200  0.00  0.00    +0.008 A 
ATOM      7  C   UNL     1       0.025  -2.070  -1.208  0.00  0.00    +0.039 A 
ATOM      8  C   UNL     1       0.041  -2.769  -0.013  0.00  0.00    +0.125 A 
ATOM      9  C   UNL     1       0.037  -2.083   1.189  0.00  0.00    +0.067 A 
ATOM     10  C   UNL     1       0.023  -0.701   1.196  0.00  0.00    +0.116 A 
ATOM     11  F   UNL     1       0.059  -4.120  -0.021  0.00  0.00    -0.205 F 
ENDBRANCH   1  10
BRANCH   1  12
ATOM     12  N   UNL     1       1.449   1.016   2.806  0.00  0.00    -0.096 NA
BRANCH  12  13
ATOM     13  C   UNL     1       1.729   1.809   3.922  0.00  0.00    +0.093 A 
ATOM     14  C   UNL     1       0.818   1.887   4.967  0.00  0.00    +0.029 A 
ATOM     15  C   UNL     1       1.098   2.671   6.069  0.00  0.00    +0.016 A 
ATOM     16  C   UNL     1       2.285   3.380   6.132  0.00  0.00    +0.015 A 
ATOM     17  C   UNL     1       3.195   3.305   5.093  0.00  0.00    +0.036 A 
ATOM     18  C   UNL     1       2.923   2.517   3.991  0.00  0.00    +0.066 A 
ATOM     19 CL   UNL     1       4.069   2.418   2.690  0.00  0.00    -0.081 Cl
ATOM     20  I   UNL     1       2.704   4.568   7.806  0.00  0.00    -0.044 I 
ENDBRANCH  12  13
ENDBRANCH   1  12
TORSDOF 3
