REMARK  Name = ZINC14983884
REMARK  1 active torsions:
REMARK  status: ('A' for Active; 'I' for Inactive)
REMARK    1  A    between atoms: C_4  and  N_12
REMARK                            x       y       z     vdW  Elec       q    Type
REMARK                         _______ _______ _______ _____ _____    ______ ____
ROOT
ATOM      1  C   UNL     1      -1.271   3.126   0.028  0.00  0.00    +0.066 A 
ATOM      2  C   UNL     1      -1.223   1.766  -0.191  0.00  0.00    +0.128 A 
ATOM      3  C   UNL     1      -0.005   1.093  -0.199  0.00  0.00    +0.071 A 
ATOM      4  C   UNL     1       1.163   1.768   0.000  0.00  0.00    +0.141 A 
ATOM      5  C   UNL     1       1.140   3.149   0.220  0.00  0.00    +0.063 A 
ATOM      6  C   UNL     1      -0.090   3.835   0.233  0.00  0.00    +0.072 A 
ATOM      7  N   UNL     1       0.196   5.155   0.467  0.00  0.00    -0.276 N 
ATOM      8  H   UNL     1      -0.477   5.891   0.532  0.00  0.00    +0.189 HD
ATOM      9  N   UNL     1       1.580   5.306   0.599  0.00  0.00    -0.167 NA
ATOM     10  C   UNL     1       2.171   4.154   0.461  0.00  0.00    +0.133 A 
ATOM     11  I   UNL     1       4.234   3.805   0.565  0.00  0.00    -0.019 I 
ATOM     12  F   UNL     1      -2.369   1.080  -0.396  0.00  0.00    -0.205 F 
ENDROOT
BRANCH   4  13
ATOM     13  N   UNL     1       2.452   1.040  -0.015  0.00  0.00    +0.057 N 
ATOM     14  O   UNL     1       2.678   0.218  -0.885  0.00  0.00    -0.126 OA
ATOM     15  O   UNL     1       3.288   1.264   0.843  0.00  0.00    -0.126 OA
ENDBRANCH   4  13
TORSDOF 1
