REMARK  Name = ZINC01901054
REMARK  14 active torsions:
REMARK  status: ('A' for Active; 'I' for Inactive)
REMARK    1  A    between atoms: C_1  and  C_2
REMARK    2  A    between atoms: C_2  and  C_4
REMARK    3  A    between atoms: C_10  and  C_49
REMARK    4  A    between atoms: C_21  and  N_26
REMARK    5  A    between atoms: C_24  and  C_25
REMARK    6  A    between atoms: N_26  and  O_27
REMARK    7  A    between atoms: O_27  and  C_28
REMARK    8  A    between atoms: C_28  and  C_29
REMARK    9  A    between atoms: N_31  and  C_32
REMARK   10  A    between atoms: C_32  and  C_34
REMARK   11  A    between atoms: C_32  and  C_45
REMARK   12  A    between atoms: C_34  and  C_35
REMARK   13  A    between atoms: C_45  and  O_47
REMARK   14  A    between atoms: O_47  and  C_48
REMARK                            x       y       z     vdW  Elec       q    Type
REMARK                         _______ _______ _______ _____ _____    ______ ____
ROOT
ATOM      1  N   UNL     1      -4.756  -0.690  -7.261  0.00  0.00    -0.266 N 
ATOM      2  H   UNL     1      -4.369   0.072  -7.720  0.00  0.00    +0.194 HD
ENDROOT
BRANCH   1  16
ATOM      3  C   UNL     1      -0.004  -0.751  -1.309  0.00  0.00    +0.061 C 
ATOM      4  C   UNL     1       1.447  -0.929  -1.802  0.00  0.00    +0.012 C 
ATOM      5  C   UNL     1       1.690  -2.450  -1.933  0.00  0.00    +0.005 C 
ATOM      6  C   UNL     1       0.270  -3.066  -2.039  0.00  0.00    -0.001 C 
ATOM      7  C   UNL     1      -0.552  -2.166  -1.105  0.00  0.00    -0.019 C 
ATOM      8  C   UNL     1      -2.043  -2.279  -1.309  0.00  0.00    +0.008 C 
ATOM      9  C   UNL     1      -2.418  -2.156  -2.786  0.00  0.00    +0.005 C 
ATOM     10  C   UNL     1      -1.707  -3.273  -3.557  0.00  0.00    +0.003 C 
ATOM     11  C   UNL     1      -0.201  -3.027  -3.487  0.00  0.00    -0.003 C 
ATOM     12  C   UNL     1       0.172  -1.715  -4.168  0.00  0.00    +0.008 C 
ATOM     13  C   UNL     1      -0.229  -1.765  -5.648  0.00  0.00    +0.031 C 
ATOM     14  C   UNL     1      -1.711  -2.086  -5.723  0.00  0.00    -0.061 C 
ATOM     15  C   UNL     1      -2.496  -1.280  -6.415  0.00  0.00    +0.027 C 
ATOM     16  C   UNL     1      -3.942  -1.540  -6.510  0.00  0.00    +0.057 C 
ATOM     17  C   UNL     1      -4.471  -2.580  -5.881  0.00  0.00    +0.001 C 
ATOM     18  C   UNL     1      -3.688  -3.542  -5.061  0.00  0.00    +0.040 C 
ATOM     19  C   UNL     1      -2.202  -3.300  -5.001  0.00  0.00    -0.004 C 
ATOM     20  C   UNL     1      -1.560  -4.513  -5.682  0.00  0.00    +0.016 C 
ATOM     21  C   UNL     1      -0.250  -2.581   0.345  0.00  0.00    +0.012 C 
BRANCH   3  23
ATOM     22  C   UNL     1      -1.230   0.760   0.436  0.00  0.00    +0.086 C 
ATOM     23  C   UNL     1      -0.004  -0.003   0.004  0.00  0.00    +0.134 C 
ATOM     24  O   UNL     1       0.978  -0.017   0.707  0.00  0.00    -0.297 OA
ENDBRANCH   3  23
ENDBRANCH   1  16
BRANCH   1  25
ATOM     25  O   UNL     1      -6.147  -0.939  -7.351  0.00  0.00    -0.265 OA
BRANCH  25  26
ATOM     26  C   UNL     1      -6.856   0.009  -8.151  0.00  0.00    +0.288 C 
BRANCH  26  27
ATOM     27  C   UNL     1      -8.319  -0.352  -8.178  0.00  0.00    +0.242 C 
ATOM     28  O   UNL     1      -8.715  -1.325  -7.572  0.00  0.00    -0.273 OA
ATOM     29  N   UNL     1      -9.188   0.407  -8.875  0.00  0.00    -0.300 N 
ATOM     30  H   UNL     1      -8.871   1.186  -9.359  0.00  0.00    +0.150 HD
BRANCH  29  31
ATOM     31  C   UNL     1     -10.610   0.056  -8.901  0.00  0.00    +0.186 C 
BRANCH  31  32
ATOM     32  C   UNL     1     -11.294   0.640  -7.692  0.00  0.00    +0.328 C 
ATOM     33  O   UNL     1     -10.659   1.283  -6.890  0.00  0.00    -0.249 OA
BRANCH  32  34
ATOM     34  O   UNL     1     -12.609   0.446  -7.505  0.00  0.00    -0.467 OA
ATOM     35  C   UNL     1     -13.191   1.028  -6.338  0.00  0.00    +0.280 C 
ENDBRANCH  32  34
ENDBRANCH  31  32
BRANCH  31  36
ATOM     36  C   UNL     1     -11.251   0.620 -10.171  0.00  0.00    +0.071 C 
BRANCH  36  37
ATOM     37  C   UNL     1     -10.652  -0.055 -11.378  0.00  0.00    -0.020 A 
ATOM     38  C   UNL     1      -9.625   0.396 -12.117  0.00  0.00    +0.087 A 
ATOM     39  N   UNL     1      -9.360  -0.483 -13.132  0.00  0.00    -0.360 N 
ATOM     40  H   UNL     1      -8.662  -0.373 -13.796  0.00  0.00    +0.165 HD
ATOM     41  C   UNL     1     -10.231  -1.548 -13.069  0.00  0.00    +0.047 A 
ATOM     42  C   UNL     1     -11.074  -1.329 -11.964  0.00  0.00    +0.003 A 
ATOM     43  C   UNL     1     -12.065  -2.260 -11.649  0.00  0.00    +0.010 A 
ATOM     44  C   UNL     1     -12.209  -3.383 -12.415  0.00  0.00    +0.001 A 
ATOM     45  C   UNL     1     -11.377  -3.605 -13.503  0.00  0.00    +0.002 A 
ATOM     46  C   UNL     1     -10.398  -2.695 -13.837  0.00  0.00    +0.026 A 
ENDBRANCH  36  37
ENDBRANCH  31  36
ENDBRANCH  29  31
ENDBRANCH  26  27
ENDBRANCH  25  26
ENDBRANCH   1  25
TORSDOF 10
