REMARK  Name = ZINC16734009
REMARK  12 active torsions:
REMARK  status: ('A' for Active; 'I' for Inactive)
REMARK    1  A    between atoms: C_1  and  C_2
REMARK    2  A    between atoms: C_3  and  C_22
REMARK    3  A    between atoms: C_4  and  C_10
REMARK    4  A    between atoms: C_13  and  O_17
REMARK    5  A    between atoms: C_14  and  O_16
REMARK    6  A    between atoms: O_17  and  C_18
REMARK    7  A    between atoms: C_18  and  C_19
REMARK    8  A    between atoms: C_19  and  C_20
REMARK    9  A    between atoms: C_19  and  C_21
REMARK   10  A    between atoms: C_22  and  O_24
REMARK   11  A    between atoms: O_24  and  C_25
REMARK   12  A    between atoms: C_25  and  C_26
REMARK                            x       y       z     vdW  Elec       q    Type
REMARK                         _______ _______ _______ _____ _____    ______ ____
ROOT
ATOM      1  C   UNL     1      -6.583  -1.195   1.880  0.00  0.00    +0.061 C 
ATOM      2  C   UNL     1      -5.720  -0.832   3.061  0.00  0.00    +0.019 C 
ATOM      3  C   UNL     1      -4.442  -0.444   2.857  0.00  0.00    +0.078 C 
ATOM      4  C   UNL     1      -3.613  -0.081   4.072  0.00  0.00    +0.141 C 
ATOM      5  N   UNL     1      -4.271  -0.189   5.385  0.00  0.00    -0.315 N 
ATOM      6  C   UNL     1      -5.554  -0.597   5.428  0.00  0.00    +0.135 C 
ATOM      7  S   UNL     1      -6.332  -0.728   6.947  0.00  0.00    -0.019 S 
ATOM      8  N   UNL     1      -6.241  -0.905   4.320  0.00  0.00    -0.300 N 
ATOM      9  H   UNL     1      -3.791   0.029   6.199  0.00  0.00    +0.149 HD
ATOM     10  H   UNL     1      -7.162  -1.193   4.418  0.00  0.00    +0.154 HD
ENDROOT
BRANCH   4  11
ATOM     11  C   UNL     1      -2.397  -0.972   4.087  0.00  0.00    -0.019 A 
ATOM     12  C   UNL     1      -2.497  -2.268   4.559  0.00  0.00    +0.009 A 
ATOM     13  C   UNL     1      -1.385  -3.089   4.574  0.00  0.00    +0.050 A 
ATOM     14  C   UNL     1      -0.167  -2.615   4.115  0.00  0.00    +0.162 A 
ATOM     15  C   UNL     1      -0.067  -1.311   3.640  0.00  0.00    +0.159 A 
ATOM     16  C   UNL     1      -1.186  -0.494   3.622  0.00  0.00    +0.055 A 
BRANCH  15  17
ATOM     17  O   UNL     1       1.127  -0.840   3.188  0.00  0.00    -0.503 OA
ATOM     18  H   UNL     1       1.275  -0.986   2.243  0.00  0.00    +0.292 HD
ENDBRANCH  15  17
BRANCH  14  19
ATOM     19  O   UNL     1       0.927  -3.421   4.129  0.00  0.00    -0.488 OA
BRANCH  19  20
ATOM     20  C   UNL     1       0.749  -4.748   4.630  0.00  0.00    +0.232 C 
BRANCH  20  21
ATOM     21  C   UNL     1       2.080  -5.500   4.567  0.00  0.00    +0.020 C 
ATOM     22  C   UNL     1       1.920  -6.875   5.218  0.00  0.00    +0.010 C 
ATOM     23  C   UNL     1       2.500  -5.672   3.106  0.00  0.00    +0.010 C 
ENDBRANCH  20  21
ENDBRANCH  19  20
ENDBRANCH  14  19
ENDBRANCH   4  11
BRANCH   3  24
ATOM     24  C   UNL     1      -3.900  -0.372   1.553  0.00  0.00    +0.339 C 
ATOM     25  O   UNL     1      -4.541  -0.784   0.604  0.00  0.00    -0.245 OA
BRANCH  24  26
ATOM     26  O   UNL     1      -2.671   0.151   1.361  0.00  0.00    -0.457 OA
BRANCH  26  27
ATOM     27  C   UNL     1      -2.185   0.192   0.018  0.00  0.00    +0.268 C 
BRANCH  27  28
ATOM     28  C   UNL     1      -0.809   0.805  -0.001  0.00  0.00    -0.010 A 
ATOM     29  C   UNL     1       0.308   0.001   0.134  0.00  0.00    +0.007 A 
ATOM     30  C   UNL     1       1.571   0.562   0.112  0.00  0.00    +0.000 A 
ATOM     31  C   UNL     1       1.717   1.929  -0.040  0.00  0.00    +0.000 A 
ATOM     32  C   UNL     1       0.601   2.733  -0.169  0.00  0.00    +0.000 A 
ATOM     33  C   UNL     1      -0.662   2.172  -0.146  0.00  0.00    +0.007 A 
ENDBRANCH  27  28
ENDBRANCH  26  27
ENDBRANCH  24  26
ENDBRANCH   3  24
TORSDOF 9
