REMARK  Name = ZINC50710051
REMARK  2 active torsions:
REMARK  status: ('A' for Active; 'I' for Inactive)
REMARK    1  A    between atoms: C_6  and  C_7
REMARK    2  A    between atoms: N_9  and  C_10
REMARK                            x       y       z     vdW  Elec       q    Type
REMARK                         _______ _______ _______ _____ _____    ______ ____
ROOT
ATOM      1  C   UNL     1      -1.108  -0.992  -0.015  0.00  0.00    +0.248 C 
ATOM      2  O   UNL     1      -0.968  -2.198   0.065  0.00  0.00    -0.270 OA
ATOM      3  N   UNL     1      -2.343  -0.462  -0.108  0.00  0.00    -0.310 N 
ATOM      4  H   UNL     1      -2.454   0.500  -0.172  0.00  0.00    +0.149 HD
ENDROOT
BRANCH   1  10
ATOM      5  C   UNL     1      -0.073   1.280   0.022  0.00  0.00    +0.033 A 
ATOM      6  C   UNL     1       1.068   2.063   0.025  0.00  0.00    +0.037 A 
ATOM      7  C   UNL     1       2.311   1.455  -0.003  0.00  0.00    +0.128 A 
ATOM      8  N   UNL     1       2.429   0.142  -0.034  0.00  0.00    -0.239 NA
ATOM      9  C   UNL     1       1.371  -0.654  -0.038  0.00  0.00    +0.128 A 
ATOM     10  C   UNL     1       0.075  -0.112  -0.010  0.00  0.00    +0.077 A 
ATOM     11  N   UNL     1       1.542  -2.026  -0.071  0.00  0.00    -0.343 N 
ATOM     12 BR   UNL     1       0.930   3.948   0.068  0.00  0.00    -0.049 Br
ATOM     13  H   UNL     1       2.431  -2.402  -0.172  0.00  0.00    +0.144 HD
ATOM     14  H   UNL     1       0.773  -2.612   0.006  0.00  0.00    +0.144 HD
ENDBRANCH   1  10
BRANCH   3  15
ATOM     15  C   UNL     1      -3.518  -1.337  -0.113  0.00  0.00    +0.058 C 
ATOM     16  C   UNL     1      -4.025  -1.593   1.334  0.00  0.00    +0.002 C 
ATOM     17  C   UNL     1      -5.569  -1.560   1.228  0.00  0.00    -0.077 C 
ATOM     18  N   UNL     1      -5.870  -1.400  -0.196  0.00  0.00    +0.383 N 
ATOM     19  C   UNL     1      -4.725  -0.633  -0.755  0.00  0.00    -0.048 C 
ATOM     20  C   UNL     1      -4.779  -0.773  -2.270  0.00  0.00    -0.014 C 
ATOM     21  C   UNL     1      -6.081  -0.113  -2.749  0.00  0.00    -0.003 C 
ATOM     22  C   UNL     1      -7.287  -0.726  -2.037  0.00  0.00    -0.019 C 
ATOM     23  C   UNL     1      -7.098  -0.684  -0.511  0.00  0.00    -0.078 C 
ATOM     24  H   UNL     1      -5.892  -2.308  -0.635  0.00  0.00    -0.081 HD
ENDBRANCH   3  15
TORSDOF 2
