REMARK  Name = ZINC40923893
REMARK  9 active torsions:
REMARK  status: ('A' for Active; 'I' for Inactive)
REMARK    1  A    between atoms: C_1  and  C_2
REMARK    2  A    between atoms: C_7  and  C_8
REMARK    3  A    between atoms: C_8  and  O_9
REMARK    4  A    between atoms: O_9  and  C_10
REMARK    5  A    between atoms: C_15  and  C_16
REMARK    6  A    between atoms: C_18  and  C_27
REMARK    7  A    between atoms: C_19  and  C_26
REMARK    8  A    between atoms: C_27  and  O_29
REMARK    9  A    between atoms: O_29  and  C_30
REMARK                            x       y       z     vdW  Elec       q    Type
REMARK                         _______ _______ _______ _____ _____    ______ ____
ROOT
ATOM      1  C   UNL     1      -0.149  -0.264   5.040  0.00  0.00    +0.127 A 
ATOM      2  C   UNL     1      -0.344   1.083   5.310  0.00  0.00    +0.047 A 
ATOM      3  C   UNL     1      -0.496   1.510   6.614  0.00  0.00    +0.019 A 
ATOM      4  C   UNL     1      -0.454   0.596   7.652  0.00  0.00    +0.018 A 
ATOM      5  C   UNL     1      -0.259  -0.747   7.386  0.00  0.00    +0.025 A 
ATOM      6  C   UNL     1      -0.113  -1.179   6.082  0.00  0.00    +0.024 A 
ATOM      7 BR   UNL     1      -0.663   1.184   9.437  0.00  0.00    -0.050 Br
ENDROOT
BRANCH   6   8
ATOM      8  C   UNL     1       0.093  -2.644   5.791  0.00  0.00    +0.184 C 
ATOM      9  C   UNL     1       1.343  -3.122   6.481  0.00  0.00    +0.082 C 
ATOM     10  C   UNL     1       1.325  -3.926   7.556  0.00  0.00    +0.020 C 
ATOM     11  N   UNL     1       0.155  -4.387   8.107  0.00  0.00    -0.286 N 
ATOM     12  C   UNL     1      -1.008  -4.212   7.373  0.00  0.00    +0.240 A 
ATOM     13  N   UNL     1      -1.052  -3.402   6.282  0.00  0.00    -0.201 N 
ATOM     14  N   UNL     1      -2.360  -3.482   5.808  0.00  0.00    -0.042 NA
ATOM     15  N   UNL     1      -2.990  -4.287   6.602  0.00  0.00    -0.021 NA
ATOM     16  N   UNL     1      -2.199  -4.718   7.526  0.00  0.00    -0.092 NA
ATOM     17  C   UNL     1       2.634  -4.337   8.179  0.00  0.00    +0.061 C 
ATOM     18  H   UNL     1       0.143  -4.818   8.976  0.00  0.00    +0.155 HD
BRANCH   9  19
ATOM     19  C   UNL     1       2.594  -2.706   5.973  0.00  0.00    +0.339 C 
ATOM     20  O   UNL     1       3.024  -3.191   4.943  0.00  0.00    -0.245 OA
BRANCH  19  21
ATOM     21  O   UNL     1       3.311  -1.770   6.630  0.00  0.00    -0.465 OA
ATOM     22  C   UNL     1       4.567  -1.396   6.059  0.00  0.00    +0.280 C 
ENDBRANCH  19  21
ENDBRANCH   9  19
ENDBRANCH   6   8
BRANCH   1  23
ATOM     23  O   UNL     1       0.001  -0.686   3.757  0.00  0.00    -0.487 OA
BRANCH  23  24
ATOM     24  C   UNL     1      -0.047   0.312   2.736  0.00  0.00    +0.264 C 
BRANCH  24  31
ATOM     25  C   UNL     1      -0.069   1.924   0.338  0.00  0.00    +0.044 C 
ATOM     26  C   UNL     1       0.126   0.432   0.242  0.00  0.00    -0.044 A 
ATOM     27  C   UNL     1       0.300  -0.164  -0.994  0.00  0.00    +0.004 A 
ATOM     28  C   UNL     1       0.478  -1.531  -1.082  0.00  0.00    +0.000 A 
ATOM     29  C   UNL     1       0.483  -2.303   0.065  0.00  0.00    +0.000 A 
ATOM     30  C   UNL     1       0.310  -1.707   1.300  0.00  0.00    +0.007 A 
ATOM     31  C   UNL     1       0.136  -0.339   1.389  0.00  0.00    -0.007 A 
ENDBRANCH  24  31
ENDBRANCH  23  24
ENDBRANCH   1  23
TORSDOF 6
