REMARK  Name = ZINC39664757
REMARK  9 active torsions:
REMARK  status: ('A' for Active; 'I' for Inactive)
REMARK    1  A    between atoms: C_1  and  N_2
REMARK    2  A    between atoms: C_6  and  C_7
REMARK    3  A    between atoms: C_11  and  C_20
REMARK    4  A    between atoms: N_22  and  C_23
REMARK    5  A    between atoms: C_23  and  C_25
REMARK    6  A    between atoms: C_23  and  C_29
REMARK    7  A    between atoms: C_25  and  N_26
REMARK    8  A    between atoms: N_26  and  C_27
REMARK    9  A    between atoms: N_26  and  C_28
REMARK                            x       y       z     vdW  Elec       q    Type
REMARK                         _______ _______ _______ _____ _____    ______ ____
ROOT
ATOM      1  C   UNL     1      -0.243  -0.377   2.353  0.00  0.00    +0.263 C 
ATOM      2  O   UNL     1       0.053  -1.211   3.188  0.00  0.00    -0.268 OA
ATOM      3  N   UNL     1      -0.331   0.923   2.700  0.00  0.00    -0.295 N 
ATOM      4  C   UNL     1      -0.803   2.055   1.869  0.00  0.00    +0.121 C 
ATOM      5  C   UNL     1      -1.622   2.937   2.838  0.00  0.00    +0.100 C 
ATOM      6  C   UNL     1      -1.075   2.596   4.235  0.00  0.00    -0.004 C 
ATOM      7  C   UNL     1       0.015   1.541   4.003  0.00  0.00    +0.115 C 
ATOM      8  C   UNL     1      -2.184   2.018   5.109  0.00  0.00    -0.010 C 
ATOM      9  C   UNL     1      -1.630   1.741   6.510  0.00  0.00    -0.082 C 
ATOM     10  N   UNL     1      -1.121   2.988   7.092  0.00  0.00    +0.379 N 
ATOM     11  C   UNL     1       0.006   3.489   6.296  0.00  0.00    -0.082 C 
ATOM     12  C   UNL     1      -0.478   3.840   4.886  0.00  0.00    -0.010 C 
ATOM     13  H   UNL     1      -1.857   3.678   7.102  0.00  0.00    -0.086 HD
ATOM     14  H   UNL     1      -0.813   2.816   8.037  0.00  0.00    -0.086 HD
ENDROOT
BRANCH   1  20
ATOM     15  C   UNL     1      -0.426  -3.289   1.312  0.00  0.00    +0.149 C 
ATOM     16  N   UNL     1      -0.586  -2.078   0.503  0.00  0.00    -0.346 N 
ATOM     17  C   UNL     1      -0.844  -2.044  -0.827  0.00  0.00    +0.086 A 
ATOM     18  C   UNL     1      -0.924  -0.752  -1.225  0.00  0.00    +0.020 A 
ATOM     19  C   UNL     1      -0.709   0.057  -0.105  0.00  0.00    +0.032 A 
ATOM     20  C   UNL     1      -0.504  -0.785   0.968  0.00  0.00    +0.104 A 
ENDBRANCH   1  20
BRANCH   5  21
ATOM     21  C   UNL     1      -1.407   4.396   2.529  0.00  0.00    +0.219 C 
ATOM     22  O   UNL     1      -2.341   5.168   2.570  0.00  0.00    -0.275 OA
ATOM     23  N   UNL     1      -0.176   4.843   2.208  0.00  0.00    -0.310 N 
ATOM     24  H   UNL     1       0.553   4.214   2.095  0.00  0.00    +0.149 HD
BRANCH  23  25
ATOM     25  C   UNL     1       0.058   6.278   2.029  0.00  0.00    +0.087 C 
BRANCH  25  26
ATOM     26  C   UNL     1       1.458   6.617   2.472  0.00  0.00    -0.029 A 
ATOM     27  C   UNL     1       2.504   5.764   2.172  0.00  0.00    +0.005 A 
ATOM     28  C   UNL     1       3.788   6.075   2.579  0.00  0.00    +0.000 A 
ATOM     29  C   UNL     1       4.026   7.239   3.286  0.00  0.00    +0.000 A 
ATOM     30  C   UNL     1       2.980   8.092   3.585  0.00  0.00    +0.000 A 
ATOM     31  C   UNL     1       1.697   7.783   3.175  0.00  0.00    +0.005 A 
ENDBRANCH  25  26
BRANCH  25  32
ATOM     32  C   UNL     1      -0.111   6.642   0.552  0.00  0.00    -0.052 C 
BRANCH  32  33
ATOM     33  N   UNL     1      -1.491   6.362   0.134  0.00  0.00    +0.377 N 
ATOM     34  C   UNL     1      -2.406   7.292   0.809  0.00  0.00    -0.097 C 
ATOM     35  C   UNL     1      -1.606   6.531  -1.321  0.00  0.00    -0.097 C 
ATOM     36  H   UNL     1      -1.732   5.414   0.382  0.00  0.00    -0.083 HD
ENDBRANCH  32  33
ENDBRANCH  25  32
ENDBRANCH  23  25
ENDBRANCH   5  21
TORSDOF 6
