REMARK  Name = ZINC36595382
REMARK  12 active torsions:
REMARK  status: ('A' for Active; 'I' for Inactive)
REMARK    1  A    between atoms: C_1  and  C_2
REMARK    2  A    between atoms: C_5  and  C_7
REMARK    3  A    between atoms: C_7  and  N_8
REMARK    4  A    between atoms: N_8  and  C_9
REMARK    5  A    between atoms: C_9  and  C_11
REMARK    6  A    between atoms: C_9  and  C_19
REMARK    7  A    between atoms: N_21  and  C_22
REMARK    8  A    between atoms: C_22  and  C_23
REMARK    9  A    between atoms: C_22  and  C_24
REMARK   10  A    between atoms: C_22  and  C_25
REMARK   11  A    between atoms: C_26  and  C_28
REMARK   12  A    between atoms: C_33  and  O_34
REMARK                            x       y       z     vdW  Elec       q    Type
REMARK                         _______ _______ _______ _____ _____    ______ ____
ROOT
ATOM      1  N   UNL     1       2.570  -2.728  -0.371  0.00  0.00    -0.274 N 
ATOM      2  C   UNL     1       1.936  -3.718   0.286  0.00  0.00    +0.251 C 
ATOM      3  O   UNL     1       2.247  -3.984   1.431  0.00  0.00    -0.270 OA
ENDROOT
BRANCH   2   4
ATOM      4  C   UNL     1       0.864  -4.480  -0.383  0.00  0.00    +0.078 A 
ATOM      5  C   UNL     1       0.951  -4.763  -1.748  0.00  0.00    +0.017 A 
ATOM      6  C   UNL     1      -0.053  -5.475  -2.367  0.00  0.00    +0.001 A 
ATOM      7  C   UNL     1      -1.150  -5.913  -1.641  0.00  0.00    +0.004 A 
ATOM      8  C   UNL     1      -1.248  -5.640  -0.292  0.00  0.00    +0.046 A 
ATOM      9  C   UNL     1      -0.244  -4.929   0.349  0.00  0.00    +0.129 A 
BRANCH   9  10
ATOM     10  O   UNL     1      -0.336  -4.665   1.676  0.00  0.00    -0.506 OA
ATOM     11  H   UNL     1      -0.787  -3.835   1.882  0.00  0.00    +0.292 HD
ENDBRANCH   9  10
ENDBRANCH   2   4
BRANCH   1  12
ATOM     12  C   UNL     1       3.185  -1.628   0.376  0.00  0.00    +0.183 C 
BRANCH  12  17
ATOM     13  C   UNL     1      -0.576   1.732   0.361  0.00  0.00    +0.086 C 
ATOM     14  C   UNL     1       0.476   0.773   0.854  0.00  0.00    +0.102 A 
ATOM     15  C   UNL     1       0.741   0.490   2.143  0.00  0.00    +0.045 A 
ATOM     16  C   UNL     1       1.795  -0.452   2.147  0.00  0.00    +0.046 A 
ATOM     17  C   UNL     1       2.112  -0.688   0.861  0.00  0.00    +0.122 A 
ATOM     18  O   UNL     1       1.306   0.052   0.083  0.00  0.00    -0.463 OA
ENDBRANCH  12  17
ENDBRANCH   1  12
BRANCH   1  19
ATOM     19  C   UNL     1       2.644  -2.750  -1.834  0.00  0.00    +0.196 C 
BRANCH  19  20
ATOM     20  C   UNL     1       1.256  -2.878  -2.406  0.00  0.00    +0.018 A 
ATOM     21  C   UNL     1       1.082  -3.273  -3.720  0.00  0.00    +0.048 A 
ATOM     22  C   UNL     1      -0.193  -3.390  -4.245  0.00  0.00    +0.020 A 
ATOM     23  C   UNL     1      -1.293  -3.112  -3.455  0.00  0.00    +0.003 A 
ATOM     24  C   UNL     1      -1.120  -2.717  -2.142  0.00  0.00    +0.020 A 
ATOM     25  C   UNL     1       0.154  -2.606  -1.615  0.00  0.00    +0.048 A 
ATOM     26 CL   UNL     1       0.371  -2.118   0.037  0.00  0.00    -0.083 Cl
ATOM     27 CL   UNL     1       2.464  -3.621  -4.712  0.00  0.00    -0.083 Cl
ENDBRANCH  19  20
BRANCH  19  28
ATOM     28  C   UNL     1       3.480  -3.924  -2.277  0.00  0.00    +0.239 C 
ATOM     29  O   UNL     1       3.213  -5.040  -1.885  0.00  0.00    -0.273 OA
ATOM     30  N   UNL     1       4.524  -3.733  -3.108  0.00  0.00    -0.309 N 
ATOM     31  H   UNL     1       4.746  -2.838  -3.409  0.00  0.00    +0.149 HD
BRANCH  30  32
ATOM     32  C   UNL     1       5.322  -4.877  -3.555  0.00  0.00    +0.026 C 
ATOM     33  C   UNL     1       4.429  -5.854  -4.322  0.00  0.00    +0.031 C 
ATOM     34  C   UNL     1       6.446  -4.387  -4.471  0.00  0.00    +0.031 C 
ATOM     35  C   UNL     1       5.926  -5.583  -2.340  0.00  0.00    +0.031 C 
ENDBRANCH  30  32
ENDBRANCH  19  28
ENDBRANCH   1  19
TORSDOF 8
