REMARK  Name = ZINC62875830
REMARK  5 active torsions:
REMARK  status: ('A' for Active; 'I' for Inactive)
REMARK    1  A    between atoms: C_1  and  C_2
REMARK    2  A    between atoms: C_8  and  C_10
REMARK    3  A    between atoms: C_10  and  N_11
REMARK    4  A    between atoms: C_15  and  C_17
REMARK    5  A    between atoms: C_15  and  C_18
REMARK                            x       y       z     vdW  Elec       q    Type
REMARK                         _______ _______ _______ _____ _____    ______ ____
ROOT
ATOM      1  N   UNL     1      -0.950  -4.928   3.883  0.00  0.00    +0.386 N 
ATOM      2  C   UNL     1      -2.090  -4.256   4.519  0.00  0.00    -0.078 C 
ATOM      3  C   UNL     1      -2.923  -5.280   5.292  0.00  0.00    -0.018 C 
ATOM      4  C   UNL     1      -2.050  -5.936   6.366  0.00  0.00    +0.014 C 
ATOM      5  C   UNL     1      -0.826  -6.569   5.698  0.00  0.00    +0.055 C 
ATOM      6  C   UNL     1      -0.070  -5.497   4.910  0.00  0.00    -0.060 C 
ATOM      7  C   UNL     1      -1.280  -7.678   4.746  0.00  0.00    +0.021 C 
ATOM      8  H   UNL     1      -1.289  -5.666   3.285  0.00  0.00    -0.081 HD
ENDROOT
BRANCH   5   9
ATOM      9  C   UNL     1       0.079  -7.150   6.753  0.00  0.00    +0.360 C 
ATOM     10  O   UNL     1      -0.334  -8.023   7.498  0.00  0.00    -0.246 OA
ATOM     11  O   UNL     1       1.225  -6.747   6.863  0.00  0.00    -0.246 OA
ENDBRANCH   5   9
BRANCH   1  12
ATOM     12  C   UNL     1      -0.198  -3.955   3.079  0.00  0.00    +0.019 C 
BRANCH  12  20
ATOM     13  C   UNL     1      -0.019   1.526   0.010  0.00  0.00    +0.007 C 
ATOM     14  C   UNL     1       0.002  -0.004   0.002  0.00  0.00    -0.011 C 
ATOM     15  C   UNL     1      -1.434  -0.533   0.011  0.00  0.00    +0.022 C 
ATOM     16  C   UNL     1      -1.409  -2.065  -0.032  0.00  0.00    +0.108 C 
ATOM     17  N   UNL     1      -0.578  -2.556   1.075  0.00  0.00    -0.303 N 
ATOM     18  C   UNL     1       0.791  -2.042   1.212  0.00  0.00    +0.108 C 
ATOM     19  C   UNL     1       0.742  -0.511   1.242  0.00  0.00    +0.022 C 
ATOM     20  C   UNL     1      -1.063  -3.461   1.948  0.00  0.00    +0.199 C 
ATOM     21  O   UNL     1      -2.195  -3.878   1.824  0.00  0.00    -0.278 OA
ENDBRANCH  12  20
ENDBRANCH   1  12
TORSDOF 3
