REMARK  Name = ZINC05742828
REMARK  7 active torsions:
REMARK  status: ('A' for Active; 'I' for Inactive)
REMARK    1  A    between atoms: C_1  and  C_2
REMARK    2  A    between atoms: C_5  and  S_8
REMARK    3  A    between atoms: S_8  and  N_11
REMARK    4  A    between atoms: C_15  and  C_17
REMARK    5  A    between atoms: C_17  and  C_18
REMARK    6  A    between atoms: C_21  and  C_25
REMARK    7  A    between atoms: C_22  and  C_24
REMARK                            x       y       z     vdW  Elec       q    Type
REMARK                         _______ _______ _______ _____ _____    ______ ____
ROOT
ATOM      1  N   UNL     1       1.840  -0.191  -2.039  0.00  0.00    -0.172 NA
ATOM      2  C   UNL     1       2.613  -1.083  -2.924  0.00  0.00    +0.111 C 
ATOM      3  C   UNL     1       3.807  -1.567  -2.060  0.00  0.00    +0.039 C 
ATOM      4  C   UNL     1       4.109  -0.310  -1.223  0.00  0.00    +0.092 C 
ATOM      5  C   UNL     1       2.737   0.330  -0.993  0.00  0.00    +0.103 C 
ATOM      6  C   UNL     1       4.795  -0.655   0.066  0.00  0.00    -0.010 A 
ATOM      7  C   UNL     1       4.460  -1.450   1.139  0.00  0.00    +0.006 A 
ATOM      8  C   UNL     1       5.327  -1.569   2.211  0.00  0.00    +0.000 A 
ATOM      9  C   UNL     1       6.531  -0.889   2.201  0.00  0.00    +0.002 A 
ATOM     10  C   UNL     1       6.872  -0.092   1.128  0.00  0.00    +0.023 A 
ATOM     11  C   UNL     1       6.005   0.034   0.045  0.00  0.00    +0.038 A 
ATOM     12  N   UNL     1       6.124   0.767  -1.138  0.00  0.00    -0.284 N 
ATOM     13  C   UNL     1       5.050   0.617  -1.938  0.00  0.00    +0.229 C 
ATOM     14  O   UNL     1       4.876   1.130  -3.023  0.00  0.00    -0.274 OA
ATOM     15  H   UNL     1       6.890   1.319  -1.359  0.00  0.00    +0.155 HD
ENDROOT
BRANCH   1  16
ATOM     16  S   UNL     1       0.230   0.166  -2.196  0.00  0.00    +0.061 S 
ATOM     17  O   UNL     1      -0.467  -1.070  -2.139  0.00  0.00    -0.153 OA
ATOM     18  O   UNL     1      -0.038   1.234  -1.297  0.00  0.00    -0.153 OA
BRANCH  16  23
ATOM     19  C   UNL     1      -0.578   2.351  -7.762  0.00  0.00    +0.044 C 
ATOM     20  C   UNL     1      -0.377   1.805  -6.371  0.00  0.00    -0.050 A 
ATOM     21  C   UNL     1      -0.490   0.447  -6.139  0.00  0.00    +0.005 A 
ATOM     22  C   UNL     1      -0.305  -0.053  -4.864  0.00  0.00    +0.029 A 
ATOM     23  C   UNL     1      -0.006   0.804  -3.821  0.00  0.00    +0.106 A 
ATOM     24  C   UNL     1       0.102   2.163  -4.053  0.00  0.00    +0.029 A 
ATOM     25  C   UNL     1      -0.079   2.663  -5.329  0.00  0.00    +0.005 A 
ENDBRANCH  16  23
ENDBRANCH   1  16
BRANCH   5  26
ATOM     26  C   UNL     1       2.206  -0.056   0.390  0.00  0.00    +0.057 C 
BRANCH  26  27
ATOM     27  C   UNL     1       1.005   0.792   0.721  0.00  0.00    -0.046 A 
ATOM     28  C   UNL     1      -0.265   0.251   0.644  0.00  0.00    +0.004 A 
ATOM     29  C   UNL     1      -1.367   1.030   0.943  0.00  0.00    +0.004 A 
ATOM     30  C   UNL     1      -1.198   2.348   1.328  0.00  0.00    -0.048 A 
ATOM     31  C   UNL     1       0.071   2.888   1.405  0.00  0.00    -0.047 A 
ATOM     32  C   UNL     1       1.173   2.110   1.101  0.00  0.00    +0.007 A 
ATOM     33  C   UNL     1       0.255   4.325   1.820  0.00  0.00    +0.044 C 
ATOM     34  C   UNL     1      -2.399   3.196   1.659  0.00  0.00    +0.044 C 
ENDBRANCH  26  27
ENDBRANCH   5  26
TORSDOF 4
