REMARK  Name = ZINC04177780
REMARK  11 active torsions:
REMARK  status: ('A' for Active; 'I' for Inactive)
REMARK    1  A    between atoms: C_1  and  C_2
REMARK    2  A    between atoms: C_2  and  C_36
REMARK    3  A    between atoms: C_5  and  C_33
REMARK    4  A    between atoms: C_6  and  N_13
REMARK    5  A    between atoms: C_9  and  C_11
REMARK    6  A    between atoms: C_9  and  C_12
REMARK    7  A    between atoms: C_14  and  C_16
REMARK    8  A    between atoms: C_19  and  S_22
REMARK    9  A    between atoms: S_22  and  N_25
REMARK   10  A    between atoms: N_25  and  C_26
REMARK   11  A    between atoms: N_25  and  C_27
REMARK                            x       y       z     vdW  Elec       q    Type
REMARK                         _______ _______ _______ _____ _____    ______ ____
ROOT
ATOM      1  N   UNL     1       0.834  -5.295  -2.983  0.00  0.00    -0.275 N 
ATOM      2  C   UNL     1       0.925  -6.561  -2.531  0.00  0.00    +0.249 C 
ATOM      3  O   UNL     1       1.008  -6.777  -1.337  0.00  0.00    -0.270 OA
ATOM      4  H   UNL     1       0.767  -5.123  -3.935  0.00  0.00    +0.156 HD
ENDROOT
BRANCH   1  10
ATOM      5  C   UNL     1      -0.019   1.536   0.011  0.00  0.00    -0.010 C 
ATOM      6  C   UNL     1       0.002  -0.004   0.002  0.00  0.00    -0.069 C 
ATOM      7  C   UNL     1       0.692  -0.456  -1.291  0.00  0.00    +0.024 C 
ATOM      8  C   UNL     1       0.775  -1.974  -1.245  0.00  0.00    -0.026 A 
ATOM      9  C   UNL     1       0.751  -2.881  -2.370  0.00  0.00    +0.068 A 
ATOM     10  C   UNL     1       0.836  -4.238  -2.087  0.00  0.00    +0.085 A 
ATOM     11  S   UNL     1       0.943  -4.303  -0.412  0.00  0.00    -0.079 S 
ATOM     12  C   UNL     1       0.893  -2.576  -0.038  0.00  0.00    -0.016 A 
ATOM     13  C   UNL     1       0.973  -1.895   1.287  0.00  0.00    -0.041 C 
ATOM     14  N   UNL     1       0.711  -0.460   1.190  0.00  0.00    +0.389 N 
ATOM     15  C   UNL     1      -0.015  -2.551   2.260  0.00  0.00    -0.005 C 
ATOM     16  C   UNL     1       2.394  -2.098   1.849  0.00  0.00    -0.005 C 
ATOM     17  C   UNL     1      -1.448  -0.493   0.003  0.00  0.00    -0.010 C 
ATOM     18  H   UNL     1       1.602   0.038   1.246  0.00  0.00    -0.084 HD
ATOM     19  H   UNL     1       0.182  -0.169   2.015  0.00  0.00    -0.084 HD
BRANCH   9  20
ATOM     20  C   UNL     1       0.645  -2.402  -3.752  0.00  0.00    +0.244 C 
ATOM     21  O   UNL     1       1.652  -2.153  -4.389  0.00  0.00    -0.270 OA
ATOM     22  N   UNL     1      -0.567  -2.237  -4.317  0.00  0.00    -0.325 N 
ATOM     23  H   UNL     1      -1.370  -2.435  -3.810  0.00  0.00    +0.145 HD
ATOM     24  H   UNL     1      -0.637  -1.920  -5.232  0.00  0.00    +0.145 HD
ENDBRANCH   9  20
ENDBRANCH   1  10
BRANCH   2  25
ATOM     25  C   UNL     1       0.923  -7.689  -3.486  0.00  0.00    +0.037 A 
ATOM     26  C   UNL     1       0.833  -7.445  -4.858  0.00  0.00    +0.015 A 
ATOM     27  C   UNL     1       0.832  -8.502  -5.745  0.00  0.00    +0.029 A 
ATOM     28  C   UNL     1       0.919  -9.801  -5.277  0.00  0.00    +0.106 A 
ATOM     29  C   UNL     1       1.008 -10.050  -3.919  0.00  0.00    +0.029 A 
ATOM     30  C   UNL     1       1.017  -9.002  -3.022  0.00  0.00    +0.015 A 
BRANCH  28  31
ATOM     31  S   UNL     1       0.917 -11.145  -6.417  0.00  0.00    +0.061 S 
ATOM     32  O   UNL     1       0.459 -12.284  -5.700  0.00  0.00    -0.153 OA
ATOM     33  O   UNL     1       0.275 -10.678  -7.595  0.00  0.00    -0.153 OA
BRANCH  31  34
ATOM     34  N   UNL     1       2.494 -11.445  -6.824  0.00  0.00    -0.177 NA
ATOM     35  C   UNL     1       3.285 -12.396  -6.038  0.00  0.00    +0.132 C 
BRANCH  34  36
ATOM     36  C   UNL     1       3.098 -10.759  -7.969  0.00  0.00    +0.080 C 
ATOM     37  C   UNL     1       3.560 -11.794  -8.997  0.00  0.00    +0.020 C 
ATOM     38  C   UNL     1       4.191 -11.078 -10.193  0.00  0.00    +0.002 C 
ATOM     39  C   UNL     1       5.392 -10.257  -9.720  0.00  0.00    +0.000 C 
ATOM     40  C   UNL     1       4.930  -9.222  -8.692  0.00  0.00    +0.002 C 
ATOM     41  C   UNL     1       4.300  -9.938  -7.496  0.00  0.00    +0.020 C 
ENDBRANCH  34  36
ENDBRANCH  31  34
ENDBRANCH  28  31
ENDBRANCH   2  25
TORSDOF 6
