REMARK  Name = ZINC06135186
REMARK  8 active torsions:
REMARK  status: ('A' for Active; 'I' for Inactive)
REMARK    1  A    between atoms: C_1  and  C_2
REMARK    2  A    between atoms: C_2  and  C_3
REMARK    3  A    between atoms: C_10  and  C_15
REMARK    4  A    between atoms: C_15  and  C_17
REMARK    5  A    between atoms: C_15  and  N_70
REMARK    6  A    between atoms: N_21  and  C_22
REMARK    7  A    between atoms: N_29  and  C_32
REMARK    8  A    between atoms: C_35  and  O_38
REMARK                            x       y       z     vdW  Elec       q    Type
REMARK                         _______ _______ _______ _____ _____    ______ ____
ROOT
ATOM      1  C   UNL     1       2.591  -0.626  -0.056  0.00  0.00    +0.039 C 
ENDROOT
BRANCH   1   9
ATOM      2  C   UNL     1       4.574  -0.515   5.804  0.00  0.00    -0.047 A 
ATOM      3  C   UNL     1       4.754  -1.885   5.933  0.00  0.00    +0.005 A 
ATOM      4  C   UNL     1       4.480  -2.733   4.882  0.00  0.00    +0.026 A 
ATOM      5  C   UNL     1       4.019  -2.212   3.677  0.00  0.00    +0.049 A 
ATOM      6  C   UNL     1       3.838  -0.822   3.550  0.00  0.00    -0.001 A 
ATOM      7  C   UNL     1       4.122   0.019   4.631  0.00  0.00    +0.013 A 
ATOM      8  C   UNL     1       3.352  -0.283   2.278  0.00  0.00    +0.017 A 
ATOM      9  C   UNL     1       3.092  -1.147   1.266  0.00  0.00    +0.011 A 
ATOM     10  C   UNL     1       3.285  -2.534   1.447  0.00  0.00    +0.251 A 
ATOM     11  O   UNL     1       3.041  -3.293   0.525  0.00  0.00    -0.268 OA
ATOM     12  N   UNL     1       3.736  -3.037   2.609  0.00  0.00    -0.322 N 
ATOM     13  H   UNL     1       3.869  -4.024   2.700  0.00  0.00    +0.169 HD
BRANCH   2  15
ATOM     14  C   UNL     1       3.624   0.565   7.824  0.00  0.00    +0.009 C 
ATOM     15  C   UNL     1       4.880   0.392   6.968  0.00  0.00    +0.032 C 
ENDBRANCH   2  15
ENDBRANCH   1   9
BRANCH   1  21
ATOM     16  C   UNL     1       4.888  -0.518  -0.813  0.00  0.00    -0.058 C 
ATOM     17  C   UNL     1       5.853  -0.993  -1.902  0.00  0.00    +0.086 C 
ATOM     18  N   UNL     1       5.401  -0.490  -3.207  0.00  0.00    -0.333 N 
ATOM     19  C   UNL     1       4.046  -0.970  -3.513  0.00  0.00    +0.086 C 
ATOM     20  C   UNL     1       3.082  -0.495  -2.424  0.00  0.00    -0.058 C 
ATOM     21  N   UNL     1       3.535  -1.026  -1.121  0.00  0.00    +0.391 N 
ATOM     22  H   UNL     1       3.566  -2.051  -1.171  0.00  0.00    -0.080 HD
BRANCH  18  23
ATOM     23  C   UNL     1       6.300  -0.845  -4.220  0.00  0.00    +0.030 A 
ATOM     24  C   UNL     1       5.856  -1.563  -5.322  0.00  0.00    +0.026 A 
ATOM     25  C   UNL     1       6.742  -1.908  -6.324  0.00  0.00    +0.047 A 
ATOM     26  C   UNL     1       8.077  -1.547  -6.223  0.00  0.00    +0.117 A 
ATOM     27  C   UNL     1       8.523  -0.834  -5.120  0.00  0.00    +0.047 A 
ATOM     28  C   UNL     1       7.637  -0.483  -4.120  0.00  0.00    +0.026 A 
BRANCH  26  29
ATOM     29  O   UNL     1       8.950  -1.892  -7.207  0.00  0.00    -0.507 OA
ATOM     30  H   UNL     1       9.376  -2.749  -7.072  0.00  0.00    +0.292 HD
ENDBRANCH  26  29
ENDBRANCH  18  23
ENDBRANCH   1  21
BRANCH   1  31
ATOM     31  C   UNL     1       2.473   0.875   0.008  0.00  0.00    +0.143 A 
ATOM     32  N   UNL     1       3.458   1.740  -0.029  0.00  0.00    -0.115 NA
ATOM     33  N   UNL     1       2.952   2.922   0.051  0.00  0.00    -0.023 NA
ATOM     34  N   UNL     1       1.671   2.835   0.133  0.00  0.00    -0.044 NA
ATOM     35  N   UNL     1       1.337   1.589   0.115  0.00  0.00    -0.227 N 
BRANCH  35  36
ATOM     36  C   UNL     1      -0.024   1.051   0.191  0.00  0.00    +0.111 C 
ATOM     37  C   UNL     1      -0.709   1.527   1.488  0.00  0.00    +0.027 C 
ATOM     38  C   UNL     1      -1.518   2.775   1.055  0.00  0.00    +0.002 C 
ATOM     39  C   UNL     1      -2.039   2.375  -0.348  0.00  0.00    +0.002 C 
ATOM     40  C   UNL     1      -0.870   1.591  -0.977  0.00  0.00    +0.027 C 
ENDBRANCH  35  36
ENDBRANCH   1  31
TORSDOF 7
