REMARK  Name = ZINC10538747
REMARK  9 active torsions:
REMARK  status: ('A' for Active; 'I' for Inactive)
REMARK    1  A    between atoms: C_1  and  C_2
REMARK    2  A    between atoms: C_2  and  C_3
REMARK    3  A    between atoms: C_2  and  C_4
REMARK    4  A    between atoms: C_4  and  N_5
REMARK    5  A    between atoms: C_6  and  N_30
REMARK    6  A    between atoms: C_7  and  C_14
REMARK    7  A    between atoms: C_14  and  C_16
REMARK    8  A    between atoms: C_16  and  N_17
REMARK    9  A    between atoms: C_21  and  C_22
REMARK                            x       y       z     vdW  Elec       q    Type
REMARK                         _______ _______ _______ _____ _____    ______ ____
ROOT
ATOM      1  N   UNL     1      10.932   2.486   3.099  0.00  0.00    -0.281 N 
ATOM      2  C   UNL     1       9.592   2.678   2.913  0.00  0.00    +0.116 A 
ATOM      3  C   UNL     1       9.075   2.643   1.607  0.00  0.00    +0.121 A 
ATOM      4  C   UNL     1      10.015   2.411   0.502  0.00  0.00    +0.266 A 
ATOM      5  O   UNL     1       9.624   2.376  -0.650  0.00  0.00    -0.267 OA
ATOM      6  N   UNL     1      11.322   2.239   0.791  0.00  0.00    -0.274 N 
ATOM      7  H   UNL     1      11.974   2.080   0.051  0.00  0.00    +0.173 HD
ATOM      8  C   UNL     1      11.757   2.277   2.061  0.00  0.00    +0.331 A 
ATOM      9  O   UNL     1      12.942   2.116   2.279  0.00  0.00    -0.246 OA
ENDROOT
BRANCH   2  10
ATOM     10  N   UNL     1       8.771   2.894   3.976  0.00  0.00    -0.344 N 
ATOM     11  H   UNL     1       7.812   2.952   3.844  0.00  0.00    +0.144 HD
ATOM     12  H   UNL     1       9.145   2.990   4.866  0.00  0.00    +0.144 HD
ENDBRANCH   2  10
BRANCH   3  13
ATOM     13  C   UNL     1       7.698   2.829   1.363  0.00  0.00    +0.189 C 
ATOM     14  O   UNL     1       6.923   2.920   2.295  0.00  0.00    -0.290 OA
BRANCH  13  15
ATOM     15  C   UNL     1       7.188   2.917  -0.052  0.00  0.00    +0.197 C 
BRANCH  15  16
ATOM     16  N   UNL     1       5.735   3.110  -0.037  0.00  0.00    -0.221 N 
ATOM     17  C   UNL     1       4.938   2.055  -0.040  0.00  0.00    +0.261 C 
ATOM     18  O   UNL     1       5.393   0.926  -0.054  0.00  0.00    -0.269 OA
ATOM     19  C   UNL     1       3.529   2.281  -0.030  0.00  0.00    +0.080 C 
ATOM     20  C   UNL     1       2.506   1.379  -0.035  0.00  0.00    +0.035 C 
ATOM     21  S   UNL     1       3.469   4.067  -0.003  0.00  0.00    -0.026 S 
ATOM     22  C   UNL     1       5.231   4.363  -0.014  0.00  0.00    +0.286 C 
ATOM     23  O   UNL     1       5.825   5.424  -0.003  0.00  0.00    -0.262 OA
BRANCH  20  24
ATOM     24  C   UNL     1       1.166   1.829  -0.017  0.00  0.00    +0.013 A 
ATOM     25  C   UNL     1      -0.009   1.086  -0.018  0.00  0.00    +0.015 A 
ATOM     26  C   UNL     1      -1.190   1.786  -0.004  0.00  0.00    +0.008 A 
ATOM     27  C   UNL     1      -1.155   3.145   0.021  0.00  0.00    +0.046 A 
ATOM     28  S   UNL     1       0.541   3.500   0.012  0.00  0.00    -0.097 S 
ENDBRANCH  20  24
ENDBRANCH  15  16
ENDBRANCH  13  15
ENDBRANCH   3  13
BRANCH   1  29
ATOM     29  C   UNL     1      11.479   2.515   4.457  0.00  0.00    +0.131 C 
BRANCH  29  31
ATOM     30  C   UNL     1      10.636   4.832   4.861  0.00  0.00    +0.009 C 
ATOM     31  C   UNL     1      11.884   3.947   4.814  0.00  0.00    +0.003 C 
ATOM     32  C   UNL     1      12.569   3.958   6.181  0.00  0.00    +0.009 C 
ENDBRANCH  29  31
ENDBRANCH   1  29
TORSDOF 7
