REMARK  Name = ZINC16754486
REMARK  3 active torsions:
REMARK  status: ('A' for Active; 'I' for Inactive)
REMARK    1  A    between atoms: C_4  and  O_22
REMARK    2  A    between atoms: C_5  and  N_7
REMARK    3  A    between atoms: C_10  and  C_11
REMARK                            x       y       z     vdW  Elec       q    Type
REMARK                         _______ _______ _______ _____ _____    ______ ____
ROOT
ATOM      1  N   UNL     1      -2.348   3.853  -0.627  0.00  0.00    -0.228 NA
ATOM      2  C   UNL     1      -2.364   5.166  -0.560  0.00  0.00    +0.140 C 
ATOM      3  C   UNL     1      -1.155   5.948  -0.230  0.00  0.00    +0.058 C 
ATOM      4  C   UNL     1       0.101   5.516   0.047  0.00  0.00    +0.026 C 
ATOM      5  S   UNL     1      -1.794   7.615  -0.293  0.00  0.00    -0.028 S 
ATOM      6  C   UNL     1      -3.483   7.231  -0.717  0.00  0.00    +0.282 C 
ATOM      7  O   UNL     1      -4.407   8.001  -0.896  0.00  0.00    -0.262 OA
ATOM      8  N   UNL     1      -3.494   5.886  -0.797  0.00  0.00    -0.260 N 
ATOM      9  H   UNL     1      -4.317   5.425  -1.022  0.00  0.00    +0.157 HD
ENDROOT
BRANCH   4  10
ATOM     10  C   UNL     1       1.199   6.485   0.177  0.00  0.00    -0.024 A 
ATOM     11  C   UNL     1       1.050   7.787  -0.314  0.00  0.00    +0.009 A 
ATOM     12  C   UNL     1       2.082   8.691  -0.183  0.00  0.00    +0.020 A 
ATOM     13  C   UNL     1       3.269   8.310   0.422  0.00  0.00    +0.041 A 
ATOM     14  C   UNL     1       3.425   7.021   0.905  0.00  0.00    +0.020 A 
ATOM     15  C   UNL     1       2.400   6.108   0.787  0.00  0.00    +0.009 A 
ATOM     16 CL   UNL     1       4.566   9.454   0.575  0.00  0.00    -0.084 Cl
ENDBRANCH   4  10
BRANCH   1  21
ATOM     17  C   UNL     1       0.855   2.104  -0.728  0.00  0.00    +0.002 A 
ATOM     18  C   UNL     1       1.004   1.760   0.605  0.00  0.00    +0.004 A 
ATOM     19  C   UNL     1       0.038   2.112   1.530  0.00  0.00    +0.047 A 
ATOM     20  C   UNL     1      -1.089   2.807   1.127  0.00  0.00    +0.142 A 
ATOM     21  C   UNL     1      -1.242   3.163  -0.220  0.00  0.00    +0.107 A 
ATOM     22  C   UNL     1      -0.260   2.801  -1.146  0.00  0.00    +0.031 A 
BRANCH  20  23
ATOM     23  O   UNL     1      -2.041   3.149   2.035  0.00  0.00    -0.505 OA
ATOM     24  H   UNL     1      -1.899   4.011   2.449  0.00  0.00    +0.292 HD
ENDBRANCH  20  23
ENDBRANCH   1  21
TORSDOF 3
