REMARK  Name = ZINC36571017
REMARK  15 active torsions:
REMARK  status: ('A' for Active; 'I' for Inactive)
REMARK    1  A    between atoms: C_1  and  C_2
REMARK    2  A    between atoms: C_2  and  C_3
REMARK    3  A    between atoms: C_3  and  N_4
REMARK    4  A    between atoms: N_4  and  C_5
REMARK    5  A    between atoms: C_5  and  C_7
REMARK    6  A    between atoms: C_5  and  C_16
REMARK    7  A    between atoms: C_7  and  C_9
REMARK    8  A    between atoms: C_7  and  C_10
REMARK    9  A    between atoms: N_18  and  C_19
REMARK   10  A    between atoms: C_19  and  S_20
REMARK   11  A    between atoms: S_20  and  C_23
REMARK   12  A    between atoms: C_26  and  C_29
REMARK   13  A    between atoms: C_30  and  C_32
REMARK   14  A    between atoms: C_33  and  O_39
REMARK   15  A    between atoms: C_37  and  O_38
REMARK                            x       y       z     vdW  Elec       q    Type
REMARK                         _______ _______ _______ _____ _____    ______ ____
ROOT
ATOM      1  C   UNL     1      -1.457  -2.833   1.053  0.00  0.00    +0.169 C 
ENDROOT
BRANCH   1   2
ATOM      2  C   UNL     1      -0.387  -2.507   2.064  0.00  0.00    +0.235 C 
ATOM      3  O   UNL     1      -0.404  -1.441   2.642  0.00  0.00    -0.274 OA
ATOM      4  N   UNL     1       0.587  -3.401   2.326  0.00  0.00    -0.295 N 
ATOM      5  H   UNL     1       0.642  -4.222   1.813  0.00  0.00    +0.150 HD
BRANCH   4   6
ATOM      6  C   UNL     1       1.563  -3.131   3.385  0.00  0.00    +0.278 C 
BRANCH   6   7
ATOM      7  S   UNL     1       1.020  -3.923   4.924  0.00  0.00    +0.013 S 
ATOM      8  O   UNL     1       1.988  -3.724   5.945  0.00  0.00    -0.168 OA
ATOM      9  O   UNL     1      -0.352  -3.641   5.162  0.00  0.00    -0.168 OA
BRANCH   7  10
ATOM     10  C   UNL     1       1.071  -5.651   4.586  0.00  0.00    +0.090 A 
ATOM     11  C   UNL     1      -0.041  -6.288   4.069  0.00  0.00    +0.027 A 
ATOM     12  C   UNL     1      -0.001  -7.644   3.804  0.00  0.00    +0.005 A 
ATOM     13  C   UNL     1       1.153  -8.364   4.057  0.00  0.00    -0.050 A 
ATOM     14  C   UNL     1       2.265  -7.727   4.573  0.00  0.00    +0.005 A 
ATOM     15  C   UNL     1       2.226  -6.370   4.834  0.00  0.00    +0.027 A 
ATOM     16  C   UNL     1       1.196  -9.842   3.769  0.00  0.00    +0.044 C 
ENDBRANCH   7  10
ENDBRANCH   6   7
ENDBRANCH   4   6
ENDBRANCH   1   2
BRANCH   1  17
ATOM     17  N   UNL     1      -1.577  -1.729   0.097  0.00  0.00    -0.285 N 
ATOM     18  C   UNL     1      -1.480  -1.969  -1.225  0.00  0.00    +0.254 C 
ATOM     19  O   UNL     1      -1.292  -3.103  -1.625  0.00  0.00    -0.270 OA
BRANCH  18  20
ATOM     20  C   UNL     1      -1.601  -0.860  -2.186  0.00  0.00    +0.119 A 
ATOM     21  C   UNL     1      -0.462  -0.153  -2.596  0.00  0.00    +0.133 A 
ATOM     22  C   UNL     1      -0.587   0.889  -3.500  0.00  0.00    +0.046 A 
ATOM     23  C   UNL     1      -1.830   1.232  -3.999  0.00  0.00    +0.007 A 
ATOM     24  C   UNL     1      -2.960   0.541  -3.602  0.00  0.00    +0.046 A 
ATOM     25  C   UNL     1      -2.857  -0.507  -2.702  0.00  0.00    +0.133 A 
BRANCH  25  26
ATOM     26  O   UNL     1      -3.966  -1.187  -2.318  0.00  0.00    -0.506 OA
ATOM     27  H   UNL     1      -4.404  -0.818  -1.539  0.00  0.00    +0.292 HD
ENDBRANCH  25  26
BRANCH  21  28
ATOM     28  O   UNL     1       0.759  -0.487  -2.107  0.00  0.00    -0.506 OA
ATOM     29  H   UNL     1       1.225  -1.151  -2.634  0.00  0.00    +0.292 HD
ENDBRANCH  21  28
ENDBRANCH  18  20
BRANCH  17  30
ATOM     30  C   UNL     1      -1.804  -0.364   0.579  0.00  0.00    +0.108 C 
BRANCH  30  32
ATOM     31  C   UNL     1      -0.717   1.834   1.057  0.00  0.00    +0.005 C 
ATOM     32  C   UNL     1      -0.470   0.382   0.644  0.00  0.00    +0.016 C 
ENDBRANCH  30  32
ENDBRANCH  17  30
ENDBRANCH   1  17
BRANCH   1  33
ATOM     33  C   UNL     1      -2.793  -3.034   1.771  0.00  0.00    +0.045 C 
ATOM     34  C   UNL     1      -2.677  -4.210   2.744  0.00  0.00    +0.015 C 
BRANCH  33  35
ATOM     35  C   UNL     1      -3.869  -3.325   0.757  0.00  0.00    -0.042 A 
ATOM     36  C   UNL     1      -3.765  -4.433  -0.062  0.00  0.00    +0.004 A 
ATOM     37  C   UNL     1      -4.753  -4.700  -0.992  0.00  0.00    +0.000 A 
ATOM     38  C   UNL     1      -5.844  -3.858  -1.103  0.00  0.00    +0.000 A 
ATOM     39  C   UNL     1      -5.948  -2.750  -0.282  0.00  0.00    +0.000 A 
ATOM     40  C   UNL     1      -4.963  -2.486   0.651  0.00  0.00    +0.004 A 
ENDBRANCH  33  35
ENDBRANCH   1  33
TORSDOF 12
