REMARK  Name = ZINC39494266
REMARK  12 active torsions:
REMARK  status: ('A' for Active; 'I' for Inactive)
REMARK    1  A    between atoms: C_1  and  C_2
REMARK    2  A    between atoms: C_2  and  C_3
REMARK    3  A    between atoms: C_2  and  S_4
REMARK    4  A    between atoms: S_4  and  C_7
REMARK    5  A    between atoms: C_7  and  C_9
REMARK    6  A    between atoms: C_9  and  C_11
REMARK    7  A    between atoms: C_9  and  C_18
REMARK    8  A    between atoms: C_16  and  O_17
REMARK    9  A    between atoms: C_18  and  C_20
REMARK   10  A    between atoms: C_18  and  N_26
REMARK   11  A    between atoms: C_27  and  C_29
REMARK   12  A    between atoms: C_34  and  O_35
REMARK                            x       y       z     vdW  Elec       q    Type
REMARK                         _______ _______ _______ _____ _____    ______ ____
ROOT
ATOM      1  C   UNL     1      -4.452   1.377  -0.646  0.00  0.00    +0.120 C 
ENDROOT
BRANCH   1   2
ATOM      2  C   UNL     1      -5.276   0.359  -1.392  0.00  0.00    -0.026 A 
ATOM      3  C   UNL     1      -5.114  -0.989  -1.127  0.00  0.00    +0.005 A 
ATOM      4  C   UNL     1      -5.870  -1.922  -1.811  0.00  0.00    +0.000 A 
ATOM      5  C   UNL     1      -6.788  -1.509  -2.759  0.00  0.00    +0.000 A 
ATOM      6  C   UNL     1      -6.950  -0.162  -3.022  0.00  0.00    +0.000 A 
ATOM      7  C   UNL     1      -6.197   0.772  -2.336  0.00  0.00    +0.005 A 
ENDBRANCH   1   2
BRANCH   1   8
ATOM      8  N   UNL     1      -4.329   0.973   0.757  0.00  0.00    -0.303 N 
ATOM      9  C   UNL     1      -5.312   1.268   1.631  0.00  0.00    +0.248 C 
ATOM     10  O   UNL     1      -6.341   1.783   1.238  0.00  0.00    -0.270 OA
ATOM     11  H   UNL     1      -3.541   0.494   1.056  0.00  0.00    +0.150 HD
BRANCH   9  12
ATOM     12  C   UNL     1      -5.139   0.966   3.065  0.00  0.00    +0.078 A 
ATOM     13  C   UNL     1      -3.917   0.480   3.538  0.00  0.00    +0.017 A 
ATOM     14  C   UNL     1      -3.762   0.200   4.878  0.00  0.00    +0.001 A 
ATOM     15  C   UNL     1      -4.811   0.400   5.760  0.00  0.00    +0.004 A 
ATOM     16  C   UNL     1      -6.024   0.880   5.306  0.00  0.00    +0.046 A 
ATOM     17  C   UNL     1      -6.196   1.171   3.961  0.00  0.00    +0.129 A 
BRANCH  17  18
ATOM     18  O   UNL     1      -7.385   1.648   3.514  0.00  0.00    -0.506 OA
ATOM     19  H   UNL     1      -8.009   0.960   3.245  0.00  0.00    +0.292 HD
ENDBRANCH  17  18
ENDBRANCH   9  12
ENDBRANCH   1   8
BRANCH   1  20
ATOM     20  C   UNL     1      -3.060   1.465  -1.275  0.00  0.00    +0.137 C 
BRANCH  20  21
ATOM     21  C   UNL     1      -2.401   0.111  -1.229  0.00  0.00    +0.008 A 
ATOM     22  C   UNL     1      -1.890  -0.369  -0.038  0.00  0.00    +0.008 A 
ATOM     23  C   UNL     1      -1.285  -1.611   0.004  0.00  0.00    +0.001 A 
ATOM     24  C   UNL     1      -1.190  -2.377  -1.144  0.00  0.00    +0.004 A 
ATOM     25  C   UNL     1      -1.699  -1.901  -2.336  0.00  0.00    +0.046 A 
ATOM     26  C   UNL     1      -2.312  -0.657  -2.381  0.00  0.00    +0.121 A 
BRANCH  26  27
ATOM     27  O   UNL     1      -2.819  -0.190  -3.551  0.00  0.00    -0.506 OA
ATOM     28  H   UNL     1      -2.187   0.319  -4.079  0.00  0.00    +0.292 HD
ENDBRANCH  26  27
ENDBRANCH  20  21
BRANCH  20  29
ATOM     29  C   UNL     1      -2.224   2.457  -0.507  0.00  0.00    +0.277 C 
ATOM     30  O   UNL     1      -1.404   2.067   0.288  0.00  0.00    -0.271 OA
BRANCH  29  31
ATOM     31  S   UNL     1      -2.445   4.185  -0.770  0.00  0.00    +0.033 S 
ATOM     32  O   UNL     1      -1.944   4.798   0.410  0.00  0.00    -0.166 OA
ATOM     33  O   UNL     1      -3.810   4.325  -1.136  0.00  0.00    -0.166 OA
BRANCH  31  35
ATOM     34  C   UNL     1      -1.813   3.764  -3.398  0.00  0.00    +0.032 C 
ATOM     35  C   UNL     1      -1.376   4.582  -2.182  0.00  0.00    +0.133 C 
ATOM     36  C   UNL     1      -1.488   6.074  -2.503  0.00  0.00    +0.032 C 
ENDBRANCH  31  35
ENDBRANCH  29  31
ENDBRANCH  20  29
ENDBRANCH   1  20
TORSDOF 10
