REMARK  Name = ZINC04046756
REMARK  9 active torsions:
REMARK  status: ('A' for Active; 'I' for Inactive)
REMARK    1  A    between atoms: C_1  and  C_2
REMARK    2  A    between atoms: C_6  and  C_27
REMARK    3  A    between atoms: C_6  and  O_28
REMARK    4  A    between atoms: C_7  and  O_26
REMARK    5  A    between atoms: C_17  and  C_19
REMARK    6  A    between atoms: C_19  and  N_57
REMARK    7  A    between atoms: C_20  and  C_21
REMARK    8  A    between atoms: C_20  and  N_57
REMARK    9  A    between atoms: O_28  and  C_29
REMARK                            x       y       z     vdW  Elec       q    Type
REMARK                         _______ _______ _______ _____ _____    ______ ____
ROOT
ATOM      1  C   UNL     1      -3.667   8.508  -7.050  0.00  0.00    +0.014 C 
ATOM      2  C   UNL     1      -4.148   8.525  -5.589  0.00  0.00    +0.003 C 
ATOM      3  C   UNL     1      -5.244   9.575  -5.435  0.00  0.00    +0.010 C 
ATOM      4  C   UNL     1      -4.667  10.965  -5.698  0.00  0.00    +0.003 C 
ATOM      5  C   UNL     1      -3.560  11.265  -4.695  0.00  0.00    +0.037 C 
ATOM      6  C   UNL     1      -2.455  10.219  -4.715  0.00  0.00    +0.095 C 
ATOM      7  C   UNL     1      -3.001   8.790  -4.627  0.00  0.00    +0.100 C 
ATOM      8  C   UNL     1      -3.466   8.606  -3.179  0.00  0.00    +0.046 C 
ATOM      9  C   UNL     1      -4.233   7.355  -2.884  0.00  0.00    +0.044 C 
ATOM     10  C   UNL     1      -5.308   7.005  -3.929  0.00  0.00    +0.181 C 
ATOM     11  C   UNL     1      -4.734   7.133  -5.335  0.00  0.00    +0.054 C 
ATOM     12  O   UNL     1      -5.492   5.559  -3.684  0.00  0.00    -0.461 OA
ATOM     13  C   UNL     1      -4.263   5.030  -3.503  0.00  0.00    +0.309 C 
ATOM     14  O   UNL     1      -3.922   3.914  -3.812  0.00  0.00    -0.251 OA
ATOM     15  C   UNL     1      -3.377   6.078  -2.847  0.00  0.00    +0.087 C 
ATOM     16  C   UNL     1      -1.534  10.417  -5.915  0.00  0.00    +0.044 C 
ENDROOT
BRANCH   7  17
ATOM     17  O   UNL     1      -1.925   7.875  -4.896  0.00  0.00    -0.385 OA
ATOM     18  H   UNL     1      -1.158   7.989  -4.317  0.00  0.00    +0.210 HD
ENDBRANCH   7  17
BRANCH   6  19
ATOM     19  O   UNL     1      -1.645  10.437  -3.534  0.00  0.00    -0.374 OA
ATOM     20  C   UNL     1      -1.044  11.732  -3.471  0.00  0.00    +0.194 C 
ENDBRANCH   6  19
BRANCH  15  21
ATOM     21  C   UNL     1      -3.069   5.681  -1.400  0.00  0.00    -0.067 C 
BRANCH  21  22
ATOM     22  N   UNL     1      -2.204   4.486  -1.400  0.00  0.00    +0.384 N 
ATOM     23  H   UNL     1      -1.331   4.701  -1.896  0.00  0.00    -0.085 HD
ATOM     24  H   UNL     1      -2.688   3.717  -1.877  0.00  0.00    -0.085 HD
BRANCH  22  25
ATOM     25  C   UNL     1      -1.891   4.080  -0.017  0.00  0.00    -0.007 C 
BRANCH  25  26
ATOM     26  C   UNL     1      -1.007   2.860  -0.049  0.00  0.00    +0.088 A 
ATOM     27  C   UNL     1       0.338   2.864  -0.077  0.00  0.00    +0.042 A 
ATOM     28  C   UNL     1       0.751   1.512  -0.099  0.00  0.00    +0.041 A 
ATOM     29  C   UNL     1      -0.367   0.763  -0.083  0.00  0.00    +0.195 A 
ATOM     30  O   UNL     1      -1.428   1.585  -0.058  0.00  0.00    -0.470 OA
ENDBRANCH  25  26
ENDBRANCH  22  25
ENDBRANCH  21  22
ENDBRANCH  15  21
TORSDOF 6
