REMARK  Name = ZINC06813610
REMARK  4 active torsions:
REMARK  status: ('A' for Active; 'I' for Inactive)
REMARK    1  A    between atoms: C_3  and  C_6
REMARK    2  A    between atoms: N_7  and  N_8
REMARK    3  A    between atoms: C_9  and  C_11
REMARK    4  A    between atoms: C_13  and  C_17
REMARK                            x       y       z     vdW  Elec       q    Type
REMARK                         _______ _______ _______ _____ _____    ______ ____
ROOT
ATOM      1  C   UNL     1       7.702  -1.778  -0.081  0.00  0.00    +0.122 A 
ATOM      2  C   UNL     1       8.503  -2.905  -0.100  0.00  0.00    +0.062 A 
ATOM      3  C   UNL     1       9.824  -2.421  -0.109  0.00  0.00    +0.095 A 
ATOM      4  N   UNL     1       9.766  -1.106  -0.095  0.00  0.00    -0.173 NA
ATOM      5  N   UNL     1       8.547  -0.703  -0.084  0.00  0.00    -0.272 N 
ATOM      6  H   UNL     1       8.267   0.226  -0.076  0.00  0.00    +0.189 HD
ENDROOT
BRANCH   3   7
ATOM      7  C   UNL     1      11.059  -3.245  -0.128  0.00  0.00    +0.020 A 
ATOM      8  C   UNL     1      10.972  -4.635  -0.147  0.00  0.00    +0.013 A 
ATOM      9  C   UNL     1      12.122  -5.396  -0.166  0.00  0.00    +0.021 A 
ATOM     10  C   UNL     1      13.363  -4.782  -0.166  0.00  0.00    +0.042 A 
ATOM     11  C   UNL     1      13.456  -3.401  -0.148  0.00  0.00    +0.040 A 
ATOM     12  C   UNL     1      12.310  -2.630  -0.135  0.00  0.00    +0.052 A 
ATOM     13 CL   UNL     1      12.427  -0.898  -0.119  0.00  0.00    -0.083 Cl
ATOM     14 CL   UNL     1      14.806  -5.746  -0.189  0.00  0.00    -0.083 Cl
ENDBRANCH   3   7
BRANCH   1  16
ATOM     15  N   UNL     1       5.586  -0.559  -0.054  0.00  0.00    -0.202 N 
ATOM     16  C   UNL     1       6.232  -1.742  -0.067  0.00  0.00    +0.281 C 
ATOM     17  O   UNL     1       5.598  -2.781  -0.066  0.00  0.00    -0.267 OA
ATOM     18  H   UNL     1       6.092   0.269  -0.055  0.00  0.00    +0.178 HD
BRANCH  15  20
ATOM     19  C   UNL     1       3.563   0.617  -0.029  0.00  0.00    +0.176 C 
ATOM     20  N   UNL     1       4.186  -0.525  -0.041  0.00  0.00    -0.184 NA
BRANCH  19  23
ATOM     21  C   UNL     1      -0.016   1.345   0.009  0.00  0.00    +0.042 A 
ATOM     22  C   UNL     1       1.323   1.777  -0.001  0.00  0.00    +0.051 A 
ATOM     23  C   UNL     1       2.098   0.653  -0.015  0.00  0.00    +0.147 A 
ATOM     24  O   UNL     1       1.279  -0.418  -0.012  0.00  0.00    -0.462 OA
ATOM     25  C   UNL     1       0.002  -0.004   0.002  0.00  0.00    +0.196 A 
ENDBRANCH  19  23
ENDBRANCH  15  20
ENDBRANCH   1  16
TORSDOF 4
