REMARK  Name = ZINC39877317
REMARK  5 active torsions:
REMARK  status: ('A' for Active; 'I' for Inactive)
REMARK    1  A    between atoms: C_1  and  C_2
REMARK    2  A    between atoms: C_7  and  C_8
REMARK    3  A    between atoms: C_14  and  C_26
REMARK    4  A    between atoms: N_16  and  C_19
REMARK    5  A    between atoms: C_30  and  N_32
REMARK                            x       y       z     vdW  Elec       q    Type
REMARK                         _______ _______ _______ _____ _____    ______ ____
ROOT
ATOM      1  C   UNL     1      -0.018   1.503   0.010  0.00  0.00    +0.044 C 
ATOM      2  C   UNL     1       0.002  -0.004   0.002  0.00  0.00    -0.047 A 
ATOM      3  C   UNL     1       0.006  -0.685  -1.195  0.00  0.00    +0.019 A 
ATOM      4  C   UNL     1       0.024  -2.080  -1.194  0.00  0.00    +0.065 A 
ATOM      5  C   UNL     1       0.033  -2.793   0.015  0.00  0.00    +0.140 A 
ATOM      6  C   UNL     1       0.033  -2.080   1.214  0.00  0.00    +0.050 A 
ATOM      7  C   UNL     1       0.023  -0.703   1.200  0.00  0.00    -0.044 A 
ATOM      8  C   UNL     1       0.029   0.053   2.503  0.00  0.00    +0.044 C 
ATOM      9  O   UNL     1       0.037  -4.145   0.057  0.00  0.00    -0.450 OA
ATOM     10  C   UNL     1       0.273  -4.846  -1.070  0.00  0.00    +0.199 A 
ATOM     11  C   UNL     1       0.280  -4.268  -2.309  0.00  0.00    +0.072 A 
ATOM     12  C   UNL     1       0.036  -2.832  -2.474  0.00  0.00    +0.199 A 
ATOM     13  O   UNL     1      -0.141  -2.306  -3.559  0.00  0.00    -0.287 OA
ATOM     14  C   UNL     1       0.566  -5.340  -3.309  0.00  0.00    +0.150 C 
ATOM     15  N   UNL     1       0.728  -6.580  -2.533  0.00  0.00    -0.253 N 
ATOM     16  C   UNL     1       0.557  -6.282  -1.229  0.00  0.00    +0.287 C 
ATOM     17  O   UNL     1       0.626  -7.082  -0.317  0.00  0.00    -0.266 OA
ENDROOT
BRANCH  15  18
ATOM     18  C   UNL     1       1.010  -7.846  -3.056  0.00  0.00    +0.038 A 
ATOM     19  C   UNL     1       1.168  -8.013  -4.426  0.00  0.00    +0.024 A 
ATOM     20  C   UNL     1       1.447  -9.264  -4.939  0.00  0.00    +0.017 A 
ATOM     21  C   UNL     1       1.569 -10.351  -4.091  0.00  0.00    +0.018 A 
ATOM     22  C   UNL     1       1.411 -10.187  -2.726  0.00  0.00    +0.017 A 
ATOM     23  C   UNL     1       1.138  -8.937  -2.206  0.00  0.00    +0.024 A 
ATOM     24 BR   UNL     1       1.950 -12.062  -4.799  0.00  0.00    -0.050 Br
ENDBRANCH  15  18
BRANCH  14  25
ATOM     25  C   UNL     1      -0.587  -5.474  -4.271  0.00  0.00    -0.020 A 
ATOM     26  C   UNL     1      -1.731  -6.149  -3.889  0.00  0.00    +0.006 A 
ATOM     27  C   UNL     1      -2.788  -6.272  -4.771  0.00  0.00    +0.003 A 
ATOM     28  C   UNL     1      -2.701  -5.719  -6.035  0.00  0.00    +0.033 A 
ATOM     29  C   UNL     1      -1.557  -5.043  -6.417  0.00  0.00    +0.127 A 
ATOM     30  C   UNL     1      -0.502  -4.917  -5.533  0.00  0.00    +0.038 A 
BRANCH  29  31
ATOM     31  N   UNL     1      -1.464  -4.452  -7.770  0.00  0.00    +0.056 N 
ATOM     32  O   UNL     1      -2.388  -4.560  -8.542  0.00  0.00    -0.126 OA
ATOM     33  O   UNL     1      -0.463  -3.860  -8.104  0.00  0.00    -0.126 OA
ENDBRANCH  29  31
ENDBRANCH  14  25
TORSDOF 3
