REMARK  Name = ZINC05337984
REMARK  8 active torsions:
REMARK  status: ('A' for Active; 'I' for Inactive)
REMARK    1  A    between atoms: C_1  and  N_2
REMARK    2  A    between atoms: C_10  and  C_11
REMARK    3  A    between atoms: N_22  and  C_25
REMARK    4  A    between atoms: C_23  and  N_24
REMARK    5  A    between atoms: C_25  and  C_26
REMARK    6  A    between atoms: C_26  and  N_52
REMARK    7  A    between atoms: C_27  and  N_52
REMARK    8  A    between atoms: C_28  and  N_52
REMARK                            x       y       z     vdW  Elec       q    Type
REMARK                         _______ _______ _______ _____ _____    ______ ____
ROOT
ATOM      1  C   UNL     1      -2.597   6.434  -0.256  0.00  0.00    +0.084 A 
ATOM      2  C   UNL     1      -4.062   6.468  -0.378  0.00  0.00    +0.121 A 
ATOM      3  C   UNL     1      -4.407   7.887  -0.518  0.00  0.00    +0.162 A 
ATOM      4  N   UNL     1      -5.669   8.236  -0.648  0.00  0.00    -0.226 NA
ATOM      5  C   UNL     1      -6.624   7.297  -0.652  0.00  0.00    +0.092 A 
ATOM      6  C   UNL     1      -7.976   7.662  -0.791  0.00  0.00    +0.030 A 
ATOM      7  C   UNL     1      -8.939   6.702  -0.794  0.00  0.00    +0.002 A 
ATOM      8  C   UNL     1      -8.609   5.354  -0.661  0.00  0.00    +0.002 A 
ATOM      9  C   UNL     1      -7.314   4.962  -0.524  0.00  0.00    +0.030 A 
ATOM     10  C   UNL     1      -6.288   5.926  -0.517  0.00  0.00    +0.090 A 
ATOM     11  N   UNL     1      -5.011   5.552  -0.384  0.00  0.00    -0.241 NA
ATOM     12  N   UNL     1      -3.223   8.593  -0.476  0.00  0.00    -0.314 N 
ATOM     13  C   UNL     1      -2.164   7.748  -0.317  0.00  0.00    +0.111 A 
ENDROOT
BRANCH   1  23
ATOM     14  C   UNL     1      -3.117   4.130   1.733  0.00  0.00    +0.151 C 
ATOM     15  N   UNL     1      -1.996   4.220   0.793  0.00  0.00    -0.327 N 
ATOM     16  C   UNL     1      -0.980   3.293   0.634  0.00  0.00    +0.069 A 
ATOM     17  C   UNL     1      -0.689   2.076   1.232  0.00  0.00    +0.028 A 
ATOM     18  C   UNL     1       0.433   1.372   0.846  0.00  0.00    +0.002 A 
ATOM     19  C   UNL     1       1.266   1.867  -0.147  0.00  0.00    +0.002 A 
ATOM     20  C   UNL     1       0.990   3.070  -0.756  0.00  0.00    +0.030 A 
ATOM     21  C   UNL     1      -0.140   3.799  -0.372  0.00  0.00    +0.090 A 
ATOM     22  N   UNL     1      -0.663   4.984  -0.776  0.00  0.00    -0.227 NA
ATOM     23  C   UNL     1      -1.758   5.239  -0.094  0.00  0.00    +0.147 A 
ENDBRANCH   1  23
BRANCH  13  24
ATOM     24  N   UNL     1      -0.851   8.145  -0.233  0.00  0.00    -0.344 N 
ATOM     25  H   UNL     1      -0.150   7.483  -0.123  0.00  0.00    +0.144 HD
ATOM     26  H   UNL     1      -0.624   9.087  -0.284  0.00  0.00    +0.144 HD
ENDBRANCH  13  24
BRANCH  12  27
ATOM     27  C   UNL     1      -3.118  10.051  -0.582  0.00  0.00    +0.106 C 
BRANCH  27  28
ATOM     28  C   UNL     1      -3.199  10.670   0.815  0.00  0.00    -0.058 C 
BRANCH  28  31
ATOM     29  C   UNL     1      -3.402  12.776   1.993  0.00  0.00    -0.097 C 
ATOM     30  C   UNL     1      -1.765  12.530   0.226  0.00  0.00    -0.097 C 
ATOM     31  N   UNL     1      -3.113  12.141   0.690  0.00  0.00    +0.377 N 
ATOM     32  H   UNL     1      -3.807  12.458   0.003  0.00  0.00    -0.083 HD
ENDBRANCH  28  31
ENDBRANCH  27  28
ENDBRANCH  12  27
TORSDOF 5
