REMARK  Name = ZINC66085354
REMARK  10 active torsions:
REMARK  status: ('A' for Active; 'I' for Inactive)
REMARK    1  A    between atoms: C_1  and  C_2
REMARK    2  A    between atoms: C_2  and  C_3
REMARK    3  A    between atoms: C_3  and  C_5
REMARK    4  A    between atoms: C_3  and  N_6
REMARK    5  A    between atoms: C_7  and  C_9
REMARK    6  A    between atoms: C_12  and  N_15
REMARK    7  A    between atoms: C_16  and  C_18
REMARK    8  A    between atoms: C_18  and  N_19
REMARK    9  A    between atoms: N_19  and  C_20
REMARK   10  A    between atoms: C_23  and  C_26
REMARK                            x       y       z     vdW  Elec       q    Type
REMARK                         _______ _______ _______ _____ _____    ______ ____
ROOT
ATOM      1  N   UNL     1      -2.479   1.095  -8.326  0.00  0.00    -0.284 N 
ATOM      2  C   UNL     1      -1.829   1.526  -9.426  0.00  0.00    +0.234 C 
ATOM      3  O   UNL     1      -0.616   1.547  -9.444  0.00  0.00    -0.274 OA
ATOM      4  H   UNL     1      -3.445   1.008  -8.336  0.00  0.00    +0.155 HD
ENDROOT
BRANCH   1   8
ATOM      5  C   UNL     1      -0.339   0.140  -4.882  0.00  0.00    +0.037 A 
ATOM      6  C   UNL     1       0.146   1.112  -5.761  0.00  0.00    +0.015 A 
ATOM      7  C   UNL     1      -0.563   1.425  -6.899  0.00  0.00    +0.024 A 
ATOM      8  C   UNL     1      -1.762   0.775  -7.173  0.00  0.00    +0.033 A 
ATOM      9  C   UNL     1      -2.248  -0.193  -6.301  0.00  0.00    +0.024 A 
ATOM     10  C   UNL     1      -1.541  -0.515  -5.164  0.00  0.00    +0.015 A 
BRANCH   5  12
ATOM     11  N   UNL     1       1.578   0.434  -3.391  0.00  0.00    -0.309 N 
ATOM     12  C   UNL     1       0.419  -0.199  -3.662  0.00  0.00    +0.244 C 
ATOM     13  O   UNL     1      -0.002  -1.048  -2.901  0.00  0.00    -0.270 OA
ATOM     14  H   UNL     1       1.914   1.111  -3.999  0.00  0.00    +0.149 HD
BRANCH  11  15
ATOM     15  C   UNL     1       2.331   0.098  -2.180  0.00  0.00    +0.070 C 
ATOM     16  C   UNL     1       1.785   0.904  -1.000  0.00  0.00    +0.028 C 
BRANCH  15  18
ATOM     17  C   UNL     1       4.386  -0.462  -3.485  0.00  0.00    +0.005 C 
ATOM     18  C   UNL     1       3.809   0.434  -2.388  0.00  0.00    +0.018 C 
ENDBRANCH  15  18
ENDBRANCH  11  15
ENDBRANCH   5  12
ENDBRANCH   1   8
BRANCH   2  19
ATOM     19  C   UNL     1      -2.609   1.982 -10.632  0.00  0.00    +0.198 C 
BRANCH  19  20
ATOM     20  N   UNL     1      -1.680   2.398 -11.685  0.00  0.00    -0.335 N 
ATOM     21  H   UNL     1      -0.723   2.350 -11.535  0.00  0.00    +0.147 HD
BRANCH  20  22
ATOM     22  C   UNL     1      -2.170   2.861 -12.901  0.00  0.00    +0.028 A 
ATOM     23  C   UNL     1      -3.544   2.934 -13.114  0.00  0.00    +0.023 A 
ATOM     24  C   UNL     1      -4.033   3.392 -14.316  0.00  0.00    +0.015 A 
ATOM     25  C   UNL     1      -3.148   3.784 -15.325  0.00  0.00    +0.037 A 
ATOM     26  C   UNL     1      -1.768   3.709 -15.108  0.00  0.00    +0.015 A 
ATOM     27  C   UNL     1      -1.286   3.256 -13.902  0.00  0.00    +0.023 A 
BRANCH  25  28
ATOM     28  C   UNL     1      -3.668   4.274 -16.615  0.00  0.00    +0.247 C 
ATOM     29  O   UNL     1      -3.198   3.860 -17.657  0.00  0.00    -0.270 OA
ATOM     30  N   UNL     1      -4.664   5.182 -16.639  0.00  0.00    -0.298 N 
ATOM     31  C   UNL     1      -5.086   5.715 -17.915  0.00  0.00    +0.108 C 
ATOM     32  C   UNL     1      -4.247   6.972 -18.255  0.00  0.00    +0.019 C 
ATOM     33  C   UNL     1      -4.630   8.092 -17.382  0.00  0.00    +0.002 C 
ATOM     34  C   UNL     1      -4.365   7.852 -15.899  0.00  0.00    +0.002 C 
ATOM     35  C   UNL     1      -5.531   7.108 -15.297  0.00  0.00    +0.019 C 
ATOM     36  C   UNL     1      -5.284   5.586 -15.361  0.00  0.00    +0.108 C 
ENDBRANCH  25  28
ENDBRANCH  20  22
ENDBRANCH  19  20
ENDBRANCH   2  19
TORSDOF 8
