REMARK  Name = ZINC08743753
REMARK  6 active torsions:
REMARK  status: ('A' for Active; 'I' for Inactive)
REMARK    1  A    between atoms: C_1  and  C_2
REMARK    2  A    between atoms: C_4  and  C_30
REMARK    3  A    between atoms: C_6  and  C_8
REMARK    4  A    between atoms: N_10  and  C_11
REMARK    5  A    between atoms: C_11  and  C_13
REMARK    6  A    between atoms: C_11  and  C_14
REMARK                            x       y       z     vdW  Elec       q    Type
REMARK                         _______ _______ _______ _____ _____    ______ ____
ROOT
ATOM      1  C   UNL     1       6.448  -0.644  -1.266  0.00  0.00    +0.236 C 
ATOM      2  O   UNL     1       7.211  -0.524  -0.331  0.00  0.00    -0.274 OA
ATOM      3  N   UNL     1       5.203  -0.134  -1.190  0.00  0.00    -0.300 N 
ATOM      4  C   UNL     1       4.716   0.470   0.057  0.00  0.00    +0.107 C 
ATOM      5  C   UNL     1       3.394  -0.200   0.446  0.00  0.00    +0.013 C 
ATOM      6  C   UNL     1       2.415  -0.106  -0.724  0.00  0.00    -0.022 C 
ATOM      7  C   UNL     1       2.989  -0.835  -1.940  0.00  0.00    +0.013 C 
ATOM      8  C   UNL     1       4.306  -0.172  -2.354  0.00  0.00    +0.107 C 
ATOM      9  C   UNL     1       1.098  -0.722  -0.335  0.00  0.00    +0.027 A 
ATOM     10  C   UNL     1       0.001  -0.002  -0.007  0.00  0.00    +0.059 A 
ATOM     11  N   UNL     1      -0.983  -0.854   0.280  0.00  0.00    -0.241 NA
ATOM     12  C   UNL     1      -0.541  -2.079   0.145  0.00  0.00    +0.196 A 
ATOM     13  N   UNL     1       0.757  -2.034  -0.238  0.00  0.00    -0.349 N 
ATOM     14  H   UNL     1       1.352  -2.818  -0.417  0.00  0.00    +0.166 HD
ATOM     15  C   UNL     1      -0.018   1.507   0.006  0.00  0.00    +0.038 C 
ATOM     16  C   UNL     1       1.436   1.998  -0.001  0.00  0.00    -0.075 C 
ATOM     17  N   UNL     1       2.191   1.315  -1.072  0.00  0.00    +0.387 N 
ATOM     18  H   UNL     1       1.657   1.368  -1.948  0.00  0.00    -0.085 HD
ATOM     19  H   UNL     1       3.098   1.780  -1.196  0.00  0.00    -0.085 HD
ENDROOT
BRANCH   1  20
ATOM     20  C   UNL     1       6.893  -1.365  -2.513  0.00  0.00    +0.156 C 
ATOM     21  C   UNL     1       7.404  -0.347  -3.535  0.00  0.00    +0.038 C 
BRANCH  20  24
ATOM     22  C   UNL     1       8.183  -3.384  -2.954  0.00  0.00    +0.245 C 
ATOM     23  O   UNL     1       7.487  -3.580  -3.931  0.00  0.00    -0.270 OA
ATOM     24  N   UNL     1       7.967  -2.303  -2.179  0.00  0.00    -0.300 N 
ATOM     25  H   UNL     1       8.522  -2.146  -1.399  0.00  0.00    +0.150 HD
BRANCH  22  31
ATOM     26  C   UNL     1      11.944  -4.757   0.024  0.00  0.00    +0.044 C 
ATOM     27  C   UNL     1      11.079  -4.995  -1.186  0.00  0.00    -0.049 A 
ATOM     28  C   UNL     1      11.298  -6.104  -1.984  0.00  0.00    +0.006 A 
ATOM     29  C   UNL     1      10.508  -6.330  -3.097  0.00  0.00    -0.049 A 
ATOM     30  C   UNL     1       9.494  -5.451  -3.417  0.00  0.00    +0.016 A 
ATOM     31  C   UNL     1       9.267  -4.331  -2.616  0.00  0.00    +0.037 A 
ATOM     32  C   UNL     1      10.072  -4.105  -1.499  0.00  0.00    +0.016 A 
ATOM     33  C   UNL     1      10.754  -7.540  -3.961  0.00  0.00    +0.044 C 
ENDBRANCH  22  31
ENDBRANCH  20  24
ENDBRANCH   1  20
TORSDOF 3
