REMARK  Name = ZINC09433596
REMARK  7 active torsions:
REMARK  status: ('A' for Active; 'I' for Inactive)
REMARK    1  A    between atoms: C_10  and  C_11
REMARK    2  A    between atoms: C_10  and  N_72
REMARK    3  A    between atoms: C_11  and  C_12
REMARK    4  A    between atoms: C_12  and  N_13
REMARK    5  A    between atoms: C_14  and  C_16
REMARK    6  A    between atoms: N_26  and  C_34
REMARK    7  A    between atoms: C_27  and  C_29
REMARK                            x       y       z     vdW  Elec       q    Type
REMARK                         _______ _______ _______ _____ _____    ______ ____
ROOT
ATOM      1  C   UNL     1      -1.322   2.126   0.005  0.00  0.00    +0.131 C 
ATOM      2  C   UNL     1      -0.107   1.280  -0.273  0.00  0.00    -0.021 A 
ATOM      3  C   UNL     1      -0.228  -0.076  -0.489  0.00  0.00    +0.005 A 
ATOM      4  C   UNL     1       0.894  -0.833  -0.777  0.00  0.00    +0.000 A 
ATOM      5  C   UNL     1       2.141  -0.238  -0.849  0.00  0.00    +0.001 A 
ATOM      6  C   UNL     1       2.276   1.118  -0.627  0.00  0.00    +0.013 A 
ATOM      7  C   UNL     1       1.150   1.883  -0.331  0.00  0.00    +0.041 A 
ATOM      8  C   UNL     1       1.266   3.330  -0.055  0.00  0.00    +0.248 C 
ATOM      9  O   UNL     1       2.295   3.924  -0.310  0.00  0.00    -0.270 OA
ATOM     10  N   UNL     1       0.220   3.986   0.483  0.00  0.00    -0.286 N 
ATOM     11  C   UNL     1      -0.961   3.265   0.955  0.00  0.00    +0.130 C 
ENDROOT
BRANCH  11  12
ATOM     12  C   UNL     1      -0.681   2.699   2.323  0.00  0.00    +0.011 A 
ATOM     13  C   UNL     1      -1.496   2.636   3.404  0.00  0.00    +0.013 A 
ATOM     14  C   UNL     1      -1.021   2.062   4.569  0.00  0.00    +0.008 A 
ATOM     15  C   UNL     1       0.248   1.588   4.598  0.00  0.00    +0.045 A 
ATOM     16  S   UNL     1       0.814   1.943   2.943  0.00  0.00    -0.100 S 
ENDBRANCH  11  12
BRANCH  10  17
ATOM     17  C   UNL     1       0.266   5.446   0.597  0.00  0.00    +0.077 C 
ATOM     18  C   UNL     1       0.475   6.078  -0.794  0.00  0.00    +0.022 C 
ATOM     19  C   UNL     1       1.406   7.287  -0.524  0.00  0.00    +0.002 C 
ATOM     20  C   UNL     1       2.367   6.744   0.563  0.00  0.00    +0.002 C 
ATOM     21  C   UNL     1       1.468   5.869   1.460  0.00  0.00    +0.022 C 
ENDBRANCH  10  17
BRANCH   1  23
ATOM     22  N   UNL     1      -3.687   1.469   0.315  0.00  0.00    -0.315 N 
ATOM     23  C   UNL     1      -2.392   1.271   0.634  0.00  0.00    +0.223 C 
ATOM     24  O   UNL     1      -2.089   0.406   1.428  0.00  0.00    -0.275 OA
ATOM     25  H   UNL     1      -3.924   2.111  -0.372  0.00  0.00    +0.149 HD
BRANCH  22  26
ATOM     26  C   UNL     1      -4.735   0.715   1.007  0.00  0.00    +0.102 C 
BRANCH  26  27
ATOM     27  C   UNL     1      -6.104   1.126   0.460  0.00  0.00    +0.000 C 
BRANCH  27  28
ATOM     28  C   UNL     1      -7.199   0.338   1.182  0.00  0.00    -0.077 C 
BRANCH  28  38
ATOM     29  C   UNL     1     -12.565   1.221  -2.244  0.00  0.00    +0.000 A 
ATOM     30  C   UNL     1     -11.518   0.972  -3.112  0.00  0.00    +0.000 A 
ATOM     31  C   UNL     1     -10.264   0.687  -2.612  0.00  0.00    +0.002 A 
ATOM     32  C   UNL     1     -10.046   0.649  -1.243  0.00  0.00    -0.061 A 
ATOM     33  C   UNL     1     -11.089   0.901  -0.378  0.00  0.00    -0.048 A 
ATOM     34  C   UNL     1     -12.350   1.185  -0.881  0.00  0.00    +0.004 A 
ATOM     35  C   UNL     1     -10.900   0.882   1.117  0.00  0.00    +0.017 C 
ATOM     36  C   UNL     1      -9.599   0.160   1.469  0.00  0.00    -0.074 C 
ATOM     37  C   UNL     1      -8.661   0.330  -0.745  0.00  0.00    -0.043 C 
ATOM     38  N   UNL     1      -8.517   0.756   0.657  0.00  0.00    +0.383 N 
ATOM     39  H   UNL     1      -8.586   1.780   0.705  0.00  0.00    -0.081 HD
ENDBRANCH  28  38
ENDBRANCH  27  28
ENDBRANCH  26  27
ENDBRANCH  22  26
ENDBRANCH   1  23
TORSDOF 7
