REMARK  Name = ZINC15010097
REMARK  8 active torsions:
REMARK  status: ('A' for Active; 'I' for Inactive)
REMARK    1  A    between atoms: C_1  and  C_2
REMARK    2  A    between atoms: C_2  and  O_3
REMARK    3  A    between atoms: O_3  and  C_4
REMARK    4  A    between atoms: C_6  and  C_11
REMARK    5  A    between atoms: C_9  and  O_10
REMARK    6  A    between atoms: N_15  and  C_19
REMARK    7  A    between atoms: C_22  and  O_25
REMARK    8  A    between atoms: O_25  and  C_26
REMARK                            x       y       z     vdW  Elec       q    Type
REMARK                         _______ _______ _______ _____ _____    ______ ____
ROOT
ATOM      1  C   UNL     1      -0.081   1.190  -0.285  0.00  0.00    +0.036 C 
ATOM      2  C   UNL     1       0.122  -0.082   0.141  0.00  0.00    +0.097 C 
ATOM      3  C   UNL     1      -0.900  -1.095   0.447  0.00  0.00    +0.271 C 
ATOM      4  O   UNL     1      -2.108  -0.961   0.371  0.00  0.00    -0.268 OA
ATOM      5  N   UNL     1      -0.230  -2.202   0.827  0.00  0.00    -0.217 N 
ATOM      6  C   UNL     1       1.091  -1.968   0.793  0.00  0.00    +0.148 C 
ATOM      7  S   UNL     1       2.290  -3.116   1.212  0.00  0.00    -0.018 S 
ATOM      8  N   UNL     1       1.348  -0.712   0.388  0.00  0.00    -0.292 N 
ATOM      9  H   UNL     1       2.289  -0.161   0.238  0.00  0.00    +0.154 HD
ENDROOT
BRANCH   1  12
ATOM     10  C   UNL     1      -3.565   1.177  -1.672  0.00  0.00    +0.162 A 
ATOM     11  C   UNL     1      -2.297   0.756  -1.324  0.00  0.00    +0.057 A 
ATOM     12  C   UNL     1      -1.429   1.633  -0.662  0.00  0.00    -0.019 A 
ATOM     13  C   UNL     1      -1.850   2.935  -0.364  0.00  0.00    +0.012 A 
ATOM     14  C   UNL     1      -3.115   3.348  -0.719  0.00  0.00    +0.050 A 
ATOM     15  C   UNL     1      -3.976   2.475  -1.372  0.00  0.00    +0.158 A 
BRANCH  15  16
ATOM     16  O   UNL     1      -5.223   2.888  -1.720  0.00  0.00    -0.503 OA
ATOM     17  H   UNL     1      -5.549   3.912  -1.484  0.00  0.00    +0.292 HD
ENDBRANCH  15  16
BRANCH  10  18
ATOM     18  O   UNL     1      -4.412   0.327  -2.312  0.00  0.00    -0.489 OA
BRANCH  18  20
ATOM     19  C   UNL     1      -5.010  -1.793  -3.306  0.00  0.00    +0.048 C 
ATOM     20  C   UNL     1      -3.925  -0.988  -2.588  0.00  0.00    +0.226 C 
ENDBRANCH  18  20
ENDBRANCH  10  18
ENDBRANCH   1  12
BRANCH   5  21
ATOM     21  C   UNL     1      -0.825  -3.414   1.206  0.00  0.00    +0.044 A 
ATOM     22  C   UNL     1      -0.683  -4.538   0.404  0.00  0.00    +0.027 A 
ATOM     23  C   UNL     1      -1.264  -5.733   0.781  0.00  0.00    +0.047 A 
ATOM     24  C   UNL     1      -1.999  -5.807   1.956  0.00  0.00    +0.120 A 
ATOM     25  C   UNL     1      -2.145  -4.683   2.755  0.00  0.00    +0.047 A 
ATOM     26  C   UNL     1      -1.560  -3.489   2.381  0.00  0.00    +0.027 A 
BRANCH  24  27
ATOM     27  O   UNL     1      -2.575  -6.982   2.323  0.00  0.00    -0.495 OA
ATOM     28  C   UNL     1      -2.383  -8.099   1.453  0.00  0.00    +0.277 C 
ENDBRANCH  24  27
ENDBRANCH   5  21
TORSDOF 6
