REMARK  Name = ZINC12479444
REMARK  14 active torsions:
REMARK  status: ('A' for Active; 'I' for Inactive)
REMARK    1  A    between atoms: C_1  and  C_2
REMARK    2  A    between atoms: C_5  and  C_8
REMARK    3  A    between atoms: C_8  and  C_10
REMARK    4  A    between atoms: C_8  and  N_18
REMARK    5  A    between atoms: N_12  and  C_13
REMARK    6  A    between atoms: C_13  and  C_14
REMARK    7  A    between atoms: C_14  and  C_15
REMARK    8  A    between atoms: C_15  and  C_16
REMARK    9  A    between atoms: C_15  and  C_17
REMARK   10  A    between atoms: N_18  and  C_19
REMARK   11  A    between atoms: C_19  and  C_20
REMARK   12  A    between atoms: C_27  and  C_29
REMARK   13  A    between atoms: C_30  and  N_37
REMARK   14  A    between atoms: C_31  and  C_34
REMARK                            x       y       z     vdW  Elec       q    Type
REMARK                         _______ _______ _______ _____ _____    ______ ____
ROOT
ATOM      1  N   UNL     1      -2.074  -1.288  -0.387  0.00  0.00    -0.277 N 
ATOM      2  C   UNL     1      -2.950  -0.412  -0.918  0.00  0.00    +0.258 C 
ATOM      3  O   UNL     1      -3.045   0.710  -0.456  0.00  0.00    -0.269 OA
ENDROOT
BRANCH   2   4
ATOM      4  C   UNL     1      -3.787  -0.810  -2.051  0.00  0.00    +0.115 A 
ATOM      5  C   UNL     1      -5.139  -0.556  -2.285  0.00  0.00    +0.076 A 
ATOM      6  C   UNL     1      -5.586  -1.104  -3.487  0.00  0.00    +0.155 A 
ATOM      7  N   UNL     1      -4.742  -1.769  -4.244  0.00  0.00    -0.203 NA
ATOM      8  S   UNL     1      -3.350  -1.742  -3.505  0.00  0.00    +0.019 S 
BRANCH   6   9
ATOM      9  C   UNL     1      -6.990  -0.939  -3.905  0.00  0.00    +0.262 C 
ATOM     10  O   UNL     1      -7.766  -0.322  -3.200  0.00  0.00    -0.269 OA
ATOM     11  N   UNL     1      -7.415  -1.471  -5.068  0.00  0.00    -0.324 N 
ATOM     12  H   UNL     1      -6.796  -1.962  -5.631  0.00  0.00    +0.145 HD
ATOM     13  H   UNL     1      -8.338  -1.362  -5.343  0.00  0.00    +0.145 HD
ENDBRANCH   6   9
BRANCH   5  14
ATOM     14  N   UNL     1      -5.950   0.162  -1.416  0.00  0.00    -0.355 N 
ATOM     15  H   UNL     1      -5.582   0.519  -0.593  0.00  0.00    +0.142 HD
ATOM     16  H   UNL     1      -6.885   0.307  -1.633  0.00  0.00    +0.142 HD
ENDBRANCH   5  14
ENDBRANCH   2   4
BRANCH   1  17
ATOM     17  C   UNL     1      -1.143  -0.851   0.657  0.00  0.00    +0.193 C 
BRANCH  17  22
ATOM     18  C   UNL     1       2.349   3.235  -1.465  0.00  0.00    +0.044 C 
ATOM     19  C   UNL     1       1.439   2.169  -0.912  0.00  0.00    -0.050 A 
ATOM     20  C   UNL     1       1.735   1.566   0.296  0.00  0.00    +0.004 A 
ATOM     21  C   UNL     1       0.900   0.588   0.804  0.00  0.00    +0.006 A 
ATOM     22  C   UNL     1      -0.232   0.214   0.103  0.00  0.00    -0.018 A 
ATOM     23  C   UNL     1      -0.525   0.814  -1.107  0.00  0.00    +0.006 A 
ATOM     24  C   UNL     1       0.307   1.795  -1.612  0.00  0.00    +0.004 A 
ENDBRANCH  17  22
BRANCH  17  25
ATOM     25  C   UNL     1      -1.919  -0.293   1.821  0.00  0.00    +0.238 C 
ATOM     26  O   UNL     1      -3.131  -0.263   1.784  0.00  0.00    -0.273 OA
ATOM     27  N   UNL     1      -1.267   0.173   2.905  0.00  0.00    -0.313 N 
ATOM     28  H   UNL     1      -0.298   0.149   2.935  0.00  0.00    +0.149 HD
BRANCH  27  29
ATOM     29  C   UNL     1      -2.022   0.715   4.037  0.00  0.00    +0.104 C 
BRANCH  29  30
ATOM     30  C   UNL     1      -1.050   1.171   5.127  0.00  0.00    +0.022 C 
BRANCH  30  31
ATOM     31  C   UNL     1      -1.839   1.738   6.309  0.00  0.00    -0.016 C 
ATOM     32  C   UNL     1      -2.670   0.624   6.949  0.00  0.00    +0.007 C 
ATOM     33  C   UNL     1      -0.867   2.308   7.345  0.00  0.00    +0.007 C 
ENDBRANCH  30  31
ENDBRANCH  29  30
ENDBRANCH  27  29
ENDBRANCH  17  25
ENDBRANCH   1  17
BRANCH   1  34
ATOM     34  C   UNL     1      -2.052  -2.677  -0.853  0.00  0.00    +0.145 C 
BRANCH  34  35
ATOM     35  C   UNL     1      -2.543  -3.583   0.247  0.00  0.00    -0.012 A 
ATOM     36  C   UNL     1      -1.678  -4.487   0.836  0.00  0.00    +0.006 A 
ATOM     37  C   UNL     1      -2.127  -5.315   1.847  0.00  0.00    +0.000 A 
ATOM     38  C   UNL     1      -3.444  -5.247   2.264  0.00  0.00    +0.001 A 
ATOM     39  C   UNL     1      -4.311  -4.348   1.672  0.00  0.00    +0.020 A 
ATOM     40  C   UNL     1      -3.861  -3.515   0.663  0.00  0.00    +0.046 A 
ATOM     41 CL   UNL     1      -4.949  -2.386  -0.081  0.00  0.00    -0.083 Cl
ENDBRANCH  34  35
ENDBRANCH   1  34
TORSDOF 11
