REMARK  Name = ZINC38617837
REMARK  7 active torsions:
REMARK  status: ('A' for Active; 'I' for Inactive)
REMARK    1  A    between atoms: C_1  and  C_2
REMARK    2  A    between atoms: C_2  and  O_3
REMARK    3  A    between atoms: O_3  and  C_4
REMARK    4  A    between atoms: C_4  and  C_6
REMARK    5  A    between atoms: C_8  and  N_19
REMARK    6  A    between atoms: C_20  and  C_22
REMARK    7  A    between atoms: C_22  and  N_23
REMARK                            x       y       z     vdW  Elec       q    Type
REMARK                         _______ _______ _______ _____ _____    ______ ____
ROOT
ATOM      1  C   UNL     1       3.480  -3.788   2.442  0.00  0.00    +0.234 C 
ATOM      2  C   UNL     1       2.922  -2.384   2.368  0.00  0.00    +0.053 C 
ATOM      3  C   UNL     1       1.553  -2.516   2.489  0.00  0.00    +0.021 A 
ATOM      4  C   UNL     1       0.499  -1.567   2.494  0.00  0.00    +0.061 A 
ATOM      5  C   UNL     1      -0.786  -1.982   2.633  0.00  0.00    +0.167 A 
ATOM      6  C   UNL     1      -1.105  -3.350   2.773  0.00  0.00    +0.168 A 
ATOM      7  C   UNL     1      -0.136  -4.308   2.775  0.00  0.00    +0.075 A 
ATOM      8  C   UNL     1       1.224  -3.945   2.636  0.00  0.00    +0.049 A 
ATOM      9  N   UNL     1       2.325  -4.675   2.608  0.00  0.00    -0.367 N 
ATOM     10  O   UNL     1      -2.460  -3.463   2.891  0.00  0.00    -0.453 OA
ATOM     11  C   UNL     1      -2.930  -2.150   3.241  0.00  0.00    +0.466 C 
ATOM     12  O   UNL     1      -1.952  -1.265   2.667  0.00  0.00    -0.453 OA
ATOM     13  H   UNL     1       2.363  -5.641   2.686  0.00  0.00    +0.161 HD
ENDROOT
BRANCH   2  14
ATOM     14  N   UNL     1       3.627  -1.225   2.214  0.00  0.00    -0.288 N 
ATOM     15  C   UNL     1       4.946  -1.270   1.938  0.00  0.00    +0.200 C 
ATOM     16  O   UNL     1       5.484  -2.335   1.722  0.00  0.00    -0.278 OA
ATOM     17  H   UNL     1       3.179  -0.369   2.304  0.00  0.00    +0.155 HD
BRANCH  15  18
ATOM     18  C   UNL     1       5.751   0.003   1.897  0.00  0.00    +0.019 C 
BRANCH  18  19
ATOM     19  N   UNL     1       7.149  -0.312   1.578  0.00  0.00    +0.386 N 
ATOM     20  C   UNL     1       7.226  -0.874   0.224  0.00  0.00    -0.073 C 
ATOM     21  C   UNL     1       8.668  -1.283  -0.082  0.00  0.00    +0.046 C 
ATOM     22  C   UNL     1       9.573  -0.053   0.021  0.00  0.00    +0.167 C 
ATOM     23  C   UNL     1       9.427   0.575   1.408  0.00  0.00    +0.046 C 
ATOM     24  C   UNL     1       7.955   0.913   1.656  0.00  0.00    -0.073 C 
ATOM     25  O   UNL     1      10.940  -0.444  -0.188  0.00  0.00    -0.346 OA
ATOM     26  C   UNL     1      11.187  -0.191  -1.592  0.00  0.00    +0.191 C 
ATOM     27  C   UNL     1      10.355   1.094  -1.831  0.00  0.00    +0.191 C 
ATOM     28  O   UNL     1       9.205   0.902  -0.982  0.00  0.00    -0.346 OA
ATOM     29  H   UNL     1       7.501  -0.987   2.240  0.00  0.00    -0.081 HD
ENDBRANCH  18  19
ENDBRANCH  15  18
ENDBRANCH   2  14
BRANCH   1  30
ATOM     30  C   UNL     1       4.408  -3.916   3.622  0.00  0.00    +0.336 C 
ATOM     31  O   UNL     1       3.983  -4.304   4.685  0.00  0.00    -0.248 OA
BRANCH  30  32
ATOM     32  O   UNL     1       5.706  -3.598   3.494  0.00  0.00    -0.463 OA
BRANCH  32  34
ATOM     33  C   UNL     1       7.963  -3.338   4.316  0.00  0.00    +0.048 C 
ATOM     34  C   UNL     1       6.527  -3.744   4.654  0.00  0.00    +0.229 C 
ENDBRANCH  32  34
ENDBRANCH  30  32
ENDBRANCH   1  30
TORSDOF 6
