REMARK  Name = ZINC02917314
REMARK  5 active torsions:
REMARK  status: ('A' for Active; 'I' for Inactive)
REMARK    1  A    between atoms: C_1  and  C_2
REMARK    2  A    between atoms: C_14  and  C_17
REMARK    3  A    between atoms: N_15  and  C_16
REMARK    4  A    between atoms: N_19  and  C_20
REMARK    5  A    between atoms: C_26  and  C_28
REMARK                            x       y       z     vdW  Elec       q    Type
REMARK                         _______ _______ _______ _____ _____    ______ ____
ROOT
ATOM      1  C   UNL     1       0.029   1.544  -0.005  0.00  0.00    +0.047 C 
ATOM      2  C   UNL     1       0.044   0.038  -0.024  0.00  0.00    -0.007 A 
ATOM      3  C   UNL     1       0.056  -0.633  -1.209  0.00  0.00    +0.008 A 
ATOM      4  C   UNL     1       0.071  -2.036  -1.211  0.00  0.00    +0.019 A 
ATOM      5  C   UNL     1       0.072  -2.716  -0.044  0.00  0.00    +0.096 A 
ATOM      6  N   UNL     1       0.060  -2.055   1.150  0.00  0.00    -0.267 N 
ATOM      7  C   UNL     1       0.051  -0.687   1.185  0.00  0.00    +0.145 A 
ATOM      8  N   UNL     1       0.044  -0.021   2.336  0.00  0.00    -0.211 NA
ATOM      9  C   UNL     1       0.051  -0.654   3.506  0.00  0.00    +0.149 A 
ATOM     10  C   UNL     1       0.066  -2.066   3.528  0.00  0.00    +0.084 A 
ATOM     11  C   UNL     1       0.062  -2.766   2.300  0.00  0.00    +0.268 A 
ATOM     12  O   UNL     1       0.074  -3.985   2.278  0.00  0.00    -0.267 OA
ATOM     13  C   UNL     1       0.070  -2.462   4.878  0.00  0.00    +0.048 A 
ATOM     14  C   UNL     1       0.058  -1.332   5.640  0.00  0.00    +0.106 A 
ATOM     15  N   UNL     1       0.047  -0.226   4.803  0.00  0.00    -0.324 N 
ATOM     16  C   UNL     1       0.033   1.173   5.239  0.00  0.00    +0.151 C 
ENDROOT
BRANCH  14  17
ATOM     17  C   UNL     1       0.058  -1.292   7.104  0.00  0.00    +0.261 C 
ATOM     18  O   UNL     1       0.138  -0.225   7.684  0.00  0.00    -0.269 OA
ATOM     19  N   UNL     1      -0.032  -2.437   7.810  0.00  0.00    -0.307 N 
ATOM     20  H   UNL     1      -0.022  -3.292   7.351  0.00  0.00    +0.149 HD
BRANCH  19  21
ATOM     21  C   UNL     1      -0.144  -2.391   9.270  0.00  0.00    +0.076 C 
ATOM     22  C   UNL     1       1.253  -2.293   9.886  0.00  0.00    +0.022 C 
ATOM     23  C   UNL     1       1.136  -2.245  11.410  0.00  0.00    +0.002 C 
ATOM     24  C   UNL     1       0.446  -3.517  11.909  0.00  0.00    +0.000 C 
ATOM     25  C   UNL     1      -0.951  -3.615  11.293  0.00  0.00    +0.005 C 
ATOM     26  C   UNL     1      -0.834  -3.663   9.768  0.00  0.00    +0.006 C 
ATOM     27  C   UNL     1      -2.231  -3.761   9.152  0.00  0.00    +0.009 C 
ENDBRANCH  19  21
ENDBRANCH  14  17
TORSDOF 2
