REMARK  Name = ZINC58452868
REMARK  9 active torsions:
REMARK  status: ('A' for Active; 'I' for Inactive)
REMARK    1  A    between atoms: C_1  and  C_2
REMARK    2  A    between atoms: C_7  and  N_8
REMARK    3  A    between atoms: C_9  and  C_11
REMARK    4  A    between atoms: C_11  and  C_23
REMARK    5  A    between atoms: C_12  and  C_13
REMARK    6  A    between atoms: C_14  and  C_22
REMARK    7  A    between atoms: C_19  and  C_21
REMARK    8  A    between atoms: N_25  and  C_26
REMARK    9  A    between atoms: C_31  and  C_32
REMARK                            x       y       z     vdW  Elec       q    Type
REMARK                         _______ _______ _______ _____ _____    ______ ____
ROOT
ATOM      1  C   UNL     1       0.027  -0.338   4.348  0.00  0.00    +0.101 C 
ATOM      2  C   UNL     1      -0.373  -1.140   5.416  0.00  0.00    +0.046 C 
ENDROOT
BRANCH   2   3
ATOM      3  C   UNL     1      -0.074  -2.505   5.416  0.00  0.00    +0.070 A 
ATOM      4  C   UNL     1      -0.506  -3.449   4.490  0.00  0.00    +0.065 A 
ATOM      5  N   UNL     1      -0.004  -4.622   4.844  0.00  0.00    -0.226 NA
ATOM      6  C   UNL     1       0.718  -4.484   5.931  0.00  0.00    +0.178 A 
ATOM      7  N   UNL     1       0.729  -3.189   6.349  0.00  0.00    -0.293 N 
ATOM      8  C   UNL     1       1.455  -2.898   7.479  0.00  0.00    +0.104 A 
ATOM      9  C   UNL     1       2.120  -3.855   8.128  0.00  0.00    +0.007 A 
ATOM     10  S   UNL     1       1.736  -5.295   7.144  0.00  0.00    -0.055 S 
ATOM     11  C   UNL     1       2.966  -3.750   9.371  0.00  0.00    +0.053 C 
ATOM     12  C   UNL     1      -1.390  -3.185   3.299  0.00  0.00    +0.068 C 
ENDBRANCH   2   3
BRANCH   1  14
ATOM     13  N   UNL     1       1.950  -1.399   3.295  0.00  0.00    -0.281 N 
ATOM     14  C   UNL     1       0.688  -0.940   3.188  0.00  0.00    +0.253 C 
ATOM     15  O   UNL     1       0.096  -1.026   2.127  0.00  0.00    -0.270 OA
ATOM     16  H   UNL     1       2.385  -1.425   4.161  0.00  0.00    +0.155 HD
BRANCH  13  23
ATOM     17  C   UNL     1       4.314  -2.942   3.658  0.00  0.00    +0.045 C 
ATOM     18  C   UNL     1       3.791  -2.595   2.288  0.00  0.00    -0.029 A 
ATOM     19  C   UNL     1       4.460  -3.032   1.161  0.00  0.00    +0.005 A 
ATOM     20  C   UNL     1       3.981  -2.714  -0.096  0.00  0.00    +0.000 A 
ATOM     21  C   UNL     1       2.831  -1.957  -0.231  0.00  0.00    +0.002 A 
ATOM     22  C   UNL     1       2.157  -1.517   0.892  0.00  0.00    +0.023 A 
ATOM     23  C   UNL     1       2.633  -1.839   2.156  0.00  0.00    +0.037 A 
ENDBRANCH  13  23
ENDBRANCH   1  14
BRANCH   1  24
ATOM     24  C   UNL     1      -0.214   1.106   4.387  0.00  0.00    +0.253 C 
ATOM     25  O   UNL     1      -0.679   1.619   5.388  0.00  0.00    -0.270 OA
ATOM     26  N   UNL     1       0.080   1.867   3.313  0.00  0.00    -0.281 N 
ATOM     27  H   UNL     1       0.360   1.448   2.485  0.00  0.00    +0.155 HD
BRANCH  26  28
ATOM     28  C   UNL     1      -0.020   3.259   3.395  0.00  0.00    +0.037 A 
ATOM     29  C   UNL     1      -0.102   3.879   4.635  0.00  0.00    +0.023 A 
ATOM     30  C   UNL     1      -0.200   5.255   4.713  0.00  0.00    +0.002 A 
ATOM     31  C   UNL     1      -0.216   6.014   3.557  0.00  0.00    +0.000 A 
ATOM     32  C   UNL     1      -0.134   5.400   2.321  0.00  0.00    +0.005 A 
ATOM     33  C   UNL     1      -0.030   4.025   2.237  0.00  0.00    -0.029 A 
ATOM     34  C   UNL     1       0.066   3.357   0.890  0.00  0.00    +0.045 C 
ENDBRANCH  26  28
ENDBRANCH   1  24
TORSDOF 5
