REMARK  Name = ZINC17342819
REMARK  8 active torsions:
REMARK  status: ('A' for Active; 'I' for Inactive)
REMARK    1  A    between atoms: C_1  and  C_2
REMARK    2  A    between atoms: C_2  and  N_3
REMARK    3  A    between atoms: N_3  and  C_4
REMARK    4  A    between atoms: C_5  and  N_20
REMARK    5  A    between atoms: N_6  and  C_13
REMARK    6  A    between atoms: C_13  and  C_14
REMARK    7  A    between atoms: C_21  and  C_23
REMARK    8  A    between atoms: C_26  and  C_28
REMARK                            x       y       z     vdW  Elec       q    Type
REMARK                         _______ _______ _______ _____ _____    ______ ____
ROOT
ATOM      1  C   UNL     1       1.164   2.216  -0.193  0.00  0.00    +0.140 A 
ATOM      2  C   UNL     1       0.640   1.693  -1.357  0.00  0.00    +0.128 A 
ATOM      3  N   UNL     1       0.539   0.328  -1.494  0.00  0.00    -0.276 N 
ATOM      4  C   UNL     1       0.947  -0.487  -0.504  0.00  0.00    +0.331 A 
ATOM      5  O   UNL     1       0.849  -1.692  -0.644  0.00  0.00    -0.246 OA
ATOM      6  N   UNL     1       1.459   0.005   0.637  0.00  0.00    -0.273 N 
ATOM      7  H   UNL     1       1.755  -0.623   1.358  0.00  0.00    +0.173 HD
ATOM      8  C   UNL     1       1.580   1.334   0.822  0.00  0.00    +0.277 A 
ATOM      9  O   UNL     1       2.041   1.770   1.863  0.00  0.00    -0.266 OA
ENDROOT
BRANCH   1  10
ATOM     10  N   UNL     1       1.280   3.612  -0.022  0.00  0.00    -0.259 N 
ATOM     11  C   UNL     1       2.499   4.182   0.060  0.00  0.00    +0.270 C 
ATOM     12  O   UNL     1       3.498   3.508  -0.109  0.00  0.00    -0.268 OA
BRANCH  11  13
ATOM     13  C   UNL     1       2.621   5.620   0.356  0.00  0.00    +0.134 A 
ATOM     14  C   UNL     1       3.848   6.234   0.324  0.00  0.00    +0.080 A 
ATOM     15  S   UNL     1       3.429   7.869   0.733  0.00  0.00    -0.075 S 
ATOM     16  C   UNL     1       1.670   7.624   0.924  0.00  0.00    +0.109 A 
ATOM     17  N   UNL     1       1.549   6.335   0.661  0.00  0.00    -0.234 NA
BRANCH  16  18
ATOM     18  C   UNL     1       0.624   8.605   1.284  0.00  0.00    +0.007 A 
ATOM     19  C   UNL     1      -0.710   8.206   1.378  0.00  0.00    +0.010 A 
ATOM     20  C   UNL     1      -1.680   9.125   1.718  0.00  0.00    +0.001 A 
ATOM     21  C   UNL     1      -1.335  10.444   1.957  0.00  0.00    +0.000 A 
ATOM     22  C   UNL     1      -0.015  10.847   1.861  0.00  0.00    +0.001 A 
ATOM     23  C   UNL     1       0.966   9.936   1.526  0.00  0.00    +0.010 A 
ENDBRANCH  16  18
ENDBRANCH  11  13
BRANCH  10  25
ATOM     24  C   UNL     1      -0.315   4.621   1.533  0.00  0.00    +0.025 C 
ATOM     25  C   UNL     1       0.076   4.442   0.065  0.00  0.00    +0.111 C 
ENDBRANCH  10  25
ENDBRANCH   1  10
BRANCH   2  26
ATOM     26  N   UNL     1       0.223   2.526  -2.368  0.00  0.00    -0.343 N 
ATOM     27  H   UNL     1      -0.077   2.152  -3.212  0.00  0.00    +0.144 HD
ATOM     28  H   UNL     1       0.229   3.487  -2.238  0.00  0.00    +0.144 HD
ENDBRANCH   2  26
BRANCH   3  29
ATOM     29  C   UNL     1      -0.015  -0.242  -2.724  0.00  0.00    +0.163 C 
BRANCH  29  30
ATOM     30  C   UNL     1      -1.507  -0.398  -2.578  0.00  0.00    -0.028 A 
ATOM     31  C   UNL     1      -2.034  -1.573  -2.077  0.00  0.00    +0.005 A 
ATOM     32  C   UNL     1      -3.402  -1.714  -1.938  0.00  0.00    +0.000 A 
ATOM     33  C   UNL     1      -4.244  -0.683  -2.310  0.00  0.00    +0.000 A 
ATOM     34  C   UNL     1      -3.718   0.491  -2.816  0.00  0.00    +0.000 A 
ATOM     35  C   UNL     1      -2.349   0.634  -2.950  0.00  0.00    +0.005 A 
ENDBRANCH  29  30
ENDBRANCH   3  29
TORSDOF 7
