REMARK  Name = ZINC64636475
REMARK  5 active torsions:
REMARK  status: ('A' for Active; 'I' for Inactive)
REMARK    1  A    between atoms: C_1  and  C_2
REMARK    2  A    between atoms: C_2  and  C_3
REMARK    3  A    between atoms: C_2  and  C_4
REMARK    4  A    between atoms: C_19  and  C_21
REMARK    5  A    between atoms: N_23  and  C_26
REMARK                            x       y       z     vdW  Elec       q    Type
REMARK                         _______ _______ _______ _____ _____    ______ ____
ROOT
ATOM      1  C   UNL     1      -1.357  -0.133   0.039  0.00  0.00    +0.105 C 
ATOM      2  C   UNL     1      -1.519  -1.645   0.232  0.00  0.00    +0.127 C 
ATOM      3  C   UNL     1      -1.112  -2.297  -1.084  0.00  0.00    -0.035 C 
ATOM      4  C   UNL     1      -0.150  -3.163  -0.792  0.00  0.00    -0.001 A 
ATOM      5  C   UNL     1       0.584  -4.129  -1.625  0.00  0.00    +0.010 A 
ATOM      6  C   UNL     1       1.534  -4.868  -0.991  0.00  0.00    +0.001 A 
ATOM      7  C   UNL     1       1.822  -4.743   0.372  0.00  0.00    +0.002 A 
ATOM      8  C   UNL     1       1.193  -3.885   1.214  0.00  0.00    +0.026 A 
ATOM      9  C   UNL     1       0.172  -3.057   0.664  0.00  0.00    +0.043 A 
ATOM     10  N   UNL     1      -0.606  -2.164   1.252  0.00  0.00    -0.376 N 
ATOM     11  C   UNL     1      -1.709  -1.888  -2.409  0.00  0.00    +0.052 C 
ATOM     12  C   UNL     1      -1.593  -0.355  -2.493  0.00  0.00    +0.113 C 
ATOM     13  N   UNL     1      -2.022   0.236  -1.220  0.00  0.00    -0.291 N 
ATOM     14  C   UNL     1      -3.036   1.125  -1.204  0.00  0.00    +0.263 C 
ATOM     15  O   UNL     1      -3.342   1.679  -0.164  0.00  0.00    -0.269 OA
ATOM     16  H   UNL     1      -0.582  -1.893   2.182  0.00  0.00    +0.160 HD
ENDROOT
BRANCH  14  17
ATOM     17  C   UNL     1      -3.766   1.422  -2.434  0.00  0.00    +0.120 C 
ATOM     18  C   UNL     1      -3.447   2.368  -3.343  0.00  0.00    +0.119 C 
ATOM     19  N   UNL     1      -4.377   2.332  -4.352  0.00  0.00    -0.253 N 
ATOM     20  N   UNL     1      -5.289   1.355  -4.073  0.00  0.00    -0.160 NA
ATOM     21  N   UNL     1      -4.933   0.769  -2.891  0.00  0.00    -0.259 N 
ATOM     22  H   UNL     1      -6.223   1.735  -4.025  0.00  0.00    +0.168 HD
ATOM     23  H   UNL     1      -5.396   0.042  -2.447  0.00  0.00    +0.168 HD
BRANCH  19  24
ATOM     24  C   UNL     1      -4.390   3.199  -5.533  0.00  0.00    +0.092 C 
ATOM     25  C   UNL     1      -5.692   4.002  -5.562  0.00  0.00    +0.024 C 
ATOM     26  C   UNL     1      -5.704   4.907  -6.796  0.00  0.00    +0.002 C 
ATOM     27  C   UNL     1      -5.605   4.050  -8.059  0.00  0.00    +0.000 C 
ATOM     28  C   UNL     1      -4.303   3.247  -8.030  0.00  0.00    +0.002 C 
ATOM     29  C   UNL     1      -4.290   2.341  -6.796  0.00  0.00    +0.024 C 
ENDBRANCH  19  24
ENDBRANCH  14  17
BRANCH   1  31
ATOM     30  C   UNL     1       0.282   1.695  -0.427  0.00  0.00    +0.009 C 
ATOM     31  C   UNL     1       0.129   0.223  -0.037  0.00  0.00    +0.006 C 
ATOM     32  C   UNL     1       0.781  -0.013   1.327  0.00  0.00    +0.009 C 
ENDBRANCH   1  31
TORSDOF 3
