REMARK  Name = ZINC36628793
REMARK  6 active torsions:
REMARK  status: ('A' for Active; 'I' for Inactive)
REMARK    1  A    between atoms: C_3  and  N_32
REMARK    2  A    between atoms: C_6  and  C_7
REMARK    3  A    between atoms: C_8  and  C_9
REMARK    4  A    between atoms: C_11  and  C_30
REMARK    5  A    between atoms: C_12  and  N_14
REMARK    6  A    between atoms: C_20  and  C_22
REMARK                            x       y       z     vdW  Elec       q    Type
REMARK                         _______ _______ _______ _____ _____    ______ ____
ROOT
ATOM      1  C   UNL     1      -2.969  -2.598  -0.604  0.00  0.00    +0.224 A 
ATOM      2  N   UNL     1      -2.962  -2.557   0.735  0.00  0.00    -0.197 NA
ATOM      3  C   UNL     1      -3.439  -3.688   1.210  0.00  0.00    +0.201 A 
ATOM      4  C   UNL     1      -3.778  -4.523   0.026  0.00  0.00    +0.228 A 
ATOM      5  O   UNL     1      -3.463  -3.774  -1.045  0.00  0.00    -0.421 OA
ENDROOT
BRANCH   4   6
ATOM      6  N   UNL     1      -4.293  -5.754   0.028  0.00  0.00    -0.296 N 
ATOM      7  C   UNL     1      -5.745  -5.958   0.123  0.00  0.00    +0.127 C 
ATOM      8  C   UNL     1      -6.200  -6.812  -1.067  0.00  0.00    +0.127 C 
ATOM      9  N   UNL     1      -5.324  -7.989  -1.162  0.00  0.00    -0.294 N 
ATOM     10  C   UNL     1      -3.872  -7.785  -1.257  0.00  0.00    +0.127 C 
ATOM     11  C   UNL     1      -3.418  -6.931  -0.073  0.00  0.00    +0.127 C 
ATOM     12  C   UNL     1      -5.844  -9.232  -1.161  0.00  0.00    +0.248 C 
ATOM     13  O   UNL     1      -7.050  -9.387  -1.158  0.00  0.00    -0.270 OA
BRANCH  12  14
ATOM     14  C   UNL     1      -4.949 -10.407  -1.163  0.00  0.00    +0.055 A 
ATOM     15  C   UNL     1      -3.975 -10.546  -2.155  0.00  0.00    +0.016 A 
ATOM     16  C   UNL     1      -3.143 -11.644  -2.151  0.00  0.00    +0.021 A 
ATOM     17  C   UNL     1      -3.269 -12.611  -1.166  0.00  0.00    +0.042 A 
ATOM     18  C   UNL     1      -4.231 -12.481  -0.180  0.00  0.00    +0.040 A 
ATOM     19  C   UNL     1      -5.068 -11.382  -0.168  0.00  0.00    +0.054 A 
ATOM     20 CL   UNL     1      -6.269 -11.216   1.074  0.00  0.00    -0.083 Cl
ATOM     21 CL   UNL     1      -2.217 -13.991  -1.170  0.00  0.00    -0.083 Cl
ENDBRANCH  12  14
ENDBRANCH   4   6
BRANCH   1  23
ATOM     22  C   UNL     1      -2.037  -0.389  -0.868  0.00  0.00    +0.013 C 
ATOM     23  C   UNL     1      -2.531  -1.567  -1.428  0.00  0.00    +0.068 C 
BRANCH  22  29
ATOM     24  C   UNL     1      -1.091   1.851  -1.146  0.00  0.00    +0.010 A 
ATOM     25  C   UNL     1      -0.664   2.857  -1.965  0.00  0.00    +0.033 A 
ATOM     26  C   UNL     1      -0.721   2.708  -3.344  0.00  0.00    +0.126 A 
ATOM     27  C   UNL     1      -1.213   1.540  -3.906  0.00  0.00    +0.033 A 
ATOM     28  C   UNL     1      -1.645   0.520  -3.107  0.00  0.00    +0.010 A 
ATOM     29  C   UNL     1      -1.592   0.659  -1.706  0.00  0.00    -0.025 A 
BRANCH  26  30
ATOM     30  N   UNL     1      -0.256   3.806  -4.221  0.00  0.00    +0.056 N 
ATOM     31  O   UNL     1       0.211   4.918  -3.692  0.00  0.00    -0.126 OA
ATOM     32  O   UNL     1      -0.308   3.671  -5.529  0.00  0.00    -0.126 OA
ENDBRANCH  26  30
ENDBRANCH  22  29
ENDBRANCH   1  23
BRANCH   3  33
ATOM     33  C   UNL     1      -3.599  -4.044   2.587  0.00  0.00    +0.124 C 
ATOM     34  N   UNL     1      -3.725  -4.326   3.681  0.00  0.00    -0.189 NA
ENDBRANCH   3  33
TORSDOF 6
