REMARK  Name = ZINC43593055
REMARK  5 active torsions:
REMARK  status: ('A' for Active; 'I' for Inactive)
REMARK    1  A    between atoms: C_1  and  C_2
REMARK    2  A    between atoms: N_7  and  S_8
REMARK    3  A    between atoms: S_8  and  C_11
REMARK    4  A    between atoms: C_14  and  S_18
REMARK    5  A    between atoms: S_18  and  N_21
REMARK                            x       y       z     vdW  Elec       q    Type
REMARK                         _______ _______ _______ _____ _____    ______ ____
ROOT
ATOM      1  C   UNL     1      -0.795  -1.484   3.264  0.00  0.00    +0.141 A 
ATOM      2  C   UNL     1      -0.418  -2.365   4.259  0.00  0.00    +0.033 A 
ATOM      3  C   UNL     1      -1.280  -3.372   4.654  0.00  0.00    +0.030 A 
ATOM      4  C   UNL     1      -2.519  -3.497   4.054  0.00  0.00    +0.108 A 
ATOM      5  C   UNL     1      -2.898  -2.616   3.059  0.00  0.00    +0.068 A 
ATOM      6  C   UNL     1      -2.038  -1.605   2.666  0.00  0.00    +0.151 A 
ATOM      7  F   UNL     1      -2.409  -0.740   1.697  0.00  0.00    -0.203 F 
ENDROOT
BRANCH   1   8
ATOM      8  S   UNL     1       0.303  -0.201   2.761  0.00  0.00    +0.064 S 
ATOM      9  O   UNL     1       1.488  -0.356   3.530  0.00  0.00    -0.153 OA
ATOM     10  O   UNL     1      -0.451   1.003   2.760  0.00  0.00    -0.153 OA
BRANCH   8  16
ATOM     11  C   UNL     1      -0.019   1.526   0.010  0.00  0.00    +0.026 C 
ATOM     12  C   UNL     1       0.002  -0.004   0.002  0.00  0.00    +0.077 C 
ATOM     13  C   UNL     1       0.760  -0.512  -1.242  0.00  0.00    +0.021 C 
ATOM     14  C   UNL     1       2.183  -0.793  -0.692  0.00  0.00    +0.019 C 
ATOM     15  C   UNL     1       1.869  -1.310   0.734  0.00  0.00    +0.110 C 
ATOM     16  N   UNL     1       0.718  -0.501   1.186  0.00  0.00    -0.174 NA
ENDBRANCH   8  16
ENDBRANCH   1   8
BRANCH   4  17
ATOM     17  S   UNL     1      -3.616  -4.781   4.558  0.00  0.00    +0.056 S 
ATOM     18  O   UNL     1      -4.492  -5.019   3.465  0.00  0.00    -0.153 OA
ATOM     19  O   UNL     1      -2.809  -5.805   5.124  0.00  0.00    -0.153 OA
BRANCH  17  20
ATOM     20  N   UNL     1      -4.545  -4.177   5.787  0.00  0.00    -0.204 NA
ATOM     21  H   UNL     1      -4.417  -3.264   6.089  0.00  0.00    +0.144 HD
ATOM     22  H   UNL     1      -5.219  -4.735   6.206  0.00  0.00    +0.144 HD
ENDBRANCH  17  20
ENDBRANCH   4  17
TORSDOF 4
