REMARK  Name = ZINC38705907
REMARK  15 active torsions:
REMARK  status: ('A' for Active; 'I' for Inactive)
REMARK    1  A    between atoms: C_1  and  C_2
REMARK    2  A    between atoms: C_2  and  C_3
REMARK    3  A    between atoms: C_3  and  C_4
REMARK    4  A    between atoms: C_4  and  O_5
REMARK    5  A    between atoms: O_5  and  C_6
REMARK    6  A    between atoms: C_9  and  C_15
REMARK    7  A    between atoms: C_11  and  O_12
REMARK    8  A    between atoms: O_12  and  C_13
REMARK    9  A    between atoms: C_13  and  C_14
REMARK   10  A    between atoms: C_18  and  C_33
REMARK   11  A    between atoms: N_25  and  C_26
REMARK   12  A    between atoms: C_26  and  C_27
REMARK   13  A    between atoms: C_34  and  C_41
REMARK   14  A    between atoms: C_36  and  C_40
REMARK   15  A    between atoms: C_38  and  O_39
REMARK                            x       y       z     vdW  Elec       q    Type
REMARK                         _______ _______ _______ _____ _____    ______ ____
ROOT
ATOM      1  C   UNL     1       1.858  -8.089  -3.126  0.00  0.00    +0.142 C 
ATOM      2  C   UNL     1       0.521  -8.655  -3.518  0.00  0.00    +0.035 A 
ATOM      3  C   UNL     1      -0.524  -8.677  -4.448  0.00  0.00    +0.102 A 
ATOM      4  N   UNL     1      -1.426  -9.532  -4.008  0.00  0.00    -0.173 NA
ATOM      5  N   UNL     1      -1.055 -10.051  -2.892  0.00  0.00    -0.272 N 
ATOM      6  H   UNL     1      -1.562 -10.705  -2.386  0.00  0.00    +0.189 HD
ATOM      7  C   UNL     1       0.159  -9.545  -2.525  0.00  0.00    +0.126 A 
ATOM      8  C   UNL     1       1.220  -9.569  -1.511  0.00  0.00    +0.266 C 
ATOM      9  O   UNL     1       1.204 -10.254  -0.506  0.00  0.00    -0.268 OA
ATOM     10  N   UNL     1       2.213  -8.726  -1.851  0.00  0.00    -0.281 N 
ENDROOT
BRANCH   3  11
ATOM     11  C   UNL     1      -0.602  -7.884  -5.700  0.00  0.00    +0.047 A 
ATOM     12  C   UNL     1      -1.751  -7.155  -5.996  0.00  0.00    -0.037 A 
ATOM     13  C   UNL     1      -1.818  -6.419  -7.162  0.00  0.00    +0.007 A 
ATOM     14  C   UNL     1      -0.748  -6.404  -8.039  0.00  0.00    -0.047 A 
ATOM     15  C   UNL     1       0.396  -7.124  -7.755  0.00  0.00    +0.049 A 
ATOM     16  C   UNL     1       0.480  -7.862  -6.585  0.00  0.00    +0.127 A 
ATOM     17  C   UNL     1      -0.832  -5.597  -9.309  0.00  0.00    +0.044 C 
ATOM     18  C   UNL     1      -2.919  -7.170  -5.044  0.00  0.00    +0.044 C 
BRANCH  16  19
ATOM     19  O   UNL     1       1.607  -8.565  -6.302  0.00  0.00    -0.506 OA
ATOM     20  H   UNL     1       1.635  -9.443  -6.707  0.00  0.00    +0.292 HD
ENDBRANCH  16  19
ENDBRANCH   3  11
BRANCH   1  24
ATOM     21  C   UNL     1       1.572  -3.853  -2.620  0.00  0.00    +0.162 A 
ATOM     22  C   UNL     1       0.904  -4.703  -1.754  0.00  0.00    +0.050 A 
ATOM     23  C   UNL     1       0.998  -6.072  -1.921  0.00  0.00    +0.009 A 
ATOM     24  C   UNL     1       1.759  -6.596  -2.950  0.00  0.00    -0.019 A 
ATOM     25  C   UNL     1       2.428  -5.753  -3.817  0.00  0.00    +0.055 A 
ATOM     26  C   UNL     1       2.333  -4.380  -3.659  0.00  0.00    +0.162 A 
BRANCH  21  27
ATOM     27  O   UNL     1       1.480  -2.505  -2.459  0.00  0.00    -0.488 OA
BRANCH  27  28
ATOM     28  C   UNL     1       0.682  -2.036  -1.371  0.00  0.00    +0.229 C 
BRANCH  28  29
ATOM     29  C   UNL     1       0.698  -0.506  -1.349  0.00  0.00    +0.041 C 
BRANCH  29  31
ATOM     30  C   UNL     1      -0.141   1.526  -0.163  0.00  0.00    +0.004 C 
ATOM     31  C   UNL     1      -0.157  -0.003  -0.184  0.00  0.00    -0.000 C 
ENDBRANCH  29  31
ENDBRANCH  28  29
ENDBRANCH  27  28
ENDBRANCH  21  27
BRANCH  26  32
ATOM     32  O   UNL     1       2.986  -3.549  -4.515  0.00  0.00    -0.489 OA
BRANCH  32  33
ATOM     33  C   UNL     1       3.748  -4.160  -5.558  0.00  0.00    +0.226 C 
ATOM     34  C   UNL     1       4.406  -3.075  -6.413  0.00  0.00    +0.048 C 
ENDBRANCH  32  33
ENDBRANCH  26  32
ENDBRANCH   1  24
BRANCH  10  35
ATOM     35  C   UNL     1       3.437  -8.486  -1.083  0.00  0.00    +0.144 C 
BRANCH  35  36
ATOM     36  C   UNL     1       3.208  -7.354  -0.115  0.00  0.00    -0.030 A 
ATOM     37  C   UNL     1       3.463  -6.051  -0.501  0.00  0.00    +0.005 A 
ATOM     38  C   UNL     1       3.253  -5.013   0.388  0.00  0.00    +0.000 A 
ATOM     39  C   UNL     1       2.787  -5.277   1.662  0.00  0.00    +0.000 A 
ATOM     40  C   UNL     1       2.530  -6.580   2.048  0.00  0.00    +0.000 A 
ATOM     41  C   UNL     1       2.737  -7.618   1.158  0.00  0.00    +0.005 A 
ENDBRANCH  35  36
ENDBRANCH  10  35
TORSDOF 11
