REMARK  Name = ZINC14546013
REMARK  5 active torsions:
REMARK  status: ('A' for Active; 'I' for Inactive)
REMARK    1  A    between atoms: C_1  and  O_2
REMARK    2  A    between atoms: O_2  and  C_3
REMARK    3  A    between atoms: C_8  and  C_9
REMARK    4  A    between atoms: C_20  and  N_26
REMARK    5  A    between atoms: C_22  and  O_25
REMARK                            x       y       z     vdW  Elec       q    Type
REMARK                         _______ _______ _______ _____ _____    ______ ____
ROOT
ATOM      1  C   UNL     1      -0.769   1.660   1.208  0.00  0.00    +0.109 C 
ATOM      2  C   UNL     1      -0.062   1.027   0.008  0.00  0.00    +0.029 C 
ATOM      3  C   UNL     1       1.387   1.589  -0.041  0.00  0.00    +0.033 C 
ATOM      4  C   UNL     1       1.229   2.916  -0.756  0.00  0.00    -0.030 C 
ATOM      5  C   UNL     1       0.121   2.933  -1.454  0.00  0.00    -0.023 C 
ATOM      6  C   UNL     1      -0.622   1.626  -1.300  0.00  0.00    +0.049 C 
ATOM      7  C   UNL     1      -2.100   1.865  -1.208  0.00  0.00    -0.014 A 
ATOM      8  C   UNL     1      -2.770   2.256  -2.362  0.00  0.00    +0.039 A 
ATOM      9  C   UNL     1      -4.128   2.494  -2.342  0.00  0.00    +0.130 A 
ATOM     10  C   UNL     1      -4.841   2.344  -1.166  0.00  0.00    +0.080 A 
ATOM     11  C   UNL     1      -4.186   1.955  -0.012  0.00  0.00    +0.140 A 
ATOM     12  C   UNL     1      -2.808   1.714  -0.031  0.00  0.00    +0.074 A 
ATOM     13  N   UNL     1      -2.195   1.321   1.162  0.00  0.00    -0.334 N 
ATOM     14  H   UNL     1      -2.326   0.334   1.328  0.00  0.00    +0.147 HD
ENDROOT
BRANCH   1  20
ATOM     15  C   UNL     1      -0.364   1.820   3.677  0.00  0.00    +0.125 A 
ATOM     16  C   UNL     1       0.201   1.342   4.851  0.00  0.00    +0.046 A 
ATOM     17  C   UNL     1       0.982   0.203   4.826  0.00  0.00    +0.004 A 
ATOM     18  C   UNL     1       1.196  -0.464   3.634  0.00  0.00    +0.001 A 
ATOM     19  C   UNL     1       0.629   0.007   2.464  0.00  0.00    +0.009 A 
ATOM     20  C   UNL     1      -0.152   1.147   2.484  0.00  0.00    +0.015 A 
BRANCH  15  22
ATOM     21  C   UNL     1      -1.303   3.586   4.963  0.00  0.00    +0.277 C 
ATOM     22  O   UNL     1      -1.128   2.944   3.698  0.00  0.00    -0.495 OA
ENDBRANCH  15  22
ENDBRANCH   1  20
BRANCH   9  23
ATOM     23  N   UNL     1      -4.824   2.909  -3.581  0.00  0.00    +0.057 N 
ATOM     24  O   UNL     1      -6.024   3.118  -3.564  0.00  0.00    -0.126 OA
ATOM     25  O   UNL     1      -4.197   3.040  -4.617  0.00  0.00    -0.126 OA
ENDBRANCH   9  23
BRANCH  11  26
ATOM     26  O   UNL     1      -4.884   1.807   1.146  0.00  0.00    -0.505 OA
ATOM     27  H   UNL     1      -4.934   2.612   1.680  0.00  0.00    +0.292 HD
ENDBRANCH  11  26
TORSDOF 4
