REMARK  Name = ZINC64202394
REMARK  11 active torsions:
REMARK  status: ('A' for Active; 'I' for Inactive)
REMARK    1  A    between atoms: C_1  and  C_2
REMARK    2  A    between atoms: C_4  and  C_34
REMARK    3  A    between atoms: C_8  and  C_12
REMARK    4  A    between atoms: C_12  and  C_14
REMARK    5  A    between atoms: C_12  and  S_15
REMARK    6  A    between atoms: S_15  and  C_16
REMARK    7  A    between atoms: C_20  and  C_28
REMARK    8  A    between atoms: N_21  and  C_22
REMARK    9  A    between atoms: C_22  and  C_23
REMARK   10  A    between atoms: C_28  and  C_29
REMARK   11  A    between atoms: C_29  and  C_30
REMARK                            x       y       z     vdW  Elec       q    Type
REMARK                         _______ _______ _______ _____ _____    ______ ____
ROOT
ATOM      1  C   UNL     1      -4.032  -5.264   6.243  0.00  0.00    +0.237 C 
ATOM      2  N   UNL     1      -3.519  -4.564   7.434  0.00  0.00    -0.238 N 
ATOM      3  N   UNL     1      -2.389  -5.279   7.847  0.00  0.00    -0.174 NA
ATOM      4  C   UNL     1      -2.161  -6.285   7.085  0.00  0.00    +0.118 C 
ATOM      5  N   UNL     1      -3.098  -6.388   6.064  0.00  0.00    -0.282 N 
ATOM      6  H   UNL     1      -3.890  -3.768   7.847  0.00  0.00    +0.171 HD
ENDROOT
BRANCH   1   7
ATOM      7  S   UNL     1      -3.997  -4.170   4.796  0.00  0.00    -0.107 S 
BRANCH   7   8
ATOM      8  C   UNL     1      -2.262  -3.654   4.678  0.00  0.00    +0.112 C 
ATOM      9  C   UNL     1      -1.894  -2.818   5.906  0.00  0.00    +0.027 C 
BRANCH   8  16
ATOM     10  C   UNL     1      -0.019   1.526   0.010  0.00  0.00    +0.024 C 
ATOM     11  C   UNL     1       0.002  -0.004   0.002  0.00  0.00    +0.076 C 
ATOM     12  C   UNL     1      -1.399  -0.565   0.089  0.00  0.00    -0.045 C 
ATOM     13  C   UNL     1      -1.704  -1.321   1.155  0.00  0.00    +0.071 C 
ATOM     14  C   UNL     1      -0.645  -1.546   2.162  0.00  0.00    +0.111 C 
ATOM     15  N   UNL     1      -0.881  -2.276   3.226  0.00  0.00    -0.226 NA
ATOM     16  C   UNL     1      -2.066  -2.829   3.432  0.00  0.00    +0.136 C 
ATOM     17  N   UNL     1      -3.079  -2.698   2.609  0.00  0.00    -0.160 NA
ATOM     18  C   UNL     1      -3.005  -1.988   1.478  0.00  0.00    +0.271 C 
ATOM     19  O   UNL     1      -3.966  -1.886   0.735  0.00  0.00    -0.268 OA
ATOM     20  S   UNL     1       0.764  -0.661   1.541  0.00  0.00    -0.098 S 
ATOM     21  C   UNL     1      -2.419  -0.284  -0.984  0.00  0.00    +0.041 C 
ENDBRANCH   8  16
ENDBRANCH   7   8
ENDBRANCH   1   7
BRANCH   5  22
ATOM     22  C   UNL     1      -3.149  -7.412   5.017  0.00  0.00    +0.183 C 
BRANCH  22  23
ATOM     23  C   UNL     1      -2.348  -6.951   3.826  0.00  0.00    +0.122 A 
ATOM     24  C   UNL     1      -1.040  -7.186   3.619  0.00  0.00    +0.046 A 
ATOM     25  C   UNL     1      -0.704  -6.578   2.388  0.00  0.00    +0.041 A 
ATOM     26  C   UNL     1      -1.827  -6.007   1.916  0.00  0.00    +0.195 A 
ATOM     27  O   UNL     1      -2.821  -6.241   2.788  0.00  0.00    -0.466 OA
ENDBRANCH  22  23
ENDBRANCH   5  22
BRANCH   4  28
ATOM     28  C   UNL     1      -1.014  -7.243   7.275  0.00  0.00    +0.082 C 
BRANCH  28  29
ATOM     29  C   UNL     1      -0.194  -6.821   8.496  0.00  0.00    +0.103 C 
BRANCH  29  30
ATOM     30  C   UNL     1       0.954  -7.780   8.686  0.00  0.00    +0.211 C 
ATOM     31  O   UNL     1       1.101  -8.709   7.921  0.00  0.00    -0.276 OA
ATOM     32  N   UNL     1       1.816  -7.604   9.707  0.00  0.00    -0.329 N 
ATOM     33  H   UNL     1       1.698  -6.861  10.319  0.00  0.00    +0.145 HD
ATOM     34  H   UNL     1       2.554  -8.221   9.829  0.00  0.00    +0.145 HD
ENDBRANCH  29  30
ENDBRANCH  28  29
ENDBRANCH   4  28
TORSDOF 8
