REMARK  Name = ZINC12483301
REMARK  6 active torsions:
REMARK  status: ('A' for Active; 'I' for Inactive)
REMARK    1  A    between atoms: C_4  and  C_7
REMARK    2  A    between atoms: C_7  and  N_44
REMARK    3  A    between atoms: C_8  and  N_44
REMARK    4  A    between atoms: C_17  and  S_22
REMARK    5  A    between atoms: C_19  and  O_21
REMARK    6  A    between atoms: S_22  and  C_23
REMARK                            x       y       z     vdW  Elec       q    Type
REMARK                         _______ _______ _______ _____ _____    ______ ____
ROOT
ATOM      1  C   UNL     1       0.025  -1.952   1.430  0.00  0.00    -0.009 C 
ATOM      2  C   UNL     1      -0.458  -2.426   2.810  0.00  0.00    +0.136 C 
ATOM      3  C   UNL     1      -0.095  -3.923   2.948  0.00  0.00    +0.193 C 
ATOM      4  O   UNL     1       1.220  -3.934   3.531  0.00  0.00    -0.348 OA
ATOM      5  C   UNL     1       1.621  -2.560   3.688  0.00  0.00    +0.266 C 
ATOM      6  O   UNL     1       0.386  -1.786   3.801  0.00  0.00    -0.346 OA
ATOM      7  C   UNL     1       2.345  -2.122   2.405  0.00  0.00    +0.134 C 
ATOM      8  C   UNL     1       1.451  -2.470   1.208  0.00  0.00    +0.121 C 
ENDROOT
BRANCH   1   9
ATOM      9  N   UNL     1       0.030  -0.477   1.385  0.00  0.00    +0.387 N 
ATOM     10  H   UNL     1       0.323  -0.112   2.298  0.00  0.00    -0.085 HD
ATOM     11  H   UNL     1       0.689  -0.163   0.662  0.00  0.00    -0.085 HD
BRANCH   9  12
ATOM     12  C   UNL     1      -1.319   0.030   1.068  0.00  0.00    -0.046 C 
BRANCH  12  16
ATOM     13  C   UNL     1      -1.219   4.299   0.956  0.00  0.00    +0.000 A 
ATOM     14  C   UNL     1      -0.974   3.571  -0.194  0.00  0.00    +0.000 A 
ATOM     15  C   UNL     1      -1.006   2.190  -0.158  0.00  0.00    +0.002 A 
ATOM     16  C   UNL     1      -1.283   1.536   1.028  0.00  0.00    -0.064 A 
ATOM     17  C   UNL     1      -1.533   2.263   2.177  0.00  0.00    +0.002 A 
ATOM     18  C   UNL     1      -1.497   3.644   2.142  0.00  0.00    +0.000 A 
ENDBRANCH  12  16
ENDBRANCH   9  12
ENDBRANCH   1   9
BRANCH   8  19
ATOM     19  O   UNL     1       1.426  -3.893   1.076  0.00  0.00    -0.392 OA
ATOM     20  H   UNL     1       2.296  -4.290   0.932  0.00  0.00    +0.210 HD
ENDBRANCH   8  19
BRANCH   7  21
ATOM     21  S   UNL     1       2.605  -0.327   2.436  0.00  0.00    -0.114 S 
BRANCH  21  22
ATOM     22  C   UNL     1       3.820  -0.095   3.691  0.00  0.00    +0.008 A 
ATOM     23  C   UNL     1       4.415  -1.195   4.297  0.00  0.00    +0.015 A 
ATOM     24  C   UNL     1       5.370  -1.009   5.276  0.00  0.00    +0.001 A 
ATOM     25  C   UNL     1       5.728   0.271   5.662  0.00  0.00    +0.000 A 
ATOM     26  C   UNL     1       5.135   1.368   5.064  0.00  0.00    +0.001 A 
ATOM     27  C   UNL     1       4.182   1.189   4.080  0.00  0.00    +0.015 A 
ENDBRANCH  21  22
ENDBRANCH   7  21
TORSDOF 6
