REMARK  Name = ZINC10059434
REMARK  5 active torsions:
REMARK  status: ('A' for Active; 'I' for Inactive)
REMARK    1  A    between atoms: C_3  and  N_9
REMARK    2  A    between atoms: C_10  and  C_12
REMARK    3  A    between atoms: C_12  and  S_13
REMARK    4  A    between atoms: S_13  and  C_14
REMARK    5  A    between atoms: C_20  and  N_22
REMARK                            x       y       z     vdW  Elec       q    Type
REMARK                         _______ _______ _______ _____ _____    ______ ____
ROOT
ATOM      1  C   UNL     1      -0.003   1.101   0.008  0.00  0.00    +0.173 C 
ENDROOT
BRANCH   1   3
ATOM      2  N   UNL     1      -0.288   1.272  -2.443  0.00  0.00    -0.284 N 
ATOM      3  C   UNL     1      -0.738   1.591  -1.213  0.00  0.00    +0.228 C 
ATOM      4  O   UNL     1      -1.735   2.271  -1.089  0.00  0.00    -0.275 OA
ATOM      5  H   UNL     1       0.655   0.719  -2.557  0.00  0.00    +0.155 HD
BRANCH   2   8
ATOM      6  C   UNL     1      -2.445   3.212  -4.704  0.00  0.00    +0.022 A 
ATOM      7  C   UNL     1      -1.723   2.845  -3.585  0.00  0.00    +0.026 A 
ATOM      8  C   UNL     1      -1.022   1.647  -3.575  0.00  0.00    +0.052 A 
ATOM      9  C   UNL     1      -1.046   0.822  -4.694  0.00  0.00    +0.064 A 
ATOM     10  C   UNL     1      -1.775   1.192  -5.808  0.00  0.00    +0.041 A 
ATOM     11  C   UNL     1      -2.472   2.387  -5.814  0.00  0.00    +0.042 A 
ATOM     12 CL   UNL     1      -3.381   2.853  -7.218  0.00  0.00    -0.083 Cl
ATOM     13 CL   UNL     1      -0.166  -0.675  -4.689  0.00  0.00    -0.082 Cl
ENDBRANCH   2   8
ENDBRANCH   1   3
BRANCH   1  14
ATOM     14  S   UNL     1      -0.847   1.691   1.497  0.00  0.00    -0.078 S 
BRANCH  14  15
ATOM     15  C   UNL     1       0.194   0.993   2.735  0.00  0.00    +0.171 A 
ATOM     16  N   UNL     1      -0.098   1.204   4.049  0.00  0.00    -0.302 N 
ATOM     17  H   UNL     1      -0.976   1.806   4.328  0.00  0.00    +0.171 HD
ATOM     18  C   UNL     1       0.688   0.677   5.011  0.00  0.00    +0.254 A 
ATOM     19  O   UNL     1       0.434   0.862   6.191  0.00  0.00    -0.268 OA
ATOM     20  C   UNL     1       1.799  -0.083   4.633  0.00  0.00    +0.113 A 
ATOM     21  C   UNL     1       2.053  -0.269   3.282  0.00  0.00    +0.124 A 
ATOM     22  N   UNL     1       1.236   0.273   2.372  0.00  0.00    -0.209 NA
BRANCH  21  23
ATOM     23  N   UNL     1       3.142  -1.014   2.877  0.00  0.00    -0.343 N 
ATOM     24  H   UNL     1       3.342  -1.160   1.805  0.00  0.00    +0.144 HD
ATOM     25  H   UNL     1       3.811  -1.463   3.627  0.00  0.00    +0.144 HD
ENDBRANCH  21  23
ENDBRANCH  14  15
ENDBRANCH   1  14
TORSDOF 5
