REMARK  Name = ZINC15044832
REMARK  8 active torsions:
REMARK  status: ('A' for Active; 'I' for Inactive)
REMARK    1  A    between atoms: C_1  and  C_2
REMARK    2  A    between atoms: C_2  and  C_4
REMARK    3  A    between atoms: C_2  and  N_13
REMARK    4  A    between atoms: C_14  and  C_16
REMARK    5  A    between atoms: C_16  and  N_58
REMARK    6  A    between atoms: C_19  and  C_22
REMARK    7  A    between atoms: N_24  and  C_25
REMARK    8  A    between atoms: C_30  and  O_31
REMARK                            x       y       z     vdW  Elec       q    Type
REMARK                         _______ _______ _______ _____ _____    ______ ____
ROOT
ATOM      1  C   UNL     1      -4.457   3.699   3.761  0.00  0.00    -0.077 C 
ATOM      2  C   UNL     1      -5.402   4.847   4.119  0.00  0.00    -0.006 C 
ATOM      3  C   UNL     1      -6.623   4.286   4.853  0.00  0.00    +0.072 C 
ATOM      4  C   UNL     1      -7.310   3.245   3.964  0.00  0.00    -0.006 C 
ATOM      5  C   UNL     1      -6.309   2.143   3.611  0.00  0.00    -0.077 C 
ATOM      6  N   UNL     1      -5.170   2.745   2.885  0.00  0.00    +0.385 N 
ATOM      7  H   UNL     1      -5.526   3.249   2.064  0.00  0.00    -0.081 HD
ENDROOT
BRANCH   3   8
ATOM      8  C   UNL     1      -7.587   5.404   5.156  0.00  0.00    +0.220 C 
ATOM      9  O   UNL     1      -8.713   5.373   4.705  0.00  0.00    -0.275 OA
ATOM     10  N   UNL     1      -7.198   6.439   5.927  0.00  0.00    -0.282 N 
ATOM     11  H   UNL     1      -6.320   6.433   6.340  0.00  0.00    +0.155 HD
BRANCH  10  12
ATOM     12  C   UNL     1      -8.061   7.523   6.132  0.00  0.00    +0.075 A 
ATOM     13  C   UNL     1      -9.431   7.317   6.213  0.00  0.00    +0.027 A 
ATOM     14  C   UNL     1     -10.280   8.388   6.415  0.00  0.00    +0.002 A 
ATOM     15  C   UNL     1      -9.768   9.667   6.537  0.00  0.00    +0.004 A 
ATOM     16  C   UNL     1      -8.405   9.881   6.458  0.00  0.00    +0.047 A 
ATOM     17  C   UNL     1      -7.546   8.811   6.261  0.00  0.00    +0.138 A 
BRANCH  17  18
ATOM     18  O   UNL     1      -6.204   9.019   6.188  0.00  0.00    -0.505 OA
ATOM     19  H   UNL     1      -5.881   9.192   5.293  0.00  0.00    +0.292 HD
ENDBRANCH  17  18
ENDBRANCH  10  12
ENDBRANCH   3   8
BRANCH   6  20
ATOM     20  C   UNL     1      -4.244   1.686   2.432  0.00  0.00    +0.019 C 
BRANCH  20  22
ATOM     21  N   UNL     1      -2.268   1.524   0.954  0.00  0.00    -0.307 N 
ATOM     22  C   UNL     1      -3.217   2.299   1.515  0.00  0.00    +0.197 C 
ATOM     23  O   UNL     1      -3.246   3.489   1.282  0.00  0.00    -0.278 OA
ATOM     24  H   UNL     1      -2.245   0.573   1.140  0.00  0.00    +0.149 HD
BRANCH  21  26
ATOM     25  C   UNL     1      -1.836   2.199  -1.357  0.00  0.00    +0.036 C 
ATOM     26  C   UNL     1      -1.269   2.120   0.062  0.00  0.00    +0.136 C 
BRANCH  26  27
ATOM     27  C   UNL     1      -0.026   1.269   0.060  0.00  0.00    +0.126 A 
ATOM     28  C   UNL     1       1.228   1.742   0.050  0.00  0.00    +0.055 A 
ATOM     29  C   UNL     1       2.108   0.567   0.045  0.00  0.00    +0.020 A 
ATOM     30  C   UNL     1       3.490   0.385   0.036  0.00  0.00    +0.011 A 
ATOM     31  C   UNL     1       4.007  -0.881   0.034  0.00  0.00    +0.001 A 
ATOM     32  C   UNL     1       3.165  -1.984   0.042  0.00  0.00    +0.004 A 
ATOM     33  C   UNL     1       1.796  -1.823   0.051  0.00  0.00    +0.047 A 
ATOM     34  C   UNL     1       1.250  -0.545   0.053  0.00  0.00    +0.135 A 
ATOM     35  O   UNL     1      -0.014  -0.076   0.062  0.00  0.00    -0.458 OA
ENDBRANCH  26  27
ENDBRANCH  21  26
ENDBRANCH  20  22
ENDBRANCH   6  20
TORSDOF 7
