REMARK  Name = ZINC36769139
REMARK  6 active torsions:
REMARK  status: ('A' for Active; 'I' for Inactive)
REMARK    1  A    between atoms: C_1  and  C_2
REMARK    2  A    between atoms: C_2  and  C_3
REMARK    3  A    between atoms: N_6  and  S_10
REMARK    4  A    between atoms: S_10  and  C_13
REMARK    5  A    between atoms: C_16  and  O_20
REMARK    6  A    between atoms: C_17  and  N_19
REMARK                            x       y       z     vdW  Elec       q    Type
REMARK                         _______ _______ _______ _____ _____    ______ ____
ROOT
ATOM      1  S   UNL     1      -3.481  -3.603  -1.000  0.00  0.00    +0.061 S 
ATOM      2  O   UNL     1      -4.888  -3.452  -0.865  0.00  0.00    -0.153 OA
ATOM      3  O   UNL     1      -2.810  -3.411  -2.237  0.00  0.00    -0.153 OA
ENDROOT
BRANCH   1   6
ATOM      4  C   UNL     1      -1.433  -0.534   0.013  0.00  0.00    +0.134 C 
ATOM      5  C   UNL     1      -1.417  -2.061  -0.119  0.00  0.00    +0.141 C 
ATOM      6  N   UNL     1      -2.787  -2.559   0.082  0.00  0.00    -0.172 NA
ATOM      7  C   UNL     1      -3.521  -2.102   1.272  0.00  0.00    +0.137 C 
ATOM      8  C   UNL     1      -3.435  -0.573   1.336  0.00  0.00    +0.177 C 
ATOM      9  O   UNL     1      -2.066  -0.173   1.243  0.00  0.00    -0.374 OA
BRANCH   4  11
ATOM     10  C   UNL     1      -0.019   1.526   0.010  0.00  0.00    +0.006 C 
ATOM     11  C   UNL     1       0.002  -0.004   0.002  0.00  0.00    +0.029 C 
ENDBRANCH   4  11
ENDBRANCH   1   6
BRANCH   1  12
ATOM     12  C   UNL     1      -3.097  -5.238  -0.466  0.00  0.00    +0.107 A 
ATOM     13  C   UNL     1      -1.944  -5.856  -0.914  0.00  0.00    +0.032 A 
ATOM     14  C   UNL     1      -1.636  -7.138  -0.498  0.00  0.00    +0.049 A 
ATOM     15  C   UNL     1      -2.484  -7.808   0.369  0.00  0.00    +0.137 A 
ATOM     16  C   UNL     1      -3.646  -7.186   0.820  0.00  0.00    +0.068 A 
ATOM     17  C   UNL     1      -3.946  -5.897   0.403  0.00  0.00    +0.055 A 
BRANCH  16  18
ATOM     18  N   UNL     1      -4.507  -7.857   1.696  0.00  0.00    -0.355 N 
ATOM     19  H   UNL     1      -4.295  -8.757   1.989  0.00  0.00    +0.142 HD
ATOM     20  H   UNL     1      -5.316  -7.423   2.009  0.00  0.00    +0.142 HD
ENDBRANCH  16  18
BRANCH  15  21
ATOM     21  O   UNL     1      -2.184  -9.070   0.778  0.00  0.00    -0.505 OA
ATOM     22  H   UNL     1      -1.653  -9.105   1.585  0.00  0.00    +0.292 HD
ENDBRANCH  15  21
ENDBRANCH   1  12
TORSDOF 5
