REMARK  Name = ZINC02177652
REMARK  8 active torsions:
REMARK  status: ('A' for Active; 'I' for Inactive)
REMARK    1  A    between atoms: C_4  and  S_7
REMARK    2  A    between atoms: S_7  and  N_10
REMARK    3  A    between atoms: N_10  and  C_11
REMARK    4  A    between atoms: N_10  and  C_19
REMARK    5  A    between atoms: C_11  and  C_12
REMARK    6  A    between atoms: C_19  and  C_20
REMARK    7  A    between atoms: N_22  and  N_23
REMARK    8  A    between atoms: C_24  and  C_25
REMARK                            x       y       z     vdW  Elec       q    Type
REMARK                         _______ _______ _______ _____ _____    ______ ____
ROOT
ATOM      1  N   UNL     1       4.574   9.512   0.011  0.00  0.00    -0.163 NA
ENDROOT
BRANCH   1   2
ATOM      2  S   UNL     1       4.545  10.341   1.444  0.00  0.00    +0.062 S 
ATOM      3  O   UNL     1       3.614  11.402   1.281  0.00  0.00    -0.153 OA
ATOM      4  O   UNL     1       4.418   9.369   2.473  0.00  0.00    -0.153 OA
BRANCH   2   8
ATOM      5  C   UNL     1       8.612  12.257   1.967  0.00  0.00    +0.000 A 
ATOM      6  C   UNL     1       7.604  12.942   1.315  0.00  0.00    +0.002 A 
ATOM      7  C   UNL     1       6.362  12.357   1.155  0.00  0.00    +0.028 A 
ATOM      8  C   UNL     1       6.128  11.087   1.648  0.00  0.00    +0.106 A 
ATOM      9  C   UNL     1       7.134  10.404   2.305  0.00  0.00    +0.028 A 
ATOM     10  C   UNL     1       8.378  10.987   2.461  0.00  0.00    +0.002 A 
ENDBRANCH   2   8
ENDBRANCH   1   2
BRANCH   1  11
ATOM     11  C   UNL     1       4.308  10.215  -1.247  0.00  0.00    +0.145 C 
BRANCH  11  12
ATOM     12  C   UNL     1       2.852  10.068  -1.606  0.00  0.00    -0.032 A 
ATOM     13  C   UNL     1       2.436   9.005  -2.386  0.00  0.00    +0.006 A 
ATOM     14  C   UNL     1       1.100   8.867  -2.712  0.00  0.00    +0.015 A 
ATOM     15  C   UNL     1       0.180   9.799  -2.266  0.00  0.00    +0.018 A 
ATOM     16  C   UNL     1       0.597  10.865  -1.489  0.00  0.00    +0.015 A 
ATOM     17  C   UNL     1       1.933  10.999  -1.160  0.00  0.00    +0.006 A 
ATOM     18 BR   UNL     1      -1.647   9.615  -2.716  0.00  0.00    -0.050 Br
ENDBRANCH  11  12
ENDBRANCH   1  11
BRANCH   1  19
ATOM     19  C   UNL     1       4.866   8.077   0.000  0.00  0.00    +0.207 C 
BRANCH  19  20
ATOM     20  C   UNL     1       3.574   7.301   0.008  0.00  0.00    +0.248 C 
ATOM     21  O   UNL     1       2.513   7.890   0.021  0.00  0.00    -0.273 OA
ATOM     22  N   UNL     1       3.597   5.954   0.001  0.00  0.00    -0.206 N 
ATOM     23  H   UNL     1       4.445   5.483  -0.010  0.00  0.00    +0.177 HD
BRANCH  22  24
ATOM     24  N   UNL     1       2.396   5.232   0.008  0.00  0.00    -0.188 NA
ATOM     25  C   UNL     1       2.418   3.935   0.001  0.00  0.00    +0.141 C 
BRANCH  25  26
ATOM     26  C   UNL     1       1.154   3.176   0.008  0.00  0.00    +0.030 A 
ATOM     27  C   UNL     1       1.173   1.779   0.000  0.00  0.00    +0.012 A 
ATOM     28  C   UNL     1      -0.013   1.076   0.008  0.00  0.00    +0.001 A 
ATOM     29  C   UNL     1      -1.222   1.749   0.017  0.00  0.00    +0.003 A 
ATOM     30  C   UNL     1      -1.251   3.132   0.031  0.00  0.00    +0.039 A 
ATOM     31  C   UNL     1      -0.071   3.851   0.023  0.00  0.00    +0.132 A 
ATOM     32  F   UNL     1      -0.101   5.202   0.030  0.00  0.00    -0.205 F 
ENDBRANCH  25  26
ENDBRANCH  22  24
ENDBRANCH  19  20
ENDBRANCH   1  19
TORSDOF 8
