REMARK  Name = ZINC39534439
REMARK  12 active torsions:
REMARK  status: ('A' for Active; 'I' for Inactive)
REMARK    1  A    between atoms: C_1  and  C_2
REMARK    2  A    between atoms: C_2  and  C_3
REMARK    3  A    between atoms: C_2  and  S_4
REMARK    4  A    between atoms: S_4  and  C_7
REMARK    5  A    between atoms: C_10  and  C_13
REMARK    6  A    between atoms: C_13  and  C_15
REMARK    7  A    between atoms: C_13  and  N_19
REMARK    8  A    between atoms: C_15  and  N_16
REMARK    9  A    between atoms: N_16  and  O_17
REMARK   10  A    between atoms: O_17  and  C_18
REMARK   11  A    between atoms: C_23  and  C_26
REMARK   12  A    between atoms: C_31  and  O_32
REMARK                            x       y       z     vdW  Elec       q    Type
REMARK                         _______ _______ _______ _____ _____    ______ ____
ROOT
ATOM      1  C   UNL     1      -2.244   1.619   6.143  0.00  0.00    +0.103 C 
ENDROOT
BRANCH   1   2
ATOM      2  N   UNL     1      -2.565   0.528   7.073  0.00  0.00    -0.297 NA
ATOM      3  C   UNL     1      -3.744  -0.223   6.618  0.00  0.00    +0.066 C 
ATOM      4  C   UNL     1      -4.009  -1.383   7.579  0.00  0.00    -0.066 C 
ATOM      5  N   UNL     1      -4.235  -0.857   8.932  0.00  0.00    +0.385 N 
ATOM      6  C   UNL     1      -3.040  -0.131   9.383  0.00  0.00    -0.023 C 
ATOM      7  C   UNL     1      -2.768   1.040   8.436  0.00  0.00    +0.074 C 
ATOM      8  H   UNL     1      -5.025  -0.230   8.921  0.00  0.00    -0.085 HD
ATOM      9  H   UNL     1      -4.421  -1.621   9.563  0.00  0.00    -0.085 HD
BRANCH   6  10
ATOM     10  C   UNL     1      -3.267   0.393  10.777  0.00  0.00    -0.019 A 
ATOM     11  C   UNL     1      -4.553   0.524  11.266  0.00  0.00    +0.005 A 
ATOM     12  C   UNL     1      -4.762   1.005  12.545  0.00  0.00    +0.000 A 
ATOM     13  C   UNL     1      -3.686   1.356  13.339  0.00  0.00    +0.004 A 
ATOM     14  C   UNL     1      -2.398   1.227  12.855  0.00  0.00    +0.045 A 
ATOM     15  C   UNL     1      -2.186   0.740  11.573  0.00  0.00    +0.118 A 
BRANCH  15  16
ATOM     16  O   UNL     1      -0.920   0.607  11.097  0.00  0.00    -0.507 OA
ATOM     17  H   UNL     1      -0.585   1.393  10.644  0.00  0.00    +0.292 HD
ENDBRANCH  15  16
ENDBRANCH   6  10
ENDBRANCH   1   2
BRANCH   1  21
ATOM     18  C   UNL     1       0.160   0.107   2.952  0.00  0.00    +0.088 A 
ATOM     19  C   UNL     1       0.138   1.463   3.218  0.00  0.00    +0.027 A 
ATOM     20  C   UNL     1      -0.641   1.953   4.251  0.00  0.00    +0.007 A 
ATOM     21  C   UNL     1      -1.397   1.086   5.017  0.00  0.00    -0.029 A 
ATOM     22  C   UNL     1      -1.375  -0.271   4.751  0.00  0.00    +0.007 A 
ATOM     23  C   UNL     1      -0.601  -0.759   3.715  0.00  0.00    +0.027 A 
BRANCH  18  24
ATOM     24  S   UNL     1       1.151  -0.517   1.636  0.00  0.00    -0.001 S 
ATOM     25  O   UNL     1       1.435  -1.861   2.001  0.00  0.00    -0.169 OA
ATOM     26  O   UNL     1       2.200   0.431   1.492  0.00  0.00    -0.169 OA
BRANCH  24  28
ATOM     27  C   UNL     1      -0.380   0.959  -0.084  0.00  0.00    +0.032 C 
ATOM     28  C   UNL     1       0.070  -0.479   0.180  0.00  0.00    +0.130 C 
ATOM     29  C   UNL     1       0.835  -1.005  -1.036  0.00  0.00    +0.032 C 
ENDBRANCH  24  28
ENDBRANCH  18  24
ENDBRANCH   1  21
BRANCH   1  30
ATOM     30  C   UNL     1      -3.539   2.202   5.575  0.00  0.00    +0.134 C 
BRANCH  30  31
ATOM     31  N   UNL     1      -4.363   2.727   6.672  0.00  0.00    -0.200 NA
ATOM     32  H   UNL     1      -4.646   1.988   7.298  0.00  0.00    +0.154 HD
BRANCH  31  33
ATOM     33  O   UNL     1      -5.525   3.450   6.156  0.00  0.00    -0.303 OA
ATOM     34  C   UNL     1      -6.373   3.989   7.172  0.00  0.00    +0.221 C 
ENDBRANCH  31  33
ENDBRANCH  30  31
ENDBRANCH   1  30
TORSDOF 9
