REMARK  Name = ZINC63213428
REMARK  4 active torsions:
REMARK  status: ('A' for Active; 'I' for Inactive)
REMARK    1  A    between atoms: C_6  and  S_7
REMARK    2  A    between atoms: S_7  and  N_10
REMARK    3  A    between atoms: N_10  and  C_11
REMARK    4  A    between atoms: C_18  and  N_20
REMARK                            x       y       z     vdW  Elec       q    Type
REMARK                         _______ _______ _______ _____ _____    ______ ____
ROOT
ATOM      1  N   UNL     1      -1.948  -1.148  -1.567  0.00  0.00    -0.188 NA
ATOM      2  H   UNL     1      -2.756  -0.738  -1.915  0.00  0.00    +0.148 HD
ENDROOT
BRANCH   1   3
ATOM      3  C   UNL     1      -1.115  -1.980  -2.438  0.00  0.00    +0.062 C 
ATOM      4  C   UNL     1      -1.652  -3.423  -2.412  0.00  0.00    +0.019 C 
ATOM      5  C   UNL     1      -1.140  -4.273  -3.591  0.00  0.00    +0.001 C 
ATOM      6  C   UNL     1       0.318  -4.039  -3.879  0.00  0.00    -0.000 C 
ATOM      7  C   UNL     1       0.433  -2.962  -4.978  0.00  0.00    -0.002 C 
ATOM      8  C   UNL     1       0.273  -1.614  -4.452  0.00  0.00    -0.015 C 
ATOM      9  C   UNL     1      -1.118  -1.391  -3.823  0.00  0.00    -0.056 C 
BRANCH   9  10
ATOM     10  N   UNL     1      -1.400   0.049  -3.746  0.00  0.00    +0.381 N 
ATOM     11  H   UNL     1      -0.688   0.501  -3.192  0.00  0.00    -0.090 HD
ATOM     12  H   UNL     1      -1.402   0.441  -4.676  0.00  0.00    -0.090 HD
ATOM     13  H   UNL     1      -2.302   0.193  -3.318  0.00  0.00    -0.090 HD
ENDBRANCH   9  10
ENDBRANCH   1   3
BRANCH   1  14
ATOM     14  S   UNL     1      -1.512  -0.906   0.012  0.00  0.00    +0.059 S 
ATOM     15  O   UNL     1      -1.218  -2.186   0.553  0.00  0.00    -0.153 OA
ATOM     16  O   UNL     1      -2.492  -0.046   0.578  0.00  0.00    -0.153 OA
BRANCH  14  22
ATOM     17  C   UNL     1      -0.017   1.378   0.010  0.00  0.00    +0.029 A 
ATOM     18  C   UNL     1       1.171   2.086   0.002  0.00  0.00    +0.016 A 
ATOM     19  C   UNL     1       2.378   1.411  -0.013  0.00  0.00    +0.013 A 
ATOM     20  C   UNL     1       2.396   0.028  -0.021  0.00  0.00    +0.016 A 
ATOM     21  C   UNL     1       1.208  -0.679  -0.013  0.00  0.00    +0.029 A 
ATOM     22  C   UNL     1       0.002  -0.004   0.002  0.00  0.00    +0.105 A 
ATOM     23  I   UNL     1       4.178   2.482  -0.025  0.00  0.00    -0.044 I 
ENDBRANCH  14  22
ENDBRANCH   1  14
TORSDOF 4
