REMARK  Name = ZINC02352896
REMARK  7 active torsions:
REMARK  status: ('A' for Active; 'I' for Inactive)
REMARK    1  A    between atoms: C_1  and  C_2
REMARK    2  A    between atoms: C_4  and  C_33
REMARK    3  A    between atoms: C_11  and  C_13
REMARK    4  A    between atoms: N_15  and  C_16
REMARK    5  A    between atoms: C_19  and  S_22
REMARK    6  A    between atoms: S_22  and  N_25
REMARK    7  A    between atoms: C_29  and  C_32
REMARK                            x       y       z     vdW  Elec       q    Type
REMARK                         _______ _______ _______ _____ _____    ______ ____
ROOT
ATOM      1  C   UNL     1      -0.198  -6.252  -1.195  0.00  0.00    +0.284 C 
ATOM      2  O   UNL     1      -0.710  -6.898  -2.088  0.00  0.00    -0.266 OA
ATOM      3  N   UNL     1       0.661  -6.844  -0.342  0.00  0.00    -0.279 N 
ATOM      4  H   UNL     1       1.120  -6.314   0.329  0.00  0.00    +0.155 HD
ENDROOT
BRANCH   1  15
ATOM      5  C   UNL     1      -1.860   0.921   1.554  0.00  0.00    +0.044 C 
ATOM      6  C   UNL     1      -1.355  -0.430   1.120  0.00  0.00    -0.049 A 
ATOM      7  C   UNL     1      -0.481  -1.136   1.935  0.00  0.00    +0.010 A 
ATOM      8  C   UNL     1      -0.005  -2.372   1.557  0.00  0.00    -0.007 A 
ATOM      9  C   UNL     1      -0.402  -2.925   0.343  0.00  0.00    +0.142 A 
ATOM     10  C   UNL     1      -1.292  -2.206  -0.473  0.00  0.00    +0.064 A 
ATOM     11  C   UNL     1      -1.765  -0.958  -0.074  0.00  0.00    +0.018 A 
ATOM     12  C   UNL     1      -1.714  -2.820  -1.748  0.00  0.00    +0.193 A 
ATOM     13  O   UNL     1      -2.297  -2.185  -2.609  0.00  0.00    -0.287 OA
ATOM     14  C   UNL     1      -1.388  -4.247  -1.917  0.00  0.00    +0.103 A 
ATOM     15  C   UNL     1      -0.520  -4.814  -1.044  0.00  0.00    +0.194 A 
ATOM     16  O   UNL     1       0.059  -4.128  -0.049  0.00  0.00    -0.450 OA
ATOM     17  C   UNL     1       0.945  -3.123   2.454  0.00  0.00    +0.047 C 
ENDBRANCH   1  15
BRANCH   3  18
ATOM     18  C   UNL     1       0.890  -8.220  -0.424  0.00  0.00    +0.034 A 
ATOM     19  C   UNL     1       1.112  -8.959   0.731  0.00  0.00    +0.025 A 
ATOM     20  C   UNL     1       1.338 -10.319   0.647  0.00  0.00    +0.030 A 
ATOM     21  C   UNL     1       1.344 -10.945  -0.586  0.00  0.00    +0.106 A 
ATOM     22  C   UNL     1       1.124 -10.212  -1.738  0.00  0.00    +0.030 A 
ATOM     23  C   UNL     1       0.891  -8.853  -1.661  0.00  0.00    +0.025 A 
BRANCH  21  24
ATOM     24  S   UNL     1       1.634 -12.680  -0.690  0.00  0.00    +0.061 S 
ATOM     25  O   UNL     1       2.131 -12.931  -1.997  0.00  0.00    -0.153 OA
ATOM     26  O   UNL     1       2.353 -13.042   0.481  0.00  0.00    -0.153 OA
BRANCH  24  27
ATOM     27  N   UNL     1       0.161 -13.429  -0.591  0.00  0.00    -0.176 NA
ATOM     28  C   UNL     1      -0.395 -13.818   0.713  0.00  0.00    +0.109 C 
ATOM     29  C   UNL     1      -0.756 -15.306   0.670  0.00  0.00    +0.017 C 
ATOM     30  C   UNL     1      -1.690 -15.567  -0.514  0.00  0.00    +0.006 C 
ATOM     31  C   UNL     1      -0.975 -15.206  -1.819  0.00  0.00    +0.002 C 
ATOM     32  C   UNL     1      -0.619 -13.711  -1.804  0.00  0.00    +0.112 C 
ATOM     33  C   UNL     1      -1.896 -15.498  -3.004  0.00  0.00    +0.009 C 
ENDBRANCH  24  27
ENDBRANCH  21  24
ENDBRANCH   3  18
TORSDOF 4
