REMARK  Name = ZINC04599217
REMARK  15 active torsions:
REMARK  status: ('A' for Active; 'I' for Inactive)
REMARK    1  A    between atoms: C_1  and  C_2
REMARK    2  A    between atoms: C_2  and  N_61
REMARK    3  A    between atoms: C_3  and  C_4
REMARK    4  A    between atoms: C_3  and  N_61
REMARK    5  A    between atoms: C_5  and  C_6
REMARK    6  A    between atoms: C_5  and  N_61
REMARK    7  A    between atoms: C_6  and  N_7
REMARK    8  A    between atoms: N_14  and  C_16
REMARK    9  A    between atoms: C_16  and  C_17
REMARK   10  A    between atoms: C_17  and  C_19
REMARK   11  A    between atoms: C_17  and  O_29
REMARK   12  A    between atoms: C_22  and  O_27
REMARK   13  A    between atoms: C_23  and  O_25
REMARK   14  A    between atoms: O_25  and  C_26
REMARK   15  A    between atoms: O_27  and  C_28
REMARK                            x       y       z     vdW  Elec       q    Type
REMARK                         _______ _______ _______ _____ _____    ______ ____
ROOT
ATOM      1  N   UNL     1      -0.652  -0.057   2.960  0.00  0.00    -0.313 N 
ATOM      2  C   UNL     1      -0.848  -1.242   3.669  0.00  0.00    +0.068 A 
ATOM      3  C   UNL     1      -1.654  -2.349   3.449  0.00  0.00    +0.028 A 
ATOM      4  C   UNL     1      -1.633  -3.404   4.339  0.00  0.00    +0.002 A 
ATOM      5  C   UNL     1      -0.806  -3.365   5.448  0.00  0.00    +0.002 A 
ATOM      6  C   UNL     1       0.004  -2.269   5.673  0.00  0.00    +0.028 A 
ATOM      7  C   UNL     1      -0.010  -1.204   4.784  0.00  0.00    +0.068 A 
ATOM      8  N   UNL     1       0.680   0.007   4.748  0.00  0.00    -0.309 N 
ATOM      9  C   UNL     1       0.278   0.695   3.631  0.00  0.00    +0.183 A 
ATOM     10  H   UNL     1       0.430   2.368   2.474  0.00  0.00    +0.159 HD
ATOM     11  N   UNL     1       0.758   1.893   3.315  0.00  0.00    -0.371 N 
ATOM     12  H   UNL     1       1.458   2.340   3.918  0.00  0.00    +0.159 HD
ENDROOT
BRANCH   1  13
ATOM     13  C   UNL     1      -1.328   0.321   1.716  0.00  0.00    +0.107 C 
BRANCH  13  14
ATOM     14  C   UNL     1      -0.510  -0.171   0.521  0.00  0.00    -0.057 C 
BRANCH  14  15
ATOM     15  N   UNL     1      -1.215   0.200  -0.724  0.00  0.00    +0.380 N 
ATOM     16  H   UNL     1      -2.188  -0.123  -0.665  0.00  0.00    -0.082 HD
BRANCH  15  18
ATOM     17  C   UNL     1       0.229   2.192  -0.963  0.00  0.00    -0.017 C 
ATOM     18  C   UNL     1      -1.207   1.668  -0.892  0.00  0.00    -0.082 C 
ENDBRANCH  15  18
BRANCH  15  19
ATOM     19  C   UNL     1      -0.565  -0.445  -1.884  0.00  0.00    -0.082 C 
ATOM     20  C   UNL     1      -1.504  -0.353  -3.089  0.00  0.00    -0.017 C 
ENDBRANCH  15  19
ENDBRANCH  14  15
ENDBRANCH  13  14
ENDBRANCH   1  13
BRANCH   8  21
ATOM     21  C   UNL     1       1.663   0.466   5.732  0.00  0.00    +0.161 C 
BRANCH  21  22
ATOM     22  C   UNL     1       0.952   1.248   6.838  0.00  0.00    +0.164 C 
BRANCH  22  23
ATOM     23  C   UNL     1       1.974   1.824   7.783  0.00  0.00    -0.014 A 
ATOM     24  C   UNL     1       2.535   1.025   8.763  0.00  0.00    +0.010 A 
ATOM     25  C   UNL     1       3.477   1.547   9.629  0.00  0.00    +0.050 A 
ATOM     26  C   UNL     1       3.854   2.876   9.524  0.00  0.00    +0.162 A 
ATOM     27  C   UNL     1       3.286   3.682   8.542  0.00  0.00    +0.162 A 
ATOM     28  C   UNL     1       2.346   3.151   7.673  0.00  0.00    +0.055 A 
BRANCH  27  29
ATOM     29  O   UNL     1       3.652   4.987   8.434  0.00  0.00    -0.491 OA
ATOM     30  C   UNL     1       3.028   5.753   7.402  0.00  0.00    +0.277 C 
ENDBRANCH  27  29
BRANCH  26  31
ATOM     31  O   UNL     1       4.776   3.393  10.379  0.00  0.00    -0.491 OA
ATOM     32  C   UNL     1       5.317   2.508  11.362  0.00  0.00    +0.277 C 
ENDBRANCH  26  31
ENDBRANCH  22  23
BRANCH  22  33
ATOM     33  O   UNL     1       0.080   0.372   7.555  0.00  0.00    -0.385 OA
ATOM     34  H   UNL     1       0.529  -0.373   7.976  0.00  0.00    +0.210 HD
ENDBRANCH  22  33
ENDBRANCH  21  22
ENDBRANCH   8  21
TORSDOF 11
