REMARK  Name = ZINC49933253
REMARK  4 active torsions:
REMARK  status: ('A' for Active; 'I' for Inactive)
REMARK    1  A    between atoms: N_10  and  C_11
REMARK    2  A    between atoms: C_11  and  C_13
REMARK    3  A    between atoms: C_13  and  N_14
REMARK    4  A    between atoms: C_15  and  C_17
REMARK                            x       y       z     vdW  Elec       q    Type
REMARK                         _______ _______ _______ _____ _____    ______ ____
ROOT
ATOM      1  C   UNL     1       2.671  -6.220   0.156  0.00  0.00    +0.202 C 
ENDROOT
BRANCH   1   2
ATOM      2  N   UNL     1       1.503  -7.098   0.259  0.00  0.00    -0.304 N 
ATOM      3  C   UNL     1       1.669  -8.432   0.361  0.00  0.00    +0.258 C 
ATOM      4  O   UNL     1       2.786  -8.905   0.366  0.00  0.00    -0.272 OA
ATOM      5  H   UNL     1       0.610  -6.720   0.254  0.00  0.00    +0.149 HD
BRANCH   3   6
ATOM      6  C   UNL     1       0.468  -9.335   0.467  0.00  0.00    +0.296 C 
ATOM      7  C   UNL     1      -0.342  -9.274  -0.835  0.00  0.00    +0.283 C 
ATOM      8  O   UNL     1      -1.466 -10.152  -0.706  0.00  0.00    -0.484 OA
ATOM      9  C   UNL     1      -1.218 -11.392  -0.203  0.00  0.00    +0.162 A 
ATOM     10  C   UNL     1      -2.155 -12.399  -0.383  0.00  0.00    +0.049 A 
ATOM     11  C   UNL     1      -1.919 -13.662   0.125  0.00  0.00    +0.004 A 
ATOM     12  C   UNL     1      -0.749 -13.926   0.813  0.00  0.00    +0.004 A 
ATOM     13  C   UNL     1       0.189 -12.928   0.994  0.00  0.00    +0.049 A 
ATOM     14  C   UNL     1      -0.041 -11.658   0.486  0.00  0.00    +0.163 A 
ATOM     15  O   UNL     1       0.896 -10.686   0.666  0.00  0.00    -0.473 OA
ENDBRANCH   3   6
ENDBRANCH   1   2
BRANCH   1  16
ATOM     16  C   UNL     1       2.215  -4.787   0.055  0.00  0.00    +0.256 C 
ATOM     17  O   UNL     1       1.028  -4.524   0.068  0.00  0.00    -0.272 OA
BRANCH  16  27
ATOM     18  C   UNL     1      -0.015   1.372   0.021  0.00  0.00    +0.002 A 
ATOM     19  C   UNL     1       1.161   2.105   0.025  0.00  0.00    +0.001 A 
ATOM     20  C   UNL     1       2.374   1.440   0.013  0.00  0.00    +0.017 A 
ATOM     21  C   UNL     1       2.394   0.066  -0.002  0.00  0.00    +0.039 A 
ATOM     22  C   UNL     1       1.219  -0.701  -0.007  0.00  0.00    +0.055 A 
ATOM     23  C   UNL     1       0.003  -0.003   0.005  0.00  0.00    +0.027 A 
ATOM     24  N   UNL     1       1.443  -2.064  -0.022  0.00  0.00    -0.335 N 
ATOM     25  H   UNL     1       0.694  -2.680  -0.027  0.00  0.00    +0.168 HD
ATOM     26  C   UNL     1       2.714  -2.540  -0.032  0.00  0.00    +0.164 A 
ATOM     27  N   UNL     1       3.110  -3.811  -0.048  0.00  0.00    -0.155 NA
ATOM     28  S   UNL     1       3.675  -1.161  -0.021  0.00  0.00    -0.052 S 
ENDBRANCH  16  27
ENDBRANCH   1  16
TORSDOF 4
