REMARK  Name = ZINC39521225
REMARK  8 active torsions:
REMARK  status: ('A' for Active; 'I' for Inactive)
REMARK    1  A    between atoms: C_1  and  C_2
REMARK    2  A    between atoms: C_2  and  C_3
REMARK    3  A    between atoms: C_2  and  S_4
REMARK    4  A    between atoms: S_4  and  C_7
REMARK    5  A    between atoms: C_17  and  C_27
REMARK    6  A    between atoms: N_19  and  C_20
REMARK    7  A    between atoms: C_25  and  O_26
REMARK    8  A    between atoms: C_32  and  O_33
REMARK                            x       y       z     vdW  Elec       q    Type
REMARK                         _______ _______ _______ _____ _____    ______ ____
ROOT
ATOM      1  C   UNL     1      -1.135  -2.994   0.255  0.00  0.00    +0.133 C 
ATOM      2  C   UNL     1      -0.284  -3.523   1.411  0.00  0.00    +0.026 C 
ATOM      3  C   UNL     1       0.065  -4.991   1.157  0.00  0.00    +0.004 C 
ATOM      4  C   UNL     1      -1.223  -5.812   1.056  0.00  0.00    +0.026 C 
ATOM      5  C   UNL     1      -2.076  -5.281  -0.097  0.00  0.00    +0.037 C 
ATOM      6  C   UNL     1      -2.424  -3.813   0.153  0.00  0.00    +0.052 C 
ATOM      7  C   UNL     1      -3.363  -6.103  -0.206  0.00  0.00    +0.026 C 
ATOM      8  C   UNL     1      -4.143  -5.659  -1.446  0.00  0.00    +0.004 C 
ATOM      9  C   UNL     1      -3.299  -5.910  -2.698  0.00  0.00    +0.027 C 
ATOM     10  C   UNL     1      -2.012  -5.083  -2.616  0.00  0.00    +0.108 C 
ATOM     11  N   UNL     1      -1.327  -5.399  -1.355  0.00  0.00    -0.314 N 
ENDROOT
BRANCH  11  12
ATOM     12  C   UNL     1       0.013  -5.804  -1.352  0.00  0.00    +0.073 A 
ATOM     13  C   UNL     1       0.352  -7.083  -0.936  0.00  0.00    +0.027 A 
ATOM     14  C   UNL     1       1.675  -7.481  -0.935  0.00  0.00    +0.002 A 
ATOM     15  C   UNL     1       2.664  -6.607  -1.348  0.00  0.00    +0.004 A 
ATOM     16  C   UNL     1       2.333  -5.330  -1.764  0.00  0.00    +0.047 A 
ATOM     17  C   UNL     1       1.009  -4.926  -1.773  0.00  0.00    +0.138 A 
BRANCH  17  18
ATOM     18  O   UNL     1       0.682  -3.672  -2.187  0.00  0.00    -0.505 OA
ATOM     19  H   UNL     1       0.769  -2.996  -1.500  0.00  0.00    +0.292 HD
ENDBRANCH  17  18
ENDBRANCH  11  12
BRANCH  10  20
ATOM     20  C   UNL     1      -1.117  -5.425  -3.779  0.00  0.00    +0.014 A 
ATOM     21  C   UNL     1      -0.535  -6.675  -3.860  0.00  0.00    +0.009 A 
ATOM     22  C   UNL     1       0.287  -6.989  -4.927  0.00  0.00    +0.001 A 
ATOM     23  C   UNL     1       0.527  -6.053  -5.916  0.00  0.00    +0.004 A 
ATOM     24  C   UNL     1      -0.053  -4.802  -5.840  0.00  0.00    +0.046 A 
ATOM     25  C   UNL     1      -0.882  -4.486  -4.773  0.00  0.00    +0.122 A 
BRANCH  25  26
ATOM     26  O   UNL     1      -1.458  -3.258  -4.700  0.00  0.00    -0.506 OA
ATOM     27  H   UNL     1      -0.927  -2.602  -4.229  0.00  0.00    +0.292 HD
ENDBRANCH  25  26
ENDBRANCH  10  20
BRANCH   1  28
ATOM     28  S   UNL     1      -1.547  -1.253   0.555  0.00  0.00    -0.026 S 
ATOM     29  O   UNL     1      -0.345  -0.497   0.535  0.00  0.00    -0.174 OA
ATOM     30  O   UNL     1      -2.390  -1.181   1.696  0.00  0.00    -0.174 OA
BRANCH  28  32
ATOM     31  C   UNL     1      -2.993   0.637  -0.793  0.00  0.00    +0.031 C 
ATOM     32  C   UNL     1      -2.525  -0.815  -0.909  0.00  0.00    +0.125 C 
ATOM     33  C   UNL     1      -1.665  -0.975  -2.164  0.00  0.00    +0.031 C 
ENDBRANCH  28  32
ENDBRANCH   1  28
TORSDOF 6
