REMARK  Name = ZINC64540847
REMARK  12 active torsions:
REMARK  status: ('A' for Active; 'I' for Inactive)
REMARK    1  A    between atoms: C_1  and  C_2
REMARK    2  A    between atoms: C_2  and  N_3
REMARK    3  A    between atoms: C_4  and  C_36
REMARK    4  A    between atoms: C_6  and  C_10
REMARK    5  A    between atoms: C_7  and  C_9
REMARK    6  A    between atoms: C_10  and  C_11
REMARK    7  A    between atoms: C_11  and  N_12
REMARK    8  A    between atoms: C_13  and  C_15
REMARK    9  A    between atoms: C_15  and  C_16
REMARK   10  A    between atoms: C_22  and  C_24
REMARK   11  A    between atoms: C_30  and  O_34
REMARK   12  A    between atoms: O_34  and  C_35
REMARK                            x       y       z     vdW  Elec       q    Type
REMARK                         _______ _______ _______ _____ _____    ______ ____
ROOT
ATOM      1  C   UNL     1       4.177  -8.051   5.489  0.00  0.00    +0.001 C 
ATOM      2  C   UNL     1       5.191  -7.182   6.237  0.00  0.00    +0.023 C 
ATOM      3  C   UNL     1       5.254  -7.625   7.702  0.00  0.00    +0.108 C 
ATOM      4  N   UNL     1       5.543  -9.065   7.748  0.00  0.00    -0.300 N 
ATOM      5  C   UNL     1       4.684  -9.983   6.989  0.00  0.00    +0.108 C 
ATOM      6  C   UNL     1       4.626  -9.514   5.532  0.00  0.00    +0.023 C 
ATOM      7  C   UNL     1       6.578  -9.535   8.473  0.00  0.00    +0.242 C 
ATOM      8  O   UNL     1       7.281  -8.766   9.095  0.00  0.00    -0.273 OA
ENDROOT
BRANCH   7   9
ATOM      9  C   UNL     1       6.862 -11.014   8.511  0.00  0.00    +0.190 C 
ATOM     10  C   UNL     1       5.694 -11.753   9.125  0.00  0.00    +0.016 C 
ATOM     11  C   UNL     1       6.176 -12.369  10.227  0.00  0.00    -0.003 A 
ATOM     12  C   UNL     1       5.548 -13.228  11.239  0.00  0.00    +0.013 A 
ATOM     13  C   UNL     1       6.301 -13.707  12.252  0.00  0.00    +0.046 A 
ATOM     14  C   UNL     1       7.671 -13.404  12.362  0.00  0.00    +0.122 A 
ATOM     15  C   UNL     1       8.318 -12.616  11.465  0.00  0.00    +0.071 A 
ATOM     16  C   UNL     1       7.619 -12.063  10.363  0.00  0.00    +0.047 A 
ATOM     17  N   UNL     1       8.014 -11.286   9.378  0.00  0.00    -0.370 N 
ATOM     18  H   UNL     1       8.914 -10.950   9.247  0.00  0.00    +0.161 HD
BRANCH  14  19
ATOM     19  O   UNL     1       8.371 -13.917  13.403  0.00  0.00    -0.495 OA
ATOM     20  C   UNL     1       7.654 -14.740  14.325  0.00  0.00    +0.277 C 
ENDBRANCH  14  19
ENDBRANCH   7   9
BRANCH   1  21
ATOM     21  C   UNL     1       4.085  -7.589   4.033  0.00  0.00    +0.099 C 
BRANCH  21  23
ATOM     22  N   UNL     1       3.355  -5.574   2.798  0.00  0.00    -0.315 N 
ATOM     23  C   UNL     1       3.526  -6.191   3.985  0.00  0.00    +0.213 C 
ATOM     24  O   UNL     1       3.231  -5.620   5.013  0.00  0.00    -0.276 OA
ATOM     25  H   UNL     1       3.592  -6.031   1.976  0.00  0.00    +0.149 HD
BRANCH  22  26
ATOM     26  C   UNL     1       2.812  -4.214   2.751  0.00  0.00    +0.108 C 
BRANCH  26  27
ATOM     27  C   UNL     1       2.720  -3.752   1.295  0.00  0.00    +0.052 C 
BRANCH  27  30
ATOM     28  N   UNL     1       0.713  -0.491   1.192  0.00  0.00    -0.223 NA
ATOM     29  C   UNL     1       0.698  -1.966   1.251  0.00  0.00    +0.100 C 
ATOM     30  C   UNL     1       2.161  -2.354   1.247  0.00  0.00    -0.032 C 
ATOM     31  C   UNL     1       2.852  -1.233   1.193  0.00  0.00    +0.017 C 
ATOM     32  N   UNL     1       2.028  -0.125   1.160  0.00  0.00    -0.282 N 
ATOM     33  C   UNL     1       4.357  -1.168   1.171  0.00  0.00    +0.062 C 
ATOM     34  C   UNL     1       0.018  -2.444   2.535  0.00  0.00    +0.030 C 
ATOM     35  H   UNL     1       2.342   0.791   1.119  0.00  0.00    +0.166 HD
BRANCH  28  37
ATOM     36  C   UNL     1      -0.019   1.526   0.010  0.00  0.00    +0.022 C 
ATOM     37  C   UNL     1       0.002  -0.004   0.002  0.00  0.00    +0.103 C 
ENDBRANCH  28  37
ENDBRANCH  27  30
ENDBRANCH  26  27
ENDBRANCH  22  26
ENDBRANCH  21  23
ENDBRANCH   1  21
TORSDOF 8
