REMARK  Name = ZINC08680588
REMARK  9 active torsions:
REMARK  status: ('A' for Active; 'I' for Inactive)
REMARK    1  A    between atoms: C_1  and  C_2
REMARK    2  A    between atoms: C_7  and  S_8
REMARK    3  A    between atoms: S_8  and  N_11
REMARK    4  A    between atoms: N_11  and  C_12
REMARK    5  A    between atoms: N_11  and  C_18
REMARK    6  A    between atoms: C_12  and  C_13
REMARK    7  A    between atoms: C_18  and  C_19
REMARK    8  A    between atoms: C_23  and  C_31
REMARK    9  A    between atoms: C_24  and  C_30
REMARK                            x       y       z     vdW  Elec       q    Type
REMARK                         _______ _______ _______ _____ _____    ______ ____
ROOT
ATOM      1  N   UNL     1      -1.492   0.477   2.865  0.00  0.00    -0.165 NA
ENDROOT
BRANCH   1   2
ATOM      2  S   UNL     1       0.135   0.176   2.926  0.00  0.00    +0.064 S 
ATOM      3  O   UNL     1       0.725   0.911   1.863  0.00  0.00    -0.153 OA
ATOM      4  O   UNL     1       0.282  -1.232   3.053  0.00  0.00    -0.153 OA
BRANCH   2  11
ATOM      5  C   UNL     1       0.372  -1.312   5.494  0.00  0.00    +0.046 C 
ATOM      6  C   UNL     1       0.812   0.128   5.545  0.00  0.00    -0.022 A 
ATOM      7  C   UNL     1       1.290   0.653   6.746  0.00  0.00    +0.007 A 
ATOM      8  C   UNL     1       1.697   1.940   6.843  0.00  0.00    +0.031 A 
ATOM      9  C   UNL     1       1.644   2.793   5.707  0.00  0.00    +0.102 A 
ATOM     10  C   UNL     1       1.144   2.244   4.452  0.00  0.00    +0.126 A 
ATOM     11  C   UNL     1       0.739   0.882   4.423  0.00  0.00    +0.136 A 
ATOM     12  N   UNL     1       1.139   3.132   3.457  0.00  0.00    -0.189 NA
ATOM     13  S   UNL     1       1.713   4.496   4.089  0.00  0.00    +0.117 S 
ATOM     14  N   UNL     1       1.998   4.075   5.615  0.00  0.00    -0.191 NA
ENDBRANCH   2  11
ENDBRANCH   1   2
BRANCH   1  15
ATOM     15  C   UNL     1      -2.428  -0.407   3.564  0.00  0.00    +0.184 C 
BRANCH  15  16
ATOM     16  C   UNL     1      -2.739   0.166   4.923  0.00  0.00    +0.120 A 
ATOM     17  C   UNL     1      -3.744   1.013   5.209  0.00  0.00    +0.046 A 
ATOM     18  C   UNL     1      -3.664   1.290   6.593  0.00  0.00    +0.041 A 
ATOM     19  C   UNL     1      -2.616   0.595   7.071  0.00  0.00    +0.195 A 
ATOM     20  O   UNL     1      -2.063  -0.088   6.056  0.00  0.00    -0.466 OA
ENDBRANCH  15  16
ENDBRANCH   1  15
BRANCH   1  21
ATOM     21  C   UNL     1      -1.996   1.627   2.110  0.00  0.00    +0.150 C 
BRANCH  21  22
ATOM     22  C   UNL     1      -2.538   1.160   0.784  0.00  0.00    +0.033 A 
ATOM     23  C   UNL     1      -3.862   0.904   0.647  0.00  0.00    +0.020 A 
ATOM     24  C   UNL     1      -4.357   0.452  -0.655  0.00  0.00    -0.001 A 
ATOM     25  C   UNL     1      -5.713   0.173  -0.857  0.00  0.00    +0.013 A 
ATOM     26  C   UNL     1      -6.142  -0.246  -2.083  0.00  0.00    -0.047 A 
ATOM     27  C   UNL     1      -5.245  -0.399  -3.132  0.00  0.00    -0.046 A 
ATOM     28  C   UNL     1      -3.905  -0.131  -2.956  0.00  0.00    +0.030 A 
ATOM     29  C   UNL     1      -3.445   0.299  -1.715  0.00  0.00    +0.049 A 
ATOM     30  N   UNL     1      -2.109   0.576  -1.511  0.00  0.00    -0.322 N 
ATOM     31  C   UNL     1      -1.665   0.996  -0.314  0.00  0.00    +0.254 A 
ATOM     32  O   UNL     1      -0.479   1.236  -0.171  0.00  0.00    -0.268 OA
ATOM     33  C   UNL     1      -5.742  -0.864  -4.476  0.00  0.00    +0.044 C 
ATOM     34  C   UNL     1      -7.603  -0.546  -2.301  0.00  0.00    +0.044 C 
ATOM     35  H   UNL     1      -1.482   0.469  -2.243  0.00  0.00    +0.169 HD
ENDBRANCH  21  22
ENDBRANCH   1  21
TORSDOF 6
