REMARK  Name = ZINC09546238
REMARK  9 active torsions:
REMARK  status: ('A' for Active; 'I' for Inactive)
REMARK    1  A    between atoms: C_1  and  C_2
REMARK    2  A    between atoms: C_5  and  S_23
REMARK    3  A    between atoms: C_7  and  N_8
REMARK    4  A    between atoms: N_8  and  N_9
REMARK    5  A    between atoms: C_11  and  C_16
REMARK    6  A    between atoms: S_23  and  N_26
REMARK    7  A    between atoms: N_26  and  C_27
REMARK    8  A    between atoms: C_30  and  O_33
REMARK    9  A    between atoms: O_33  and  C_34
REMARK                            x       y       z     vdW  Elec       q    Type
REMARK                         _______ _______ _______ _____ _____    ______ ____
ROOT
ATOM      1  C   UNL     1       3.436   0.948   2.368  0.00  0.00    +0.046 C 
ATOM      2  C   UNL     1       2.707  -0.283   1.894  0.00  0.00    -0.028 A 
ATOM      3  C   UNL     1       2.123  -0.301   0.643  0.00  0.00    +0.007 A 
ATOM      4  C   UNL     1       1.454  -1.430   0.208  0.00  0.00    +0.029 A 
ATOM      5  C   UNL     1       1.367  -2.545   1.022  0.00  0.00    +0.110 A 
ATOM      6  C   UNL     1       1.948  -2.534   2.275  0.00  0.00    +0.053 A 
ATOM      7  C   UNL     1       2.627  -1.403   2.714  0.00  0.00    +0.053 A 
ENDROOT
BRANCH   5   8
ATOM      8  S   UNL     1       0.512  -3.980   0.462  0.00  0.00    +0.072 S 
ATOM      9  O   UNL     1      -0.005  -4.623   1.619  0.00  0.00    -0.150 OA
ATOM     10  O   UNL     1      -0.318  -3.564  -0.614  0.00  0.00    -0.150 OA
BRANCH   8  11
ATOM     11  N   UNL     1       1.644  -5.003  -0.182  0.00  0.00    -0.216 N 
ATOM     12  H   UNL     1       1.792  -5.875   0.216  0.00  0.00    +0.174 HD
BRANCH  11  13
ATOM     13  C   UNL     1       2.386  -4.610  -1.302  0.00  0.00    +0.048 A 
ATOM     14  C   UNL     1       1.795  -4.599  -2.558  0.00  0.00    +0.028 A 
ATOM     15  C   UNL     1       2.528  -4.210  -3.662  0.00  0.00    +0.047 A 
ATOM     16  C   UNL     1       3.855  -3.832  -3.516  0.00  0.00    +0.120 A 
ATOM     17  C   UNL     1       4.446  -3.843  -2.261  0.00  0.00    +0.047 A 
ATOM     18  C   UNL     1       3.712  -4.226  -1.155  0.00  0.00    +0.028 A 
BRANCH  16  19
ATOM     19  O   UNL     1       4.576  -3.450  -4.604  0.00  0.00    -0.495 OA
ATOM     20  C   UNL     1       5.936  -3.072  -4.380  0.00  0.00    +0.277 C 
ENDBRANCH  16  19
ENDBRANCH  11  13
ENDBRANCH   8  11
ENDBRANCH   5   8
BRANCH   7  21
ATOM     21  N   UNL     1       3.220  -1.389   3.976  0.00  0.00    -0.236 N 
ATOM     22  H   UNL     1       3.690  -0.598   4.282  0.00  0.00    +0.174 HD
BRANCH  21  23
ATOM     23  N   UNL     1       3.138  -2.519   4.800  0.00  0.00    -0.173 NA
ATOM     24  C   UNL     1       3.696  -2.507   5.987  0.00  0.00    +0.148 C 
ATOM     25  C   UNL     1       3.747  -3.563   7.016  0.00  0.00    +0.107 C 
ATOM     26  N   UNL     1       4.374  -3.283   8.117  0.00  0.00    -0.219 NA
ATOM     27  C   UNL     1       4.957  -2.086   8.323  0.00  0.00    +0.188 C 
ATOM     28  N   UNL     1       5.620  -1.669   9.379  0.00  0.00    -0.276 NA
ATOM     29  S   UNL     1       4.614  -1.208   6.806  0.00  0.00    -0.027 S 
ATOM     30  H   UNL     1       5.992  -0.773   9.396  0.00  0.00    +0.189 HD
BRANCH  25  31
ATOM     31  C   UNL     1       3.111  -4.880   6.803  0.00  0.00    +0.003 A 
ATOM     32  C   UNL     1       2.447  -5.152   5.605  0.00  0.00    +0.013 A 
ATOM     33  C   UNL     1       1.856  -6.383   5.412  0.00  0.00    +0.039 A 
ATOM     34  C   UNL     1       1.919  -7.349   6.405  0.00  0.00    +0.123 A 
ATOM     35  C   UNL     1       2.576  -7.083   7.596  0.00  0.00    +0.039 A 
ATOM     36  C   UNL     1       3.177  -5.859   7.798  0.00  0.00    +0.013 A 
ATOM     37  F   UNL     1       1.338  -8.553   6.210  0.00  0.00    -0.205 F 
ENDBRANCH  25  31
ENDBRANCH  21  23
ENDBRANCH   7  21
TORSDOF 7
