REMARK  Name = ZINC39580102
REMARK  3 active torsions:
REMARK  status: ('A' for Active; 'I' for Inactive)
REMARK    1  A    between atoms: C_1  and  C_2
REMARK    2  A    between atoms: N_6  and  C_11
REMARK    3  A    between atoms: C_7  and  C_10
REMARK                            x       y       z     vdW  Elec       q    Type
REMARK                         _______ _______ _______ _____ _____    ______ ____
ROOT
ATOM      1  C   UNL     1       0.906   0.812  -2.812  0.00  0.00    +0.116 C 
ATOM      2  C   UNL     1      -0.166   1.249  -3.514  0.00  0.00    +0.114 C 
ATOM      3  C   UNL     1      -0.159   1.241  -4.978  0.00  0.00    +0.207 C 
ATOM      4  O   UNL     1      -1.131   1.637  -5.593  0.00  0.00    -0.286 OA
ATOM      5  C   UNL     1       1.032   0.751  -5.710  0.00  0.00    +0.034 A 
ATOM      6  C   UNL     1       1.056   0.737  -7.098  0.00  0.00    +0.012 A 
ATOM      7  C   UNL     1       2.181   0.274  -7.764  0.00  0.00    +0.001 A 
ATOM      8  C   UNL     1       3.279  -0.174  -7.055  0.00  0.00    +0.001 A 
ATOM      9  C   UNL     1       3.270  -0.166  -5.669  0.00  0.00    +0.012 A 
ATOM     10  C   UNL     1       2.149   0.296  -4.988  0.00  0.00    +0.034 A 
ATOM     11  C   UNL     1       2.118   0.320  -3.510  0.00  0.00    +0.210 C 
ATOM     12  O   UNL     1       3.076  -0.065  -2.872  0.00  0.00    -0.285 OA
ATOM     13 CL   UNL     1      -1.567   1.825  -2.668  0.00  0.00    -0.077 Cl
ENDROOT
BRANCH   1  18
ATOM     14  C   UNL     1       1.055   0.758   1.914  0.00  0.00    +0.039 C 
ATOM     15  C   UNL     1      -0.183   1.109   1.086  0.00  0.00    +0.133 C 
ATOM     16  C   UNL     1       0.122   2.318   0.197  0.00  0.00    +0.133 C 
ATOM     17  N   UNL     1       1.200   1.968  -0.740  0.00  0.00    -0.235 NA
ATOM     18  N   UNL     1       0.873   0.831  -1.433  0.00  0.00    -0.234 N 
ATOM     19  C   UNL     1       0.486  -0.367  -0.675  0.00  0.00    +0.218 C 
ATOM     20  O   UNL     1      -0.538  -0.005   0.261  0.00  0.00    -0.354 OA
ATOM     21  C   UNL     1      -0.045  -1.433  -1.636  0.00  0.00    +0.061 C 
ATOM     22  H   UNL     1       2.079   1.857  -0.256  0.00  0.00    +0.145 HD
ENDBRANCH   1  18
TORSDOF 1
