REMARK  Name = ZINC59384966
REMARK  6 active torsions:
REMARK  status: ('A' for Active; 'I' for Inactive)
REMARK    1  A    between atoms: C_1  and  C_2
REMARK    2  A    between atoms: C_3  and  C_18
REMARK    3  A    between atoms: C_4  and  C_10
REMARK    4  A    between atoms: N_20  and  N_21
REMARK    5  A    between atoms: C_22  and  C_23
REMARK    6  A    between atoms: C_26  and  N_29
REMARK                            x       y       z     vdW  Elec       q    Type
REMARK                         _______ _______ _______ _____ _____    ______ ____
ROOT
ATOM      1  C   UNL     1       0.633   1.225  -0.131  0.00  0.00    +0.061 C 
ATOM      2  C   UNL     1       0.379  -0.259  -0.064  0.00  0.00    +0.017 C 
ATOM      3  C   UNL     1      -0.885  -0.721  -0.165  0.00  0.00    +0.057 C 
ATOM      4  C   UNL     1      -1.097  -2.220  -0.092  0.00  0.00    +0.141 C 
ATOM      5  N   UNL     1       0.103  -3.055   0.083  0.00  0.00    -0.315 N 
ATOM      6  C   UNL     1       1.302  -2.446   0.168  0.00  0.00    +0.135 C 
ATOM      7  S   UNL     1       2.706  -3.404   0.371  0.00  0.00    -0.019 S 
ATOM      8  N   UNL     1       1.432  -1.115   0.092  0.00  0.00    -0.300 N 
ATOM      9  H   UNL     1       0.033  -4.021   0.137  0.00  0.00    +0.149 HD
ATOM     10  H   UNL     1       2.323  -0.737   0.156  0.00  0.00    +0.154 HD
ENDROOT
BRANCH   4  11
ATOM     11  C   UNL     1      -1.782  -2.654  -1.362  0.00  0.00    -0.004 A 
ATOM     12  C   UNL     1      -1.032  -3.071  -2.445  0.00  0.00    +0.008 A 
ATOM     13  C   UNL     1      -1.660  -3.470  -3.610  0.00  0.00    +0.020 A 
ATOM     14  C   UNL     1      -3.041  -3.452  -3.692  0.00  0.00    +0.042 A 
ATOM     15  C   UNL     1      -3.793  -3.035  -2.609  0.00  0.00    +0.040 A 
ATOM     16  C   UNL     1      -3.163  -2.641  -1.441  0.00  0.00    +0.048 A 
ATOM     17 CL   UNL     1      -4.106  -2.124  -0.079  0.00  0.00    -0.083 Cl
ATOM     18 CL   UNL     1      -3.830  -3.952  -5.156  0.00  0.00    -0.083 Cl
ENDBRANCH   4  11
BRANCH   3  19
ATOM     19  C   UNL     1      -1.978   0.165  -0.332  0.00  0.00    +0.263 C 
ATOM     20  O   UNL     1      -2.678   0.454   0.622  0.00  0.00    -0.269 OA
ATOM     21  N   UNL     1      -2.242   0.687  -1.546  0.00  0.00    -0.203 N 
ATOM     22  H   UNL     1      -1.727   0.405  -2.317  0.00  0.00    +0.178 HD
BRANCH  21  23
ATOM     23  N   UNL     1      -3.260   1.638  -1.692  0.00  0.00    -0.187 NA
ATOM     24  C   UNL     1      -3.450   2.214  -2.840  0.00  0.00    +0.138 C 
BRANCH  24  25
ATOM     25  C   UNL     1      -4.447   3.293  -2.967  0.00  0.00    -0.005 A 
ATOM     26  C   UNL     1      -5.184   3.703  -1.854  0.00  0.00    +0.012 A 
ATOM     27  C   UNL     1      -6.114   4.713  -1.980  0.00  0.00    +0.033 A 
ATOM     28  C   UNL     1      -6.319   5.321  -3.207  0.00  0.00    +0.126 A 
ATOM     29  C   UNL     1      -5.593   4.920  -4.314  0.00  0.00    +0.033 A 
ATOM     30  C   UNL     1      -4.654   3.914  -4.201  0.00  0.00    +0.012 A 
BRANCH  28  31
ATOM     31  N   UNL     1      -7.319   6.404  -3.335  0.00  0.00    +0.056 N 
ATOM     32  O   UNL     1      -7.955   6.756  -2.369  0.00  0.00    -0.126 OA
ATOM     33  O   UNL     1      -7.500   6.936  -4.405  0.00  0.00    -0.126 OA
ENDBRANCH  28  31
ENDBRANCH  24  25
ENDBRANCH  21  23
ENDBRANCH   3  19
TORSDOF 5
