REMARK  Name = ZINC35363833
REMARK  8 active torsions:
REMARK  status: ('A' for Active; 'I' for Inactive)
REMARK    1  A    between atoms: C_1  and  C_2
REMARK    2  A    between atoms: C_16  and  C_19
REMARK    3  A    between atoms: C_19  and  C_21
REMARK    4  A    between atoms: C_19  and  O_22
REMARK    5  A    between atoms: N_25  and  C_28
REMARK    6  A    between atoms: C_28  and  C_29
REMARK    7  A    between atoms: C_34  and  O_35
REMARK    8  A    between atoms: O_35  and  C_36
REMARK                            x       y       z     vdW  Elec       q    Type
REMARK                         _______ _______ _______ _____ _____    ______ ____
ROOT
ATOM      1  C   UNL     1      -0.109   1.439   0.479  0.00  0.00    +0.045 C 
ATOM      2  C   UNL     1      -0.066  -0.061   0.341  0.00  0.00    -0.029 A 
ATOM      3  C   UNL     1      -0.028  -0.636  -0.912  0.00  0.00    +0.005 A 
ATOM      4  C   UNL     1       0.012  -2.011  -1.049  0.00  0.00    +0.001 A 
ATOM      5  C   UNL     1       0.013  -2.816   0.077  0.00  0.00    +0.008 A 
ATOM      6  C   UNL     1      -0.026  -2.247   1.330  0.00  0.00    +0.004 A 
ATOM      7  C   UNL     1      -0.060  -0.863   1.480  0.00  0.00    +0.042 A 
ATOM      8  N   UNL     1      -0.087  -0.525   2.835  0.00  0.00    -0.283 N 
ATOM      9  C   UNL     1      -0.070  -1.612   3.630  0.00  0.00    +0.243 C 
ATOM     10  O   UNL     1      -0.085  -1.622   4.843  0.00  0.00    -0.273 OA
ATOM     11  C   UNL     1      -0.039  -2.811   2.722  0.00  0.00    +0.136 C 
ATOM     12  C   UNL     1       1.198  -3.674   2.993  0.00  0.00    +0.123 C 
ATOM     13  C   UNL     1       0.712  -5.135   2.782  0.00  0.00    +0.109 C 
ATOM     14  C   UNL     1      -0.777  -5.004   2.397  0.00  0.00    +0.096 C 
ATOM     15  N   UNL     1      -1.202  -3.692   2.937  0.00  0.00    -0.293 NA
ATOM     16  C   UNL     1       1.510  -5.599   1.585  0.00  0.00    +0.228 C 
ATOM     17  O   UNL     1       1.439  -6.698   1.079  0.00  0.00    -0.275 OA
ATOM     18  N   UNL     1       2.306  -4.606   1.170  0.00  0.00    -0.237 N 
ATOM     19  C   UNL     1       2.217  -3.469   1.895  0.00  0.00    +0.229 C 
ATOM     20  O   UNL     1       2.844  -2.449   1.704  0.00  0.00    -0.275 OA
ATOM     21  H   UNL     1      -0.115   0.387   3.165  0.00  0.00    +0.155 HD
ATOM     22  H   UNL     1      -1.421  -3.770   3.918  0.00  0.00    +0.124 HD
ENDROOT
BRANCH  14  23
ATOM     23  C   UNL     1      -1.590  -6.143   3.015  0.00  0.00    +0.129 C 
ATOM     24  C   UNL     1      -3.061  -5.993   2.621  0.00  0.00    +0.039 C 
BRANCH  23  25
ATOM     25  O   UNL     1      -1.094  -7.396   2.538  0.00  0.00    -0.390 OA
ATOM     26  H   UNL     1      -1.144  -7.498   1.578  0.00  0.00    +0.210 HD
ENDBRANCH  23  25
ENDBRANCH  14  23
BRANCH  18  27
ATOM     27  C   UNL     1       3.208  -4.741   0.023  0.00  0.00    +0.155 C 
BRANCH  27  28
ATOM     28  C   UNL     1       4.586  -5.110   0.509  0.00  0.00    +0.012 A 
ATOM     29  C   UNL     1       5.560  -4.138   0.629  0.00  0.00    +0.009 A 
ATOM     30  C   UNL     1       6.825  -4.476   1.074  0.00  0.00    +0.001 A 
ATOM     31  C   UNL     1       7.118  -5.787   1.401  0.00  0.00    +0.004 A 
ATOM     32  C   UNL     1       6.147  -6.762   1.284  0.00  0.00    +0.046 A 
ATOM     33  C   UNL     1       4.876  -6.425   0.843  0.00  0.00    +0.125 A 
BRANCH  33  34
ATOM     34  O   UNL     1       3.917  -7.382   0.732  0.00  0.00    -0.495 OA
ATOM     35  C   UNL     1       4.252  -8.692   1.196  0.00  0.00    +0.277 C 
ENDBRANCH  33  34
ENDBRANCH  27  28
ENDBRANCH  18  27
TORSDOF 5
