REMARK  Name = ZINC35177731
REMARK  12 active torsions:
REMARK  status: ('A' for Active; 'I' for Inactive)
REMARK    1  A    between atoms: C_1  and  C_2
REMARK    2  A    between atoms: C_2  and  C_4
REMARK    3  A    between atoms: C_2  and  N_17
REMARK    4  A    between atoms: N_14  and  C_15
REMARK    5  A    between atoms: N_17  and  C_18
REMARK    6  A    between atoms: C_18  and  C_19
REMARK    7  A    between atoms: C_19  and  C_20
REMARK    8  A    between atoms: C_20  and  C_21
REMARK    9  A    between atoms: C_21  and  C_22
REMARK   10  A    between atoms: C_22  and  C_23
REMARK   11  A    between atoms: C_23  and  N_24
REMARK   12  A    between atoms: C_25  and  C_27
REMARK                            x       y       z     vdW  Elec       q    Type
REMARK                         _______ _______ _______ _____ _____    ______ ____
ROOT
ATOM      1  N   UNL     1       0.777  -1.334   0.238  0.00  0.00    -0.288 N 
ATOM      2  C   UNL     1       2.111  -1.242   0.405  0.00  0.00    +0.247 C 
ATOM      3  O   UNL     1       2.707  -2.102   1.024  0.00  0.00    -0.270 OA
ENDROOT
BRANCH   2   4
ATOM      4  C   UNL     1       2.851  -0.096  -0.166  0.00  0.00    +0.038 A 
ATOM      5  C   UNL     1       2.165   0.912  -0.846  0.00  0.00    +0.013 A 
ATOM      6  C   UNL     1       2.860   1.979  -1.376  0.00  0.00    +0.002 A 
ATOM      7  C   UNL     1       4.235   2.051  -1.237  0.00  0.00    +0.015 A 
ATOM      8  C   UNL     1       4.921   1.055  -0.565  0.00  0.00    +0.019 A 
ATOM      9  C   UNL     1       4.236  -0.015  -0.024  0.00  0.00    +0.028 A 
ATOM     10 BR   UNL     1       6.800   1.163  -0.381  0.00  0.00    -0.050 Br
ENDBRANCH   2   4
BRANCH   1  12
ATOM     11  C   UNL     1      -0.254   0.823  -0.278  0.00  0.00    +0.036 C 
ATOM     12  C   UNL     1       0.116  -0.561  -0.816  0.00  0.00    +0.139 C 
BRANCH  12  13
ATOM     13  C   UNL     1       1.049  -0.410  -1.990  0.00  0.00    +0.133 A 
ATOM     14  N   UNL     1       2.222  -0.963  -1.919  0.00  0.00    -0.232 NA
ATOM     15  C   UNL     1       3.114  -0.870  -2.936  0.00  0.00    +0.080 A 
ATOM     16  C   UNL     1       4.375  -1.464  -2.862  0.00  0.00    +0.048 A 
ATOM     17  C   UNL     1       5.247  -1.342  -3.923  0.00  0.00    +0.043 A 
ATOM     18  C   UNL     1       4.885  -0.634  -5.064  0.00  0.00    +0.021 A 
ATOM     19  C   UNL     1       3.656  -0.044  -5.158  0.00  0.00    +0.017 A 
ATOM     20  C   UNL     1       2.756  -0.153  -4.100  0.00  0.00    +0.065 A 
ATOM     21  C   UNL     1       1.420   0.460  -4.148  0.00  0.00    +0.262 A 
ATOM     22  O   UNL     1       1.049   1.090  -5.120  0.00  0.00    -0.267 OA
ATOM     23  N   UNL     1       0.619   0.292  -3.070  0.00  0.00    -0.298 N 
ATOM     24  C   UNL     1      -0.724   0.878  -3.067  0.00  0.00    +0.154 C 
ATOM     25 CL   UNL     1       6.816  -2.079  -3.833  0.00  0.00    -0.083 Cl
ENDBRANCH  12  13
ENDBRANCH   1  12
BRANCH   1  26
ATOM     26  C   UNL     1      -0.012  -2.206   1.111  0.00  0.00    +0.109 C 
BRANCH  26  27
ATOM     27  C   UNL     1      -0.096  -3.604   0.493  0.00  0.00    +0.019 C 
BRANCH  27  28
ATOM     28  C   UNL     1      -0.920  -4.515   1.405  0.00  0.00    +0.001 C 
BRANCH  28  29
ATOM     29  C   UNL     1      -1.005  -5.913   0.787  0.00  0.00    -0.002 C 
BRANCH  29  30
ATOM     30  C   UNL     1      -1.829  -6.824   1.699  0.00  0.00    -0.020 C 
BRANCH  30  31
ATOM     31  C   UNL     1      -1.913  -8.221   1.082  0.00  0.00    -0.086 C 
BRANCH  31  32
ATOM     32  N   UNL     1      -2.704  -9.097   1.957  0.00  0.00    +0.378 N 
ATOM     33  H   UNL     1      -2.760 -10.018   1.550  0.00  0.00    -0.090 HD
ATOM     34  H   UNL     1      -2.263  -9.155   2.862  0.00  0.00    -0.090 HD
ATOM     35  H   UNL     1      -3.634  -8.718   2.060  0.00  0.00    -0.090 HD
ENDBRANCH  31  32
ENDBRANCH  30  31
ENDBRANCH  29  30
ENDBRANCH  28  29
ENDBRANCH  27  28
ENDBRANCH  26  27
ENDBRANCH   1  26
TORSDOF 10
