REMARK  Name = ZINC21924464
REMARK  3 active torsions:
REMARK  status: ('A' for Active; 'I' for Inactive)
REMARK    1  A    between atoms: C_1  and  N_2
REMARK    2  A    between atoms: N_2  and  S_3
REMARK    3  A    between atoms: S_3  and  C_6
REMARK                            x       y       z     vdW  Elec       q    Type
REMARK                         _______ _______ _______ _____ _____    ______ ____
ROOT
ATOM      1  C   UNL     1      -4.166   1.772  -4.782  0.00  0.00    +0.107 A 
ATOM      2  C   UNL     1      -2.784   1.823  -4.747  0.00  0.00    +0.030 A 
ATOM      3  C   UNL     1      -2.110   1.609  -3.560  0.00  0.00    +0.027 A 
ATOM      4  C   UNL     1      -2.809   1.364  -2.397  0.00  0.00    +0.052 A 
ATOM      5  C   UNL     1      -4.213   1.324  -2.428  0.00  0.00    +0.057 A 
ATOM      6  C   UNL     1      -4.880   1.519  -3.626  0.00  0.00    +0.053 A 
ATOM      7  N   UNL     1      -4.931   1.079  -1.249  0.00  0.00    -0.282 N 
ATOM      8  C   UNL     1      -4.289   1.160  -0.063  0.00  0.00    +0.238 C 
ATOM      9  O   UNL     1      -4.862   0.868   0.966  0.00  0.00    -0.273 OA
ATOM     10  C   UNL     1      -2.855   1.617  -0.033  0.00  0.00    +0.160 C 
ATOM     11  N   UNL     1      -2.137   1.107  -1.203  0.00  0.00    -0.317 N 
ATOM     12  C   UNL     1      -0.753   1.593  -1.233  0.00  0.00    +0.106 C 
ATOM     13  C   UNL     1      -0.013   1.086   0.008  0.00  0.00    +0.019 C 
ATOM     14  C   UNL     1      -0.729   1.579   1.268  0.00  0.00    +0.004 C 
ATOM     15  C   UNL     1      -2.185   1.103   1.242  0.00  0.00    +0.032 C 
ATOM     16  H   UNL     1      -6.000   0.825  -1.299  0.00  0.00    +0.155 HD
ENDROOT
BRANCH   1  17
ATOM     17  S   UNL     1      -5.017   2.030  -6.303  0.00  0.00    +0.058 S 
ATOM     18  O   UNL     1      -4.102   1.707  -7.341  0.00  0.00    -0.153 OA
ATOM     19  O   UNL     1      -6.280   1.391  -6.175  0.00  0.00    -0.153 OA
BRANCH  17  21
ATOM     20  C   UNL     1      -4.205   4.598  -6.547  0.00  0.00    +0.127 C 
ATOM     21  N   UNL     1      -5.319   3.654  -6.426  0.00  0.00    -0.193 NA
ATOM     22  H   UNL     1      -6.339   4.026  -6.252  0.00  0.00    +0.148 HD
ENDBRANCH  17  21
ENDBRANCH   1  17
TORSDOF 2
