REMARK  Name = ZINC64147677
REMARK  12 active torsions:
REMARK  status: ('A' for Active; 'I' for Inactive)
REMARK    1  A    between atoms: C_1  and  C_2
REMARK    2  A    between atoms: C_6  and  C_24
REMARK    3  A    between atoms: C_7  and  C_8
REMARK    4  A    between atoms: C_8  and  C_9
REMARK    5  A    between atoms: C_9  and  C_10
REMARK    6  A    between atoms: N_12  and  C_13
REMARK    7  A    between atoms: C_13  and  C_14
REMARK    8  A    between atoms: C_16  and  C_23
REMARK    9  A    between atoms: C_18  and  C_22
REMARK   10  A    between atoms: N_25  and  C_28
REMARK   11  A    between atoms: C_28  and  C_29
REMARK   12  A    between atoms: C_28  and  C_30
REMARK                            x       y       z     vdW  Elec       q    Type
REMARK                         _______ _______ _______ _____ _____    ______ ____
ROOT
ATOM      1  C   UNL     1      -0.018   1.503   0.010  0.00  0.00    +0.044 C 
ATOM      2  C   UNL     1       0.002  -0.004   0.002  0.00  0.00    -0.038 A 
ATOM      3  C   UNL     1       0.006  -0.704  -1.184  0.00  0.00    +0.010 A 
ATOM      4  C   UNL     1       0.026  -2.095  -1.175  0.00  0.00    +0.118 A 
ATOM      5  N   UNL     1       0.040  -2.743  -0.014  0.00  0.00    -0.346 N 
ATOM      6  C   UNL     1       0.036  -2.103   1.138  0.00  0.00    +0.018 A 
ATOM      7  C   UNL     1       0.023  -0.724   1.191  0.00  0.00    -0.025 A 
ATOM      8  C   UNL     1       0.052  -2.893   2.422  0.00  0.00    +0.063 C 
ATOM      9  N   UNL     1       0.026  -2.568  -2.480  0.00  0.00    -0.249 N 
ATOM     10  N   UNL     1       0.007  -1.552  -3.387  0.00  0.00    -0.234 NA
ATOM     11  C   UNL     1      -0.007  -0.283  -2.633  0.00  0.00    +0.141 C 
ATOM     12  H   UNL     1      -0.797  -1.621  -3.992  0.00  0.00    +0.145 HD
ATOM     13  H   UNL     1       0.053  -3.712  -0.015  0.00  0.00    +0.167 HD
ENDROOT
BRANCH   9  14
ATOM     14  C   UNL     1       0.044  -3.988  -2.839  0.00  0.00    +0.086 C 
ATOM     15  C   UNL     1      -1.204  -4.324  -3.657  0.00  0.00    +0.029 C 
ATOM     16  C   UNL     1       1.294  -4.288  -3.669  0.00  0.00    +0.029 C 
ENDBRANCH   9  14
BRANCH   7  17
ATOM     17  C   UNL     1       0.025  -0.009   2.518  0.00  0.00    +0.046 C 
BRANCH  17  18
ATOM     18  C   UNL     1      -1.416   0.213   2.981  0.00  0.00    +0.100 C 
BRANCH  18  19
ATOM     19  C   UNL     1      -1.414   0.927   4.307  0.00  0.00    +0.213 C 
ATOM     20  O   UNL     1      -0.363   1.230   4.832  0.00  0.00    -0.276 OA
ATOM     21  N   UNL     1      -2.580   1.231   4.911  0.00  0.00    -0.314 N 
ATOM     22  H   UNL     1      -3.421   0.989   4.492  0.00  0.00    +0.149 HD
BRANCH  21  23
ATOM     23  C   UNL     1      -2.578   1.925   6.201  0.00  0.00    +0.121 C 
BRANCH  23  24
ATOM     24  C   UNL     1      -4.019   2.147   6.663  0.00  0.00    +0.120 C 
ATOM     25  C   UNL     1      -3.987   3.046   7.884  0.00  0.00    -0.058 C 
ATOM     26  C   UNL     1      -4.534   2.572   9.014  0.00  0.00    +0.020 C 
ATOM     27  C   UNL     1      -5.113   1.289   9.058  0.00  0.00    +0.031 C 
ATOM     28  N   UNL     1      -5.168   0.475   8.040  0.00  0.00    -0.185 NA
ATOM     29  C   UNL     1      -4.670   0.790   6.838  0.00  0.00    +0.245 C 
ATOM     30  O   UNL     1      -4.737   0.007   5.911  0.00  0.00    -0.273 OA
ATOM     31  C   UNL     1      -5.706   0.827  10.364  0.00  0.00    +0.063 C 
ATOM     32  C   UNL     1      -3.366   4.418   7.831  0.00  0.00    +0.040 C 
ENDBRANCH  23  24
ENDBRANCH  21  23
ENDBRANCH  18  19
ENDBRANCH  17  18
ENDBRANCH   7  17
TORSDOF 6
