REMARK  Name = ZINC39636492
REMARK  6 active torsions:
REMARK  status: ('A' for Active; 'I' for Inactive)
REMARK    1  A    between atoms: C_1  and  C_2
REMARK    2  A    between atoms: C_5  and  C_39
REMARK    3  A    between atoms: C_6  and  C_8
REMARK    4  A    between atoms: C_8  and  N_9
REMARK    5  A    between atoms: C_10  and  C_12
REMARK    6  A    between atoms: C_23  and  C_25
REMARK                            x       y       z     vdW  Elec       q    Type
REMARK                         _______ _______ _______ _____ _____    ______ ____
ROOT
ATOM      1  C   UNL     1       3.347  -4.457   4.126  0.00  0.00    +0.100 C 
ATOM      2  C   UNL     1       4.232  -3.197   4.261  0.00  0.00    +0.121 C 
ATOM      3  N   UNL     1       4.194  -2.866   5.704  0.00  0.00    -0.296 N 
ATOM      4  C   UNL     1       4.246  -4.181   6.386  0.00  0.00    +0.115 C 
ATOM      5  C   UNL     1       3.362  -5.101   5.522  0.00  0.00    -0.004 C 
ATOM      6  C   UNL     1       1.948  -5.159   6.092  0.00  0.00    -0.010 C 
ATOM      7  C   UNL     1       1.980  -5.855   7.456  0.00  0.00    -0.082 C 
ATOM      8  N   UNL     1       2.524  -7.210   7.303  0.00  0.00    +0.379 N 
ATOM      9  C   UNL     1       3.916  -7.142   6.842  0.00  0.00    -0.082 C 
ATOM     10  C   UNL     1       3.965  -6.501   5.452  0.00  0.00    -0.010 C 
ATOM     11  C   UNL     1       4.127  -1.644   6.270  0.00  0.00    +0.247 C 
ATOM     12  O   UNL     1       4.191  -1.529   7.478  0.00  0.00    -0.270 OA
ATOM     13  H   UNL     1       2.487  -7.687   8.191  0.00  0.00    -0.086 HD
ATOM     14  H   UNL     1       1.972  -7.718   6.628  0.00  0.00    -0.086 HD
ENDROOT
BRANCH  11  15
ATOM     15  C   UNL     1       3.974  -0.445   5.421  0.00  0.00    +0.045 A 
ATOM     16  C   UNL     1       4.828  -0.242   4.330  0.00  0.00    +0.014 A 
ATOM     17  C   UNL     1       4.688   0.875   3.537  0.00  0.00    +0.001 A 
ATOM     18  C   UNL     1       3.701   1.810   3.808  0.00  0.00    +0.012 A 
ATOM     19  C   UNL     1       2.843   1.628   4.886  0.00  0.00    +0.031 A 
ATOM     20  C   UNL     1       2.970   0.491   5.700  0.00  0.00    +0.006 A 
ATOM     21  C   UNL     1       1.933   0.546   6.760  0.00  0.00    -0.006 A 
ATOM     22  C   UNL     1       1.632  -0.315   7.808  0.00  0.00    +0.009 A 
ATOM     23  C   UNL     1       0.588  -0.020   8.670  0.00  0.00    +0.001 A 
ATOM     24  C   UNL     1      -0.159   1.129   8.497  0.00  0.00    +0.001 A 
ATOM     25  C   UNL     1       0.128   1.998   7.456  0.00  0.00    +0.012 A 
ATOM     26  C   UNL     1       1.172   1.714   6.585  0.00  0.00    +0.030 A 
ATOM     27  C   UNL     1       1.718   2.439   5.412  0.00  0.00    +0.194 C 
ATOM     28  O   UNL     1       1.313   3.490   4.961  0.00  0.00    -0.287 OA
ENDBRANCH  11  15
BRANCH   1  30
ATOM     29  N   UNL     1       1.188  -4.917   3.010  0.00  0.00    -0.311 N 
ATOM     30  C   UNL     1       1.942  -4.072   3.740  0.00  0.00    +0.218 C 
ATOM     31  O   UNL     1       1.490  -3.001   4.087  0.00  0.00    -0.275 OA
ATOM     32  H   UNL     1       1.550  -5.773   2.732  0.00  0.00    +0.149 HD
BRANCH  29  33
ATOM     33  C   UNL     1      -0.178  -4.542   2.635  0.00  0.00    +0.139 C 
BRANCH  33  39
ATOM     34  C   UNL     1      -1.483  -6.473  -1.794  0.00  0.00    +0.044 C 
ATOM     35  C   UNL     1      -1.425  -6.576  -0.291  0.00  0.00    -0.050 A 
ATOM     36  C   UNL     1      -1.941  -7.689   0.346  0.00  0.00    +0.003 A 
ATOM     37  C   UNL     1      -1.887  -7.783   1.724  0.00  0.00    +0.004 A 
ATOM     38  C   UNL     1      -1.316  -6.765   2.465  0.00  0.00    -0.046 A 
ATOM     39  C   UNL     1      -0.799  -5.653   1.827  0.00  0.00    -0.027 A 
ATOM     40  C   UNL     1      -0.849  -5.560   0.449  0.00  0.00    +0.008 A 
ATOM     41  C   UNL     1      -1.258  -6.867   3.967  0.00  0.00    +0.044 C 
ENDBRANCH  33  39
ENDBRANCH  29  33
ENDBRANCH   1  30
TORSDOF 4
