REMARK  Name = ZINC26115361
REMARK  4 active torsions:
REMARK  status: ('A' for Active; 'I' for Inactive)
REMARK    1  A    between atoms: C_3  and  S_6
REMARK    2  A    between atoms: S_6  and  N_9
REMARK    3  A    between atoms: N_9  and  C_10
REMARK    4  A    between atoms: C_16  and  C_18
REMARK                            x       y       z     vdW  Elec       q    Type
REMARK                         _______ _______ _______ _____ _____    ______ ____
ROOT
ATOM      1  C   UNL     1      -5.165  -3.580  -0.737  0.00  0.00    +0.080 C 
ATOM      2  C   UNL     1      -4.279  -4.822  -0.861  0.00  0.00    +0.039 C 
ATOM      3  C   UNL     1      -3.192  -4.779   0.218  0.00  0.00    +0.109 C 
ATOM      4  N   UNL     1      -2.466  -3.506   0.107  0.00  0.00    -0.296 N 
ATOM      5  C   UNL     1      -3.231  -2.252   0.129  0.00  0.00    +0.109 C 
ATOM      6  C   UNL     1      -4.318  -2.324  -0.954  0.00  0.00    +0.039 C 
ATOM      7  C   UNL     1      -1.123  -3.490  -0.007  0.00  0.00    +0.263 C 
ATOM      8  O   UNL     1      -0.511  -4.532  -0.144  0.00  0.00    -0.268 OA
ENDROOT
BRANCH   7   9
ATOM      9  C   UNL     1      -0.398  -2.211   0.033  0.00  0.00    +0.103 A 
ATOM     10  C   UNL     1       0.824  -1.981  -0.515  0.00  0.00    +0.041 A 
ATOM     11  C   UNL     1       1.166  -0.632  -0.257  0.00  0.00    +0.002 A 
ATOM     12  C   UNL     1       2.281   0.156  -0.572  0.00  0.00    +0.030 A 
ATOM     13  C   UNL     1       2.324   1.461  -0.175  0.00  0.00    +0.042 A 
ATOM     14  C   UNL     1       1.270   2.019   0.539  0.00  0.00    +0.022 A 
ATOM     15  C   UNL     1       0.164   1.265   0.861  0.00  0.00    +0.027 A 
ATOM     16  C   UNL     1       0.097  -0.069   0.468  0.00  0.00    +0.047 A 
ATOM     17  N   UNL     1      -0.849  -1.053   0.635  0.00  0.00    -0.351 N 
ATOM     18  H   UNL     1      -1.828  -1.039   1.137  0.00  0.00    +0.166 HD
ATOM     19 CL   UNL     1       3.707   2.434  -0.568  0.00  0.00    -0.084 Cl
ENDBRANCH   7   9
BRANCH   1  20
ATOM     20  N   UNL     1      -6.226  -3.634  -1.746  0.00  0.00    -0.186 NA
ATOM     21  H   UNL     1      -5.986  -3.916  -2.781  0.00  0.00    +0.148 HD
BRANCH  20  22
ATOM     22  S   UNL     1      -7.731  -3.037  -1.398  0.00  0.00    +0.065 S 
ATOM     23  O   UNL     1      -8.516  -3.208  -2.569  0.00  0.00    -0.153 OA
ATOM     24  O   UNL     1      -8.105  -3.587  -0.142  0.00  0.00    -0.153 OA
BRANCH  22  27
ATOM     25  C   UNL     1      -7.478   1.007  -1.642  0.00  0.00    +0.010 A 
ATOM     26  C   UNL     1      -7.649  -0.298  -2.064  0.00  0.00    +0.036 A 
ATOM     27  C   UNL     1      -7.559  -1.300  -1.155  0.00  0.00    +0.142 A 
ATOM     28  S   UNL     1      -7.228  -0.403   0.352  0.00  0.00    -0.077 S 
ATOM     29  C   UNL     1      -7.224   1.246  -0.332  0.00  0.00    +0.047 A 
ENDBRANCH  22  27
ENDBRANCH  20  22
ENDBRANCH   1  20
TORSDOF 4
