REMARK  Name = ZINC53125065
REMARK  8 active torsions:
REMARK  status: ('A' for Active; 'I' for Inactive)
REMARK    1  A    between atoms: C_1  and  C_2
REMARK    2  A    between atoms: C_2  and  C_4
REMARK    3  A    between atoms: C_2  and  N_11
REMARK    4  A    between atoms: N_11  and  C_12
REMARK    5  A    between atoms: N_11  and  C_13
REMARK    6  A    between atoms: C_13  and  C_14
REMARK    7  A    between atoms: C_23  and  S_25
REMARK    8  A    between atoms: S_25  and  N_28
REMARK                            x       y       z     vdW  Elec       q    Type
REMARK                         _______ _______ _______ _____ _____    ______ ____
ROOT
ATOM      1  C   UNL     1       0.820  -0.412   3.618  0.00  0.00    +0.203 C 
ATOM      2  O   UNL     1       1.858  -1.027   3.492  0.00  0.00    -0.277 OA
ATOM      3  N   UNL     1       0.379  -0.081   4.848  0.00  0.00    -0.272 N 
ATOM      4  C   UNL     1      -0.859   0.653   5.127  0.00  0.00    +0.118 C 
ATOM      5  C   UNL     1      -0.916   0.780   6.658  0.00  0.00    +0.056 C 
ATOM      6  C   UNL     1       0.336   0.084   7.145  0.00  0.00    -0.023 A 
ATOM      7  C   UNL     1       1.031  -0.393   6.045  0.00  0.00    +0.040 A 
ATOM      8  C   UNL     1       2.228  -1.082   6.247  0.00  0.00    +0.026 A 
ATOM      9  C   UNL     1       2.706  -1.286   7.524  0.00  0.00    +0.030 A 
ATOM     10  C   UNL     1       2.002  -0.810   8.615  0.00  0.00    +0.105 A 
ATOM     11  C   UNL     1       0.820  -0.119   8.422  0.00  0.00    +0.034 A 
ENDROOT
BRANCH  10  12
ATOM     12  S   UNL     1       2.616  -1.074  10.245  0.00  0.00    +0.056 S 
ATOM     13  O   UNL     1       1.496  -1.006  11.117  0.00  0.00    -0.153 OA
ATOM     14  O   UNL     1       3.463  -2.213  10.181  0.00  0.00    -0.153 OA
BRANCH  12  15
ATOM     15  N   UNL     1       3.585   0.216  10.618  0.00  0.00    -0.204 NA
ATOM     16  H   UNL     1       3.715   0.928   9.973  0.00  0.00    +0.144 HD
ATOM     17  H   UNL     1       4.023   0.259  11.483  0.00  0.00    +0.144 HD
ENDBRANCH  12  15
ENDBRANCH  10  12
BRANCH   1  18
ATOM     18  C   UNL     1       0.025  -0.017   2.401  0.00  0.00    +0.020 C 
BRANCH  18  19
ATOM     19  N   UNL     1       0.713  -0.491   1.192  0.00  0.00    +0.388 N 
ATOM     20  C   UNL     1       0.733  -1.960   1.184  0.00  0.00    -0.095 C 
ATOM     21  H   UNL     1       1.659  -0.141   1.185  0.00  0.00    -0.081 HD
BRANCH  19  23
ATOM     22  C   UNL     1      -0.019   1.526   0.010  0.00  0.00    -0.008 C 
ATOM     23  C   UNL     1       0.002  -0.004   0.002  0.00  0.00    -0.038 C 
BRANCH  23  24
ATOM     24  C   UNL     1       0.707  -0.490  -1.238  0.00  0.00    -0.026 A 
ATOM     25  C   UNL     1       2.024  -0.904  -1.167  0.00  0.00    +0.005 A 
ATOM     26  C   UNL     1       2.671  -1.350  -2.304  0.00  0.00    +0.000 A 
ATOM     27  C   UNL     1       2.003  -1.382  -3.514  0.00  0.00    +0.003 A 
ATOM     28  C   UNL     1       0.686  -0.969  -3.587  0.00  0.00    +0.038 A 
ATOM     29  C   UNL     1       0.035  -0.527  -2.447  0.00  0.00    +0.125 A 
ATOM     30  F   UNL     1      -1.253  -0.127  -2.517  0.00  0.00    -0.205 F 
ENDBRANCH  23  24
ENDBRANCH  19  23
ENDBRANCH  18  19
ENDBRANCH   1  18
TORSDOF 6
