REMARK  Name = ZINC00090365
REMARK  2 active torsions:
REMARK  status: ('A' for Active; 'I' for Inactive)
REMARK    1  A    between atoms: C_5  and  C_7
REMARK    2  A    between atoms: C_9  and  N_16
REMARK                            x       y       z     vdW  Elec       q    Type
REMARK                         _______ _______ _______ _____ _____    ______ ____
ROOT
ATOM      1  C   UNL     1       1.231  -2.192  -0.025  0.00  0.00    +0.133 C 
ATOM      2  C   UNL     1       1.510  -2.696   1.392  0.00  0.00    +0.195 C 
ATOM      3  C   UNL     1       1.305  -4.215   1.422  0.00  0.00    +0.043 C 
ATOM      4  C   UNL     1      -0.183  -4.507   1.212  0.00  0.00    +0.098 C 
ATOM      5  C   UNL     1      -0.692  -3.736   0.028  0.00  0.00    +0.214 C 
ATOM      6  O   UNL     1      -1.739  -4.084  -0.476  0.00  0.00    -0.276 OA
ATOM      7  N   UNL     1      -0.056  -2.689  -0.494  0.00  0.00    -0.306 N 
ATOM      8  H   UNL     1      -0.477  -2.230  -1.237  0.00  0.00    +0.149 HD
ENDROOT
BRANCH   1  13
ATOM      9  C   UNL     1       1.045   1.385   1.168  0.00  0.00    +0.000 A 
ATOM     10  C   UNL     1       1.178   2.080  -0.020  0.00  0.00    +0.001 A 
ATOM     11  C   UNL     1       1.328   1.392  -1.210  0.00  0.00    +0.015 A 
ATOM     12  C   UNL     1       1.346   0.009  -1.212  0.00  0.00    +0.023 A 
ATOM     13  C   UNL     1       1.212  -0.685  -0.023  0.00  0.00    -0.011 A 
ATOM     14  C   UNL     1       1.062   0.003   1.166  0.00  0.00    +0.006 A 
ATOM     15 BR   UNL     1       1.550  -0.932  -2.839  0.00  0.00    -0.050 Br
ENDBRANCH   1  13
BRANCH   2  16
ATOM     16  N   UNL     1       2.890  -2.376   1.764  0.00  0.00    +0.028 N 
ATOM     17  O   UNL     1       3.115  -1.752   2.776  0.00  0.00    -0.131 OA
ATOM     18  O   UNL     1       3.805  -2.734   1.060  0.00  0.00    -0.131 OA
ENDBRANCH   2  16
TORSDOF 2
