REMARK  Name = ZINC39685770
REMARK  11 active torsions:
REMARK  status: ('A' for Active; 'I' for Inactive)
REMARK    1  A    between atoms: C_1  and  C_2
REMARK    2  A    between atoms: C_2  and  C_3
REMARK    3  A    between atoms: C_2  and  C_4
REMARK    4  A    between atoms: C_4  and  C_6
REMARK    5  A    between atoms: C_4  and  N_13
REMARK    6  A    between atoms: N_8  and  C_9
REMARK    7  A    between atoms: C_9  and  C_10
REMARK    8  A    between atoms: C_9  and  C_11
REMARK    9  A    between atoms: C_9  and  C_12
REMARK   10  A    between atoms: C_14  and  C_16
REMARK   11  A    between atoms: C_27  and  C_29
REMARK                            x       y       z     vdW  Elec       q    Type
REMARK                         _______ _______ _______ _____ _____    ______ ____
ROOT
ATOM      1  C   UNL     1       3.710   1.793   1.805  0.00  0.00    +0.100 C 
ATOM      2  C   UNL     1       4.744   0.955   2.590  0.00  0.00    +0.121 C 
ATOM      3  N   UNL     1       5.618   1.957   3.245  0.00  0.00    -0.296 N 
ATOM      4  C   UNL     1       4.690   3.029   3.679  0.00  0.00    +0.115 C 
ATOM      5  C   UNL     1       3.676   3.153   2.523  0.00  0.00    -0.004 C 
ATOM      6  C   UNL     1       2.280   3.425   3.074  0.00  0.00    -0.010 C 
ATOM      7  C   UNL     1       2.257   4.808   3.733  0.00  0.00    -0.082 C 
ATOM      8  N   UNL     1       2.622   5.829   2.744  0.00  0.00    +0.379 N 
ATOM      9  C   UNL     1       4.001   5.614   2.288  0.00  0.00    -0.082 C 
ATOM     10  C   UNL     1       4.098   4.265   1.569  0.00  0.00    -0.010 C 
ATOM     11  C   UNL     1       6.955   1.906   3.409  0.00  0.00    +0.247 C 
ATOM     12  O   UNL     1       7.595   1.003   2.906  0.00  0.00    -0.270 OA
ATOM     13  H   UNL     1       1.996   5.771   1.955  0.00  0.00    -0.086 HD
ATOM     14  H   UNL     1       2.547   6.743   3.163  0.00  0.00    -0.086 HD
ENDROOT
BRANCH  11  15
ATOM     15  C   UNL     1       7.643   2.947   4.201  0.00  0.00    +0.037 A 
ATOM     16  C   UNL     1       6.936   3.685   5.152  0.00  0.00    +0.014 A 
ATOM     17  C   UNL     1       7.583   4.655   5.888  0.00  0.00    +0.016 A 
ATOM     18  C   UNL     1       8.931   4.898   5.685  0.00  0.00    +0.018 A 
ATOM     19  C   UNL     1       9.638   4.170   4.742  0.00  0.00    +0.016 A 
ATOM     20  C   UNL     1       9.003   3.193   4.004  0.00  0.00    +0.014 A 
ATOM     21 BR   UNL     1       9.811   6.231   6.697  0.00  0.00    -0.050 Br
ENDBRANCH  11  15
BRANCH   1  23
ATOM     22  N   UNL     1       1.850   0.729   3.041  0.00  0.00    -0.303 N 
ATOM     23  C   UNL     1       2.354   1.138   1.859  0.00  0.00    +0.219 C 
ATOM     24  O   UNL     1       1.717   0.978   0.840  0.00  0.00    -0.275 OA
ATOM     25  H   UNL     1       2.381   0.808   3.848  0.00  0.00    +0.149 HD
BRANCH  22  26
ATOM     26  C   UNL     1       0.499   0.167   3.105  0.00  0.00    +0.161 C 
BRANCH  26  27
ATOM     27  C   UNL     1      -0.060   0.357   4.491  0.00  0.00    +0.234 C 
ATOM     28  O   UNL     1       0.606   0.909   5.342  0.00  0.00    -0.274 OA
ATOM     29  N   UNL     1      -1.298  -0.085   4.786  0.00  0.00    -0.309 N 
ATOM     30  H   UNL     1      -1.830  -0.526   4.106  0.00  0.00    +0.149 HD
BRANCH  29  31
ATOM     31  C   UNL     1      -1.841   0.101   6.134  0.00  0.00    +0.026 C 
ATOM     32  C   UNL     1      -1.895   1.594   6.461  0.00  0.00    +0.031 C 
ATOM     33  C   UNL     1      -3.252  -0.487   6.201  0.00  0.00    +0.031 C 
ATOM     34  C   UNL     1      -0.943  -0.612   7.148  0.00  0.00    +0.031 C 
ENDBRANCH  29  31
ENDBRANCH  26  27
BRANCH  26  36
ATOM     35  C   UNL     1       1.119  -1.521   1.370  0.00  0.00    +0.009 C 
ATOM     36  C   UNL     1       0.552  -1.327   2.778  0.00  0.00    +0.012 C 
ATOM     37  C   UNL     1       1.450  -2.039   3.791  0.00  0.00    +0.009 C 
ENDBRANCH  26  36
ENDBRANCH  22  26
ENDBRANCH   1  23
TORSDOF 6
