REMARK  Name = ZINC18140290
REMARK  8 active torsions:
REMARK  status: ('A' for Active; 'I' for Inactive)
REMARK    1  A    between atoms: C_3  and  C_8
REMARK    2  A    between atoms: C_4  and  O_7
REMARK    3  A    between atoms: N_9  and  C_10
REMARK    4  A    between atoms: C_13  and  C_16
REMARK    5  A    between atoms: C_16  and  C_26
REMARK    6  A    between atoms: C_29  and  N_32
REMARK    7  A    between atoms: C_33  and  C_34
REMARK    8  A    between atoms: C_35  and  O_40
REMARK                            x       y       z     vdW  Elec       q    Type
REMARK                         _______ _______ _______ _____ _____    ______ ____
ROOT
ATOM      1  C   UNL     1      -0.839  -1.789   0.341  0.00  0.00    +0.111 C 
ATOM      2  N   UNL     1      -2.150  -2.048   0.947  0.00  0.00    -0.294 N 
ATOM      3  C   UNL     1      -1.986  -2.241   2.267  0.00  0.00    +0.246 C 
ATOM      4  O   UNL     1      -2.883  -2.478   3.052  0.00  0.00    -0.270 OA
ATOM      5  C   UNL     1      -0.560  -2.123   2.628  0.00  0.00    +0.043 A 
ATOM      6  C   UNL     1       0.165  -1.846   1.465  0.00  0.00    -0.003 A 
ATOM      7  C   UNL     1       1.529  -1.686   1.519  0.00  0.00    +0.007 A 
ATOM      8  C   UNL     1       2.192  -1.799   2.730  0.00  0.00    +0.000 A 
ATOM      9  C   UNL     1       1.485  -2.072   3.887  0.00  0.00    +0.001 A 
ATOM     10  C   UNL     1       0.115  -2.235   3.844  0.00  0.00    +0.013 A 
ATOM     11  H   UNL     1      -2.996  -2.076   0.473  0.00  0.00    +0.151 HD
ENDROOT
BRANCH   1  15
ATOM     12  C   UNL     1      -0.799   2.085  -1.469  0.00  0.00    +0.064 A 
ATOM     13  C   UNL     1      -1.974   1.331  -1.453  0.00  0.00    +0.028 A 
ATOM     14  C   UNL     1      -1.980   0.082  -0.868  0.00  0.00    +0.008 A 
ATOM     15  C   UNL     1      -0.825  -0.424  -0.297  0.00  0.00    -0.015 A 
ATOM     16  C   UNL     1       0.343   0.318  -0.310  0.00  0.00    +0.008 A 
ATOM     17  C   UNL     1       0.365   1.567  -0.896  0.00  0.00    +0.028 A 
BRANCH  12  19
ATOM     18  C   UNL     1      -1.165   3.469  -3.288  0.00  0.00    +0.123 C 
ATOM     19  N   UNL     1      -0.786   3.325  -2.049  0.00  0.00    -0.255 NA
BRANCH  18  22
ATOM     20  C   UNL     1      -0.982  -0.018  -4.654  0.00  0.00    +0.001 A 
ATOM     21  C   UNL     1      -0.740   1.089  -3.868  0.00  0.00    +0.013 A 
ATOM     22  C   UNL     1      -1.417   2.285  -4.122  0.00  0.00    +0.034 A 
ATOM     23  C   UNL     1      -2.340   2.349  -5.178  0.00  0.00    +0.125 A 
ATOM     24  C   UNL     1      -2.570   1.226  -5.957  0.00  0.00    +0.046 A 
ATOM     25  C   UNL     1      -1.893   0.050  -5.695  0.00  0.00    +0.004 A 
BRANCH  23  26
ATOM     26  O   UNL     1      -3.003   3.505  -5.434  0.00  0.00    -0.506 OA
ATOM     27  H   UNL     1      -2.589   4.053  -6.114  0.00  0.00    +0.292 HD
ENDBRANCH  23  26
ENDBRANCH  18  22
ENDBRANCH  12  19
ENDBRANCH   1  15
BRANCH   1  28
ATOM     28  C   UNL     1      -0.525  -2.844  -0.688  0.00  0.00    -0.015 A 
ATOM     29  C   UNL     1       0.786  -3.236  -0.894  0.00  0.00    +0.008 A 
ATOM     30  C   UNL     1       1.081  -4.202  -1.833  0.00  0.00    +0.028 A 
ATOM     31  C   UNL     1       0.053  -4.784  -2.578  0.00  0.00    +0.064 A 
ATOM     32  C   UNL     1      -1.268  -4.384  -2.365  0.00  0.00    +0.028 A 
ATOM     33  C   UNL     1      -1.549  -3.421  -1.418  0.00  0.00    +0.008 A 
BRANCH  31  34
ATOM     34  N   UNL     1       0.338  -5.743  -3.512  0.00  0.00    -0.255 NA
ATOM     35  C   UNL     1       0.190  -7.004  -3.218  0.00  0.00    +0.123 C 
BRANCH  35  36
ATOM     36  C   UNL     1       0.154  -7.432  -1.812  0.00  0.00    +0.034 A 
ATOM     37  C   UNL     1      -0.684  -8.486  -1.416  0.00  0.00    +0.125 A 
ATOM     38  C   UNL     1      -0.709  -8.881  -0.088  0.00  0.00    +0.046 A 
ATOM     39  C   UNL     1       0.088  -8.239   0.841  0.00  0.00    +0.004 A 
ATOM     40  C   UNL     1       0.916  -7.198   0.455  0.00  0.00    +0.001 A 
ATOM     41  C   UNL     1       0.959  -6.796  -0.862  0.00  0.00    +0.013 A 
BRANCH  37  42
ATOM     42  O   UNL     1      -1.466  -9.115  -2.329  0.00  0.00    -0.506 OA
ATOM     43  H   UNL     1      -1.073  -9.918  -2.697  0.00  0.00    +0.292 HD
ENDBRANCH  37  42
ENDBRANCH  35  36
ENDBRANCH  31  34
ENDBRANCH   1  28
TORSDOF 8
