REMARK  Name = ZINC39595024
REMARK  11 active torsions:
REMARK  status: ('A' for Active; 'I' for Inactive)
REMARK    1  A    between atoms: C_1  and  C_2
REMARK    2  A    between atoms: C_2  and  C_3
REMARK    3  A    between atoms: C_3  and  C_4
REMARK    4  A    between atoms: C_4  and  C_5
REMARK    5  A    between atoms: C_5  and  C_7
REMARK    6  A    between atoms: C_5  and  C_8
REMARK    7  A    between atoms: C_12  and  C_21
REMARK    8  A    between atoms: N_23  and  C_24
REMARK    9  A    between atoms: C_24  and  C_25
REMARK   10  A    between atoms: C_25  and  C_27
REMARK   11  A    between atoms: C_25  and  N_33
REMARK                            x       y       z     vdW  Elec       q    Type
REMARK                         _______ _______ _______ _____ _____    ______ ____
ROOT
ATOM      1  C   UNL     1       1.897  -3.225   2.705  0.00  0.00    +0.218 C 
ATOM      2  O   UNL     1       1.375  -3.719   1.728  0.00  0.00    -0.275 OA
ATOM      3  N   UNL     1       2.409  -4.017   3.668  0.00  0.00    -0.300 N 
ATOM      4  C   UNL     1       3.073  -3.603   4.926  0.00  0.00    +0.121 C 
ATOM      5  C   UNL     1       2.564  -4.608   5.985  0.00  0.00    +0.100 C 
ATOM      6  C   UNL     1       2.148  -5.850   5.179  0.00  0.00    -0.004 C 
ATOM      7  C   UNL     1       2.429  -5.499   3.710  0.00  0.00    +0.115 C 
ATOM      8  C   UNL     1       2.980  -7.057   5.603  0.00  0.00    -0.010 C 
ATOM      9  C   UNL     1       2.509  -8.292   4.829  0.00  0.00    -0.082 C 
ATOM     10  N   UNL     1       1.087  -8.531   5.104  0.00  0.00    +0.379 N 
ATOM     11  C   UNL     1       0.285  -7.405   4.610  0.00  0.00    -0.082 C 
ATOM     12  C   UNL     1       0.662  -6.133   5.374  0.00  0.00    -0.010 C 
ATOM     13  H   UNL     1       0.794  -9.379   4.643  0.00  0.00    -0.086 HD
ATOM     14  H   UNL     1       0.950  -8.628   6.099  0.00  0.00    -0.086 HD
ENDROOT
BRANCH   5  15
ATOM     15  C   UNL     1       1.380  -4.038   6.722  0.00  0.00    +0.218 C 
ATOM     16  O   UNL     1       0.653  -3.236   6.175  0.00  0.00    -0.275 OA
ATOM     17  N   UNL     1       1.129  -4.419   7.990  0.00  0.00    -0.316 N 
ATOM     18  H   UNL     1       1.710  -5.060   8.428  0.00  0.00    +0.149 HD
BRANCH  17  19
ATOM     19  C   UNL     1      -0.022  -3.865   8.708  0.00  0.00    +0.093 C 
BRANCH  19  20
ATOM     20  C   UNL     1      -0.001  -4.350  10.159  0.00  0.00    -0.019 C 
BRANCH  20  21
ATOM     21  C   UNL     1       1.206  -3.783  10.860  0.00  0.00    -0.041 A 
ATOM     22  C   UNL     1       2.345  -4.555  11.033  0.00  0.00    +0.005 A 
ATOM     23  C   UNL     1       3.432  -3.991  11.684  0.00  0.00    +0.020 A 
ATOM     24  C   UNL     1       3.344  -2.688  12.137  0.00  0.00    +0.111 A 
ATOM     25  N   UNL     1       2.244  -1.984  11.955  0.00  0.00    -0.263 NA
ATOM     26  C   UNL     1       1.194  -2.485  11.335  0.00  0.00    +0.112 A 
ENDBRANCH  20  21
BRANCH  20  27
ATOM     27  N   UNL     1      -1.221  -3.902  10.843  0.00  0.00    +0.385 N 
ATOM     28  C   UNL     1      -2.417  -4.522  10.217  0.00  0.00    -0.078 C 
ATOM     29  C   UNL     1      -3.488  -4.431  11.332  0.00  0.00    -0.020 C 
ATOM     30  C   UNL     1      -2.673  -4.699  12.618  0.00  0.00    -0.020 C 
ATOM     31  C   UNL     1      -1.216  -4.363  12.248  0.00  0.00    -0.078 C 
ATOM     32  H   UNL     1      -1.290  -2.896  10.807  0.00  0.00    -0.081 HD
ENDBRANCH  20  27
ENDBRANCH  19  20
ENDBRANCH  17  19
ENDBRANCH   5  15
BRANCH   1  33
ATOM     33  C   UNL     1       1.973  -1.726   2.842  0.00  0.00    +0.072 C 
ATOM     34  C   UNL     1       3.438  -1.296   2.934  0.00  0.00    +0.017 C 
BRANCH  33  35
ATOM     35  C   UNL     1       1.324  -1.069   1.623  0.00  0.00    +0.012 C 
BRANCH  35  36
ATOM     36  C   UNL     1       1.289   0.448   1.820  0.00  0.00    +0.000 C 
BRANCH  36  38
ATOM     37  C   UNL     1       0.605   2.623   0.797  0.00  0.00    +0.004 C 
ATOM     38  C   UNL     1       0.640   1.106   0.600  0.00  0.00    -0.003 C 
ENDBRANCH  36  38
ENDBRANCH  35  36
ENDBRANCH  33  35
ENDBRANCH   1  33
TORSDOF 9
