REMARK  Name = ZINC35474830
REMARK  7 active torsions:
REMARK  status: ('A' for Active; 'I' for Inactive)
REMARK    1  A    between atoms: C_1  and  C_2
REMARK    2  A    between atoms: N_8  and  C_9
REMARK    3  A    between atoms: C_9  and  C_10
REMARK    4  A    between atoms: C_10  and  C_11
REMARK    5  A    between atoms: C_11  and  N_12
REMARK    6  A    between atoms: C_18  and  C_25
REMARK    7  A    between atoms: N_23  and  C_24
REMARK                            x       y       z     vdW  Elec       q    Type
REMARK                         _______ _______ _______ _____ _____    ______ ____
ROOT
ATOM      1  N   UNL     1       4.842  -0.112   3.791  0.00  0.00    -0.292 N 
ATOM      2  C   UNL     1       4.813   0.626   5.063  0.00  0.00    +0.159 C 
ATOM      3  C   UNL     1       5.655  -0.200   6.010  0.00  0.00    +0.042 C 
ATOM      4  C   UNL     1       6.084  -1.266   5.305  0.00  0.00    +0.058 C 
ATOM      5  C   UNL     1       5.593  -1.211   3.985  0.00  0.00    +0.247 C 
ATOM      6  O   UNL     1       5.820  -2.049   3.131  0.00  0.00    -0.270 OA
ATOM      7  C   UNL     1       6.962  -2.275   6.018  0.00  0.00    +0.148 C 
ATOM      8  N   UNL     1       7.275  -2.005   7.431  0.00  0.00    -0.287 N 
ATOM      9  C   UNL     1       6.771  -0.892   8.000  0.00  0.00    +0.307 C 
ATOM     10  O   UNL     1       7.024  -0.661   9.166  0.00  0.00    -0.252 OA
ATOM     11  N   UNL     1       5.999  -0.033   7.321  0.00  0.00    -0.260 N 
ATOM     12  C   UNL     1       5.496   1.150   8.024  0.00  0.00    +0.139 C 
ATOM     13  H   UNL     1       7.832  -2.614   7.941  0.00  0.00    +0.151 HD
ENDROOT
BRANCH   7  14
ATOM     14  C   UNL     1       6.282  -3.618   5.942  0.00  0.00    +0.015 A 
ATOM     15  C   UNL     1       6.532  -4.655   5.106  0.00  0.00    +0.013 A 
ATOM     16  C   UNL     1       5.774  -5.805   5.219  0.00  0.00    +0.008 A 
ATOM     17  C   UNL     1       4.802  -5.862   6.162  0.00  0.00    +0.045 A 
ATOM     18  S   UNL     1       4.943  -4.258   6.935  0.00  0.00    -0.099 S 
ENDBRANCH   7  14
BRANCH   1  19
ATOM     19  C   UNL     1       4.173   0.276   2.547  0.00  0.00    +0.106 C 
BRANCH  19  20
ATOM     20  C   UNL     1       2.764  -0.321   2.518  0.00  0.00    +0.000 C 
BRANCH  20  21
ATOM     21  C   UNL     1       2.066   0.083   1.218  0.00  0.00    -0.077 C 
BRANCH  21  28
ATOM     22  C   UNL     1      -0.019   1.526   0.010  0.00  0.00    -0.013 C 
ATOM     23  C   UNL     1       0.002  -0.004   0.002  0.00  0.00    -0.072 C 
ATOM     24  C   UNL     1      -1.434  -0.533   0.011  0.00  0.00    -0.016 C 
ATOM     25  C   UNL     1      -1.408  -2.064   0.003  0.00  0.00    -0.003 C 
ATOM     26  C   UNL     1      -0.600  -2.558   1.206  0.00  0.00    -0.019 C 
ATOM     27  C   UNL     1       0.805  -1.954   1.152  0.00  0.00    -0.078 C 
ATOM     28  N   UNL     1       0.713  -0.490   1.191  0.00  0.00    +0.381 N 
ATOM     29  H   UNL     1       0.213  -0.206   2.020  0.00  0.00    -0.081 HD
ENDBRANCH  21  28
ENDBRANCH  20  21
ENDBRANCH  19  20
ENDBRANCH   1  19
TORSDOF 5
