REMARK  Name = ZINC50321625
REMARK  9 active torsions:
REMARK  status: ('A' for Active; 'I' for Inactive)
REMARK    1  A    between atoms: C_1  and  C_2
REMARK    2  A    between atoms: C_4  and  C_7
REMARK    3  A    between atoms: C_7  and  N_8
REMARK    4  A    between atoms: N_8  and  C_9
REMARK    5  A    between atoms: C_10  and  C_12
REMARK    6  A    between atoms: C_13  and  N_21
REMARK    7  A    between atoms: C_14  and  C_18
REMARK    8  A    between atoms: C_18  and  C_19
REMARK    9  A    between atoms: C_18  and  C_20
REMARK                            x       y       z     vdW  Elec       q    Type
REMARK                         _______ _______ _______ _____ _____    ______ ____
ROOT
ATOM      1  C   UNL     1      -2.503  -5.079   3.150  0.00  0.00    +0.168 A 
ATOM      2  C   UNL     1      -2.027  -6.227   3.834  0.00  0.00    +0.078 A 
ATOM      3  C   UNL     1      -2.836  -6.363   4.919  0.00  0.00    +0.060 A 
ATOM      4  N   UNL     1      -3.738  -5.348   4.873  0.00  0.00    -0.279 N 
ATOM      5  H   UNL     1      -4.439  -5.198   5.526  0.00  0.00    +0.189 HD
ATOM      6  N   UNL     1      -3.524  -4.611   3.842  0.00  0.00    -0.167 NA
ENDROOT
BRANCH   1   9
ATOM      7  N   UNL     1      -2.439  -3.349   1.423  0.00  0.00    -0.293 N 
ATOM      8  C   UNL     1      -3.424  -2.590   2.197  0.00  0.00    +0.133 C 
ATOM      9  C   UNL     1      -1.956  -4.512   1.903  0.00  0.00    +0.269 C 
ATOM     10  O   UNL     1      -1.068  -5.094   1.309  0.00  0.00    -0.268 OA
BRANCH   7  11
ATOM     11  C   UNL     1      -1.980  -2.845   0.126  0.00  0.00    +0.163 C 
BRANCH  11  15
ATOM     12  C   UNL     1       0.214   1.535   1.147  0.00  0.00    +0.073 C 
ATOM     13  C   UNL     1       0.164   0.069   0.803  0.00  0.00    +0.076 A 
ATOM     14  N   UNL     1      -0.889  -0.690   0.628  0.00  0.00    -0.248 NA
ATOM     15  C   UNL     1      -0.771  -1.968   0.328  0.00  0.00    +0.066 A 
ATOM     16  C   UNL     1       0.490  -2.459   0.209  0.00  0.00    +0.071 A 
ATOM     17  S   UNL     1       1.447  -0.989   0.543  0.00  0.00    -0.080 S 
ENDBRANCH  11  15
ENDBRANCH   7  11
ENDBRANCH   1   9
BRANCH   3  18
ATOM     18  C   UNL     1      -2.748  -7.436   5.973  0.00  0.00    +0.033 C 
ATOM     19  C   UNL     1      -2.508  -6.791   7.339  0.00  0.00    +0.014 C 
ATOM     20  C   UNL     1      -4.058  -8.227   6.005  0.00  0.00    +0.014 C 
ENDBRANCH   3  18
BRANCH   2  21
ATOM     21  N   UNL     1      -0.951  -7.049   3.469  0.00  0.00    -0.355 N 
ATOM     22  H   UNL     1      -0.441  -6.853   2.667  0.00  0.00    +0.142 HD
ATOM     23  H   UNL     1      -0.716  -7.813   4.018  0.00  0.00    +0.142 HD
ENDBRANCH   2  21
TORSDOF 5
