REMARK  Name = ZINC02854018
REMARK  12 active torsions:
REMARK  status: ('A' for Active; 'I' for Inactive)
REMARK    1  A    between atoms: C_1  and  O_2
REMARK    2  A    between atoms: O_2  and  C_3
REMARK    3  A    between atoms: C_6  and  C_11
REMARK    4  A    between atoms: C_8  and  O_9
REMARK    5  A    between atoms: O_9  and  C_10
REMARK    6  A    between atoms: C_11  and  C_12
REMARK    7  A    between atoms: C_12  and  N_13
REMARK    8  A    between atoms: N_13  and  C_14
REMARK    9  A    between atoms: C_14  and  N_16
REMARK   10  A    between atoms: N_16  and  N_17
REMARK   11  A    between atoms: C_18  and  C_20
REMARK   12  A    between atoms: C_25  and  N_29
REMARK                            x       y       z     vdW  Elec       q    Type
REMARK                         _______ _______ _______ _____ _____    ______ ____
ROOT
ATOM      1  N   UNL     1       1.121   3.555   0.010  0.00  0.00    -0.246 N 
ATOM      2  H   UNL     1       0.275   4.028   0.021  0.00  0.00    +0.172 HD
ENDROOT
BRANCH   1   3
ATOM      3  N   UNL     1       1.140   2.154   0.003  0.00  0.00    -0.231 N 
ATOM      4  C   UNL     1      -0.018   1.464   0.010  0.00  0.00    +0.268 C 
ATOM      5  O   UNL     1      -1.080   2.058   0.018  0.00  0.00    -0.268 OA
ATOM      6  H   UNL     1       1.987   1.680  -0.008  0.00  0.00    +0.173 HD
BRANCH   4   7
ATOM      7  C   UNL     1       0.002  -0.004   0.002  0.00  0.00    +0.095 A 
ATOM      8  C   UNL     1      -1.051  -0.866   0.013  0.00  0.00    +0.068 A 
ATOM      9  C   UNL     1      -0.820  -2.255  -0.003  0.00  0.00    +0.008 A 
ATOM     10  C   UNL     1      -1.775  -3.304   0.000  0.00  0.00    +0.013 A 
ATOM     11  C   UNL     1      -1.380  -4.603  -0.011  0.00  0.00    +0.033 A 
ATOM     12  C   UNL     1      -0.035  -4.956  -0.026  0.00  0.00    +0.127 A 
ATOM     13  C   UNL     1       0.927  -3.967  -0.028  0.00  0.00    +0.048 A 
ATOM     14  C   UNL     1       0.541  -2.643  -0.017  0.00  0.00    +0.024 A 
ATOM     15  S   UNL     1       1.413  -1.097  -0.017  0.00  0.00    -0.082 S 
ATOM     16 CL   UNL     1      -2.675  -0.255   0.040  0.00  0.00    -0.082 Cl
BRANCH  12  17
ATOM     17  N   UNL     1       0.361  -6.382  -0.038  0.00  0.00    +0.056 N 
ATOM     18  O   UNL     1      -0.492  -7.251  -0.035  0.00  0.00    -0.126 OA
ATOM     19  O   UNL     1       1.540  -6.686  -0.050  0.00  0.00    -0.126 OA
ENDBRANCH  12  17
ENDBRANCH   4   7
ENDBRANCH   1   3
BRANCH   1  20
ATOM     20  C   UNL     1       2.279   4.244   0.003  0.00  0.00    +0.147 C 
ATOM     21  S   UNL     1       2.256   5.956   0.013  0.00  0.00    -0.017 S 
BRANCH  20  22
ATOM     22  N   UNL     1       3.455   3.586  -0.012  0.00  0.00    -0.325 N 
ATOM     23  H   UNL     1       3.468   2.616  -0.017  0.00  0.00    +0.148 HD
BRANCH  22  24
ATOM     24  C   UNL     1       4.714   4.336  -0.020  0.00  0.00    +0.108 C 
BRANCH  24  25
ATOM     25  C   UNL     1       5.890   3.358  -0.036  0.00  0.00    +0.054 C 
BRANCH  25  29
ATOM     26  C   UNL     1       9.564   5.546  -0.066  0.00  0.00    +0.161 A 
ATOM     27  C   UNL     1       8.953   5.196  -1.259  0.00  0.00    +0.049 A 
ATOM     28  C   UNL     1       7.769   4.483  -1.246  0.00  0.00    +0.007 A 
ATOM     29  C   UNL     1       7.185   4.129  -0.044  0.00  0.00    -0.042 A 
ATOM     30  C   UNL     1       7.789   4.476   1.150  0.00  0.00    +0.053 A 
ATOM     31  C   UNL     1       8.979   5.184   1.144  0.00  0.00    +0.162 A 
BRANCH  26  33
ATOM     32  C   UNL     1      11.274   6.580  -1.355  0.00  0.00    +0.277 C 
ATOM     33  O   UNL     1      10.732   6.243  -0.076  0.00  0.00    -0.491 OA
ENDBRANCH  26  33
BRANCH  31  34
ATOM     34  O   UNL     1       9.574   5.527   2.318  0.00  0.00    -0.491 OA
ATOM     35  C   UNL     1       8.917   5.122   3.521  0.00  0.00    +0.277 C 
ENDBRANCH  31  34
ENDBRANCH  25  29
ENDBRANCH  24  25
ENDBRANCH  22  24
ENDBRANCH  20  22
ENDBRANCH   1  20
TORSDOF 10
