REMARK  Name = ZINC00825653
REMARK  5 active torsions:
REMARK  status: ('A' for Active; 'I' for Inactive)
REMARK    1  A    between atoms: C_4  and  N_21
REMARK    2  A    between atoms: C_5  and  C_7
REMARK    3  A    between atoms: N_9  and  N_10
REMARK    4  A    between atoms: C_11  and  C_12
REMARK    5  A    between atoms: C_17  and  O_18
REMARK                            x       y       z     vdW  Elec       q    Type
REMARK                         _______ _______ _______ _____ _____    ______ ____
ROOT
ATOM      1  C   UNL     1       1.746  -2.103   0.152  0.00  0.00    +0.265 C 
ATOM      2  O   UNL     1       2.895  -2.499   0.151  0.00  0.00    -0.268 OA
ATOM      3  N   UNL     1       0.729  -2.985   0.227  0.00  0.00    -0.203 N 
ATOM      4  H   UNL     1      -0.188  -2.669   0.228  0.00  0.00    +0.178 HD
ENDROOT
BRANCH   1   9
ATOM      5  C   UNL     1       0.408   1.312   0.959  0.00  0.00    +0.001 A 
ATOM      6  C   UNL     1       0.931   2.059  -0.081  0.00  0.00    +0.002 A 
ATOM      7  C   UNL     1       1.719   1.456  -1.046  0.00  0.00    +0.033 A 
ATOM      8  C   UNL     1       1.987   0.104  -0.976  0.00  0.00    +0.138 A 
ATOM      9  C   UNL     1       1.463  -0.655   0.071  0.00  0.00    +0.068 A 
ATOM     10  C   UNL     1       0.669  -0.040   1.041  0.00  0.00    +0.015 A 
BRANCH   8  11
ATOM     11  N   UNL     1       2.829  -0.539  -2.010  0.00  0.00    +0.057 N 
ATOM     12  O   UNL     1       3.380   0.137  -2.847  0.00  0.00    -0.126 OA
ATOM     13  O   UNL     1       2.965  -1.740  -2.016  0.00  0.00    -0.126 OA
ENDBRANCH   8  11
ENDBRANCH   1   9
BRANCH   3  14
ATOM     14  N   UNL     1       0.997  -4.358   0.304  0.00  0.00    -0.187 NA
ATOM     15  C   UNL     1       0.018  -5.208   0.376  0.00  0.00    +0.142 C 
BRANCH  15  16
ATOM     16  C   UNL     1       0.300  -6.652   0.456  0.00  0.00    +0.039 A 
ATOM     17  C   UNL     1      -0.750  -7.570   0.528  0.00  0.00    +0.033 A 
ATOM     18  C   UNL     1      -0.480  -8.921   0.603  0.00  0.00    +0.043 A 
ATOM     19  C   UNL     1       0.830  -9.371   0.608  0.00  0.00    +0.043 A 
ATOM     20  C   UNL     1       1.879  -8.472   0.538  0.00  0.00    +0.084 A 
ATOM     21  C   UNL     1       1.624  -7.112   0.456  0.00  0.00    +0.144 A 
ATOM     22 CL   UNL     1       3.516  -9.048   0.546  0.00  0.00    -0.080 Cl
ATOM     23 CL   UNL     1      -1.786 -10.060   0.692  0.00  0.00    -0.083 Cl
BRANCH  21  24
ATOM     24  O   UNL     1       2.653  -6.229   0.381  0.00  0.00    -0.505 OA
ATOM     25  H   UNL     1       2.970  -5.920   1.241  0.00  0.00    +0.292 HD
ENDBRANCH  21  24
ENDBRANCH  15  16
ENDBRANCH   3  14
TORSDOF 5
