REMARK  Name = ZINC19770151
REMARK  8 active torsions:
REMARK  status: ('A' for Active; 'I' for Inactive)
REMARK    1  A    between atoms: C_1  and  C_2
REMARK    2  A    between atoms: C_3  and  C_23
REMARK    3  A    between atoms: C_4  and  C_16
REMARK    4  A    between atoms: C_10  and  C_14
REMARK    5  A    between atoms: C_10  and  C_15
REMARK    6  A    between atoms: C_23  and  O_25
REMARK    7  A    between atoms: O_25  and  C_26
REMARK    8  A    between atoms: C_26  and  C_27
REMARK                            x       y       z     vdW  Elec       q    Type
REMARK                         _______ _______ _______ _____ _____    ______ ____
ROOT
ATOM      1  C   UNL     1      -2.673   4.064  -0.690  0.00  0.00    +0.061 C 
ATOM      2  C   UNL     1      -1.334   3.477  -0.328  0.00  0.00    +0.016 C 
ATOM      3  C   UNL     1      -0.209   4.164  -0.592  0.00  0.00    +0.065 C 
ATOM      4  C   UNL     1       1.141   3.614  -0.238  0.00  0.00    +0.092 C 
ATOM      5  C   UNL     1       1.073   2.128   0.005  0.00  0.00    +0.024 C 
ATOM      6  C   UNL     1      -0.109   1.522   0.246  0.00  0.00    +0.016 C 
ATOM      7  N   UNL     1      -1.270   2.247   0.265  0.00  0.00    -0.321 N 
ATOM      8  C   UNL     1      -0.184   0.036   0.494  0.00  0.00    +0.058 C 
ATOM      9  C   UNL     1       1.110  -0.441   1.156  0.00  0.00    -0.023 C 
ATOM     10  C   UNL     1       2.285  -0.087   0.238  0.00  0.00    +0.086 C 
ATOM     11  C   UNL     1       2.272   1.394  -0.023  0.00  0.00    +0.162 C 
ATOM     12  O   UNL     1       3.317   1.967  -0.262  0.00  0.00    -0.292 OA
ATOM     13  C   UNL     1       1.284   0.257   2.507  0.00  0.00    +0.011 C 
ATOM     14  C   UNL     1       1.055  -1.957   1.360  0.00  0.00    +0.011 C 
ATOM     15  H   UNL     1      -2.157   1.831   0.765  0.00  0.00    +0.152 HD
ENDROOT
BRANCH   4  16
ATOM     16  C   UNL     1       1.642   4.297   1.008  0.00  0.00    -0.035 A 
ATOM     17  C   UNL     1       0.934   4.185   2.190  0.00  0.00    +0.005 A 
ATOM     18  C   UNL     1       1.397   4.807   3.335  0.00  0.00    +0.015 A 
ATOM     19  C   UNL     1       2.562   5.551   3.295  0.00  0.00    +0.018 A 
ATOM     20  C   UNL     1       3.267   5.668   2.110  0.00  0.00    +0.015 A 
ATOM     21  C   UNL     1       2.807   5.041   0.968  0.00  0.00    +0.005 A 
ATOM     22 BR   UNL     1       3.190   6.409   4.858  0.00  0.00    -0.050 Br
ENDBRANCH   4  16
BRANCH   3  23
ATOM     23  C   UNL     1      -0.301   5.430  -1.216  0.00  0.00    +0.338 C 
ATOM     24  O   UNL     1      -1.376   5.834  -1.619  0.00  0.00    -0.245 OA
BRANCH  23  25
ATOM     25  O   UNL     1       0.803   6.191  -1.365  0.00  0.00    -0.459 OA
BRANCH  25  26
ATOM     26  C   UNL     1       0.637   7.458  -2.004  0.00  0.00    +0.264 C 
BRANCH  26  27
ATOM     27  C   UNL     1       1.989   8.171  -2.082  0.00  0.00    +0.156 C 
ATOM     28  C   UNL     1       1.819   9.581  -2.691  0.00  0.00    +0.037 C 
ATOM     29  C   UNL     1       3.084   9.770  -3.558  0.00  0.00    +0.031 C 
ATOM     30  C   UNL     1       3.869   8.453  -3.369  0.00  0.00    +0.160 C 
ATOM     31  O   UNL     1       2.872   7.478  -2.990  0.00  0.00    -0.373 OA
ENDBRANCH  26  27
ENDBRANCH  25  26
ENDBRANCH  23  25
ENDBRANCH   3  23
TORSDOF 5
