REMARK  Name = ZINC44714469
REMARK  10 active torsions:
REMARK  status: ('A' for Active; 'I' for Inactive)
REMARK    1  A    between atoms: C_1  and  C_2
REMARK    2  A    between atoms: C_2  and  C_3
REMARK    3  A    between atoms: C_3  and  C_5
REMARK    4  A    between atoms: C_3  and  C_6
REMARK    5  A    between atoms: C_10  and  C_19
REMARK    6  A    between atoms: N_21  and  C_22
REMARK    7  A    between atoms: C_22  and  C_23
REMARK    8  A    between atoms: C_23  and  C_24
REMARK    9  A    between atoms: C_25  and  C_36
REMARK   10  A    between atoms: C_31  and  C_34
REMARK                            x       y       z     vdW  Elec       q    Type
REMARK                         _______ _______ _______ _____ _____    ______ ____
ROOT
ATOM      1  C   UNL     1       4.038  -3.164  -4.912  0.00  0.00    +0.218 C 
ATOM      2  O   UNL     1       3.317  -2.932  -5.860  0.00  0.00    -0.275 OA
ATOM      3  N   UNL     1       5.342  -3.441  -5.110  0.00  0.00    -0.315 N 
ATOM      4  H   UNL     1       5.918  -3.627  -4.352  0.00  0.00    +0.149 HD
ENDROOT
BRANCH   1   9
ATOM      5  C   UNL     1       0.564  -2.239  -1.560  0.00  0.00    +0.218 C 
ATOM      6  O   UNL     1      -0.108  -2.926  -0.821  0.00  0.00    -0.275 OA
ATOM      7  N   UNL     1       1.324  -2.816  -2.512  0.00  0.00    -0.300 N 
ATOM      8  C   UNL     1       2.287  -2.160  -3.427  0.00  0.00    +0.121 C 
ATOM      9  C   UNL     1       3.475  -3.144  -3.514  0.00  0.00    +0.100 C 
ATOM     10  C   UNL     1       2.877  -4.514  -3.155  0.00  0.00    -0.004 C 
ATOM     11  C   UNL     1       1.391  -4.252  -2.874  0.00  0.00    +0.115 C 
ATOM     12  C   UNL     1       3.553  -5.075  -1.907  0.00  0.00    -0.010 C 
ATOM     13  C   UNL     1       2.981  -6.463  -1.604  0.00  0.00    -0.082 C 
ATOM     14  N   UNL     1       3.211  -7.351  -2.750  0.00  0.00    +0.379 N 
ATOM     15  C   UNL     1       2.482  -6.853  -3.923  0.00  0.00    -0.082 C 
ATOM     16  C   UNL     1       3.032  -5.482  -4.325  0.00  0.00    -0.010 C 
ATOM     17  H   UNL     1       4.198  -7.381  -2.957  0.00  0.00    -0.086 HD
ATOM     18  H   UNL     1       2.889  -8.280  -2.524  0.00  0.00    -0.086 HD
BRANCH   5  19
ATOM     19  C   UNL     1       0.550  -0.739  -1.414  0.00  0.00    +0.072 C 
ATOM     20  C   UNL     1       1.633  -0.312  -0.421  0.00  0.00    +0.017 C 
BRANCH  19  22
ATOM     21  C   UNL     1      -0.876   1.239  -0.870  0.00  0.00    +0.004 C 
ATOM     22  C   UNL     1      -0.819  -0.289  -0.900  0.00  0.00    +0.009 C 
ENDBRANCH  19  22
ENDBRANCH   5  19
ENDBRANCH   1   9
BRANCH   3  23
ATOM     23  C   UNL     1       5.889  -3.461  -6.469  0.00  0.00    +0.109 C 
BRANCH  23  24
ATOM     24  C   UNL     1       7.380  -3.799  -6.413  0.00  0.00    +0.056 C 
BRANCH  24  25
ATOM     25  C   UNL     1       7.943  -3.820  -7.811  0.00  0.00    -0.018 A 
ATOM     26  C   UNL     1       8.001  -4.878  -8.633  0.00  0.00    +0.017 A 
ATOM     27  N   UNL     1       8.577  -4.517  -9.821  0.00  0.00    -0.358 N 
ATOM     28  H   UNL     1       8.726  -5.113 -10.572  0.00  0.00    +0.166 HD
ATOM     29  C   UNL     1       8.912  -3.184  -9.793  0.00  0.00    +0.047 A 
ATOM     30  C   UNL     1       8.525  -2.685  -8.534  0.00  0.00    +0.004 A 
ATOM     31  C   UNL     1       8.739  -1.345  -8.219  0.00  0.00    +0.029 A 
ATOM     32  C   UNL     1       9.335  -0.510  -9.160  0.00  0.00    +0.052 A 
ATOM     33  C   UNL     1       9.713  -1.018 -10.411  0.00  0.00    +0.021 A 
ATOM     34  C   UNL     1       9.510  -2.330 -10.719  0.00  0.00    +0.027 A 
ATOM     35  C   UNL     1       7.506  -6.262  -8.298  0.00  0.00    +0.063 C 
BRANCH  32  36
ATOM     36  C   UNL     1       9.561   0.870  -8.850  0.00  0.00    +0.099 C 
ATOM     37  N   UNL     1       9.740   1.964  -8.604  0.00  0.00    -0.191 NA
ENDBRANCH  32  36
ENDBRANCH  24  25
ENDBRANCH  23  24
ENDBRANCH   3  23
TORSDOF 7
