REMARK  Name = ZINC21661279
REMARK  5 active torsions:
REMARK  status: ('A' for Active; 'I' for Inactive)
REMARK    1  A    between atoms: C_1  and  C_2
REMARK    2  A    between atoms: C_2  and  O_3
REMARK    3  A    between atoms: O_3  and  C_4
REMARK    4  A    between atoms: C_16  and  C_18
REMARK    5  A    between atoms: C_19  and  C_25
REMARK                            x       y       z     vdW  Elec       q    Type
REMARK                         _______ _______ _______ _____ _____    ______ ____
ROOT
ATOM      1  C   UNL     1      12.346   0.683   4.079  0.00  0.00    +0.122 A 
ATOM      2  C   UNL     1      12.358   0.309   2.738  0.00  0.00    +0.048 A 
ATOM      3  C   UNL     1      11.206   0.088   2.050  0.00  0.00    +0.032 A 
ATOM      4  C   UNL     1       9.946   0.232   2.676  0.00  0.00    +0.081 A 
ATOM      5  C   UNL     1       9.965   0.612   4.038  0.00  0.00    +0.044 A 
ATOM      6  C   UNL     1      11.130   0.834   4.729  0.00  0.00    +0.063 A 
ATOM      7  S   UNL     1       8.234   0.688   4.433  0.00  0.00    -0.048 S 
ATOM      8  C   UNL     1       7.616   0.215   2.824  0.00  0.00    +0.196 A 
ATOM      9  N   UNL     1       8.721   0.051   2.137  0.00  0.00    -0.221 NA
ATOM     10  N   UNL     1       6.299   0.066   2.405  0.00  0.00    -0.193 N 
ATOM     11  C   UNL     1       5.890  -0.290   1.168  0.00  0.00    +0.135 A 
ATOM     12  C   UNL     1       4.522  -0.332   1.180  0.00  0.00    +0.023 A 
ATOM     13  C   UNL     1       4.094   0.018   2.453  0.00  0.00    +0.066 A 
ATOM     14  N   UNL     1       5.151   0.258   3.193  0.00  0.00    -0.168 NA
ATOM     15  C   UNL     1       2.660   0.108   2.909  0.00  0.00    +0.068 C 
ATOM     16  C   UNL     1       3.715  -0.707  -0.037  0.00  0.00    +0.068 C 
ATOM     17  C   UNL     1       4.511  -0.313  -1.284  0.00  0.00    +0.109 C 
ATOM     18  C   UNL     1       5.959  -0.692  -1.149  0.00  0.00    +0.219 C 
ATOM     19  O   UNL     1       6.547  -1.120  -2.120  0.00  0.00    -0.275 OA
ATOM     20  N   UNL     1       6.626  -0.572   0.018  0.00  0.00    -0.270 N 
ATOM     21  H   UNL     1       7.718  -0.690   0.080  0.00  0.00    +0.156 HD
ENDROOT
BRANCH  16  22
ATOM     22  C   UNL     1       2.399   0.028  -0.021  0.00  0.00    +0.031 A 
ATOM     23  C   UNL     1       1.210  -0.681  -0.013  0.00  0.00    +0.130 A 
ATOM     24  C   UNL     1       0.002  -0.004   0.002  0.00  0.00    +0.039 A 
ATOM     25  C   UNL     1      -0.017   1.378   0.010  0.00  0.00    +0.006 A 
ATOM     26  C   UNL     1       1.170   2.086   0.002  0.00  0.00    +0.039 A 
ATOM     27  C   UNL     1       2.379   1.412  -0.013  0.00  0.00    +0.130 A 
ATOM     28  F   UNL     1       3.539   2.104  -0.021  0.00  0.00    -0.205 F 
ATOM     29  F   UNL     1       1.228  -2.031  -0.021  0.00  0.00    -0.205 F 
ENDBRANCH  16  22
BRANCH   1  30
ATOM     30  O   UNL     1      13.513   0.897   4.743  0.00  0.00    -0.492 OA
BRANCH  30  32
ATOM     31  C   UNL     1      15.922   1.003   4.911  0.00  0.00    +0.048 C 
ATOM     32  C   UNL     1      14.723   0.720   4.003  0.00  0.00    +0.225 C 
ENDBRANCH  30  32
ENDBRANCH   1  30
TORSDOF 3
