REMARK  Name = ZINC11758244
REMARK  7 active torsions:
REMARK  status: ('A' for Active; 'I' for Inactive)
REMARK    1  A    between atoms: C_1  and  N_2
REMARK    2  A    between atoms: C_5  and  S_18
REMARK    3  A    between atoms: C_7  and  C_9
REMARK    4  A    between atoms: C_12  and  N_15
REMARK    5  A    between atoms: S_18  and  C_19
REMARK    6  A    between atoms: C_19  and  C_20
REMARK    7  A    between atoms: N_30  and  C_33
REMARK                            x       y       z     vdW  Elec       q    Type
REMARK                         _______ _______ _______ _____ _____    ______ ____
ROOT
ATOM      1  C   UNL     1      -2.324  -0.015   4.125  0.00  0.00    +0.155 C 
ATOM      2  N   UNL     1      -1.823   1.020   3.217  0.00  0.00    -0.281 N 
ATOM      3  C   UNL     1      -2.012   2.350   3.527  0.00  0.00    +0.154 A 
ATOM      4  C   UNL     1      -1.521   3.328   2.639  0.00  0.00    +0.114 A 
ATOM      5  C   UNL     1      -1.712   4.684   2.951  0.00  0.00    +0.116 A 
ATOM      6  N   UNL     1      -2.352   4.985   4.080  0.00  0.00    -0.220 NA
ATOM      7  C   UNL     1      -2.798   4.033   4.888  0.00  0.00    +0.163 A 
ATOM      8  N   UNL     1      -2.637   2.740   4.627  0.00  0.00    -0.209 NA
ATOM      9  C   UNL     1      -0.826   2.887   1.427  0.00  0.00    +0.268 A 
ATOM     10  O   UNL     1      -0.381   3.694   0.632  0.00  0.00    -0.267 OA
ATOM     11  N   UNL     1      -0.698   1.558   1.213  0.00  0.00    -0.263 N 
ATOM     12  C   UNL     1      -1.184   0.664   2.089  0.00  0.00    +0.333 A 
ATOM     13  O   UNL     1      -1.038  -0.519   1.852  0.00  0.00    -0.246 OA
ATOM     14  C   UNL     1      -0.013   1.086   0.008  0.00  0.00    +0.157 C 
ENDROOT
BRANCH   7  15
ATOM     15  C   UNL     1      -3.503   4.426   6.131  0.00  0.00    +0.019 A 
ATOM     16  C   UNL     1      -3.989   3.449   6.998  0.00  0.00    +0.014 A 
ATOM     17  C   UNL     1      -4.641   3.821   8.157  0.00  0.00    +0.033 A 
ATOM     18  C   UNL     1      -4.821   5.160   8.452  0.00  0.00    +0.126 A 
ATOM     19  C   UNL     1      -4.346   6.134   7.592  0.00  0.00    +0.033 A 
ATOM     20  C   UNL     1      -3.688   5.774   6.434  0.00  0.00    +0.014 A 
BRANCH  18  21
ATOM     21  N   UNL     1      -5.525   5.553   9.694  0.00  0.00    +0.056 N 
ATOM     22  O   UNL     1      -5.686   6.731   9.956  0.00  0.00    -0.126 OA
ATOM     23  O   UNL     1      -5.945   4.697  10.452  0.00  0.00    -0.126 OA
ENDBRANCH  18  21
ENDBRANCH   7  15
BRANCH   5  24
ATOM     24  S   UNL     1      -1.121   5.951   1.879  0.00  0.00    -0.100 S 
BRANCH  24  25
ATOM     25  C   UNL     1      -1.655   7.415   2.800  0.00  0.00    +0.115 C 
BRANCH  25  26
ATOM     26  C   UNL     1      -1.245   8.657   2.050  0.00  0.00    +0.016 A 
ATOM     27  C   UNL     1      -2.101   9.217   1.117  0.00  0.00    +0.129 A 
ATOM     28  C   UNL     1      -1.723  10.357   0.429  0.00  0.00    +0.039 A 
ATOM     29  C   UNL     1      -0.492  10.937   0.674  0.00  0.00    +0.004 A 
ATOM     30  C   UNL     1       0.361  10.378   1.606  0.00  0.00    +0.020 A 
ATOM     31  C   UNL     1      -0.017   9.241   2.299  0.00  0.00    +0.048 A 
ATOM     32 CL   UNL     1       1.054   8.544   3.474  0.00  0.00    -0.083 Cl
ATOM     33  F   UNL     1      -3.304   8.650   0.876  0.00  0.00    -0.205 F 
ENDBRANCH  25  26
ENDBRANCH  24  25
ENDBRANCH   5  24
TORSDOF 5
