REMARK  Name = ZINC41585413
REMARK  8 active torsions:
REMARK  status: ('A' for Active; 'I' for Inactive)
REMARK    1  A    between atoms: C_1  and  C_2
REMARK    2  A    between atoms: C_2  and  N_3
REMARK    3  A    between atoms: C_5  and  C_12
REMARK    4  A    between atoms: C_17  and  C_38
REMARK    5  A    between atoms: C_19  and  O_37
REMARK    6  A    between atoms: C_20  and  C_23
REMARK    7  A    between atoms: C_23  and  N_24
REMARK    8  A    between atoms: N_27  and  C_30
REMARK                            x       y       z     vdW  Elec       q    Type
REMARK                         _______ _______ _______ _____ _____    ______ ____
ROOT
ATOM      1  C   UNL     1      -4.364  -1.773   1.679  0.00  0.00    +0.060 C 
ATOM      2  C   UNL     1      -4.105  -1.917   3.009  0.00  0.00    +0.176 C 
ATOM      3  C   UNL     1      -2.901  -1.544   3.664  0.00  0.00    +0.232 C 
ATOM      4  O   UNL     1      -1.909  -1.042   3.162  0.00  0.00    -0.283 OA
ATOM      5  C   UNL     1      -3.108  -1.895   5.080  0.00  0.00    +0.071 A 
ATOM      6  C   UNL     1      -2.316  -1.784   6.223  0.00  0.00    -0.033 A 
ATOM      7  C   UNL     1      -2.799  -2.209   7.428  0.00  0.00    +0.050 A 
ATOM      8  C   UNL     1      -4.077  -2.753   7.519  0.00  0.00    +0.122 A 
ATOM      9  C   UNL     1      -4.875  -2.869   6.393  0.00  0.00    +0.020 A 
ATOM     10  C   UNL     1      -4.399  -2.442   5.160  0.00  0.00    +0.145 A 
ATOM     11  O   UNL     1      -4.953  -2.433   3.929  0.00  0.00    -0.451 OA
ATOM     12  C   UNL     1      -0.932  -1.197   6.128  0.00  0.00    +0.045 C 
ENDROOT
BRANCH   1  15
ATOM     13  N   UNL     1      -1.304  -1.148  -0.208  0.00  0.00    -0.346 N 
ATOM     14  C   UNL     1      -1.981  -1.751   0.799  0.00  0.00    +0.094 A 
ATOM     15  C   UNL     1      -3.301  -1.355   0.768  0.00  0.00    +0.004 A 
ATOM     16  C   UNL     1      -3.426  -0.424  -0.371  0.00  0.00    +0.007 A 
ATOM     17  C   UNL     1      -2.144  -0.331  -0.937  0.00  0.00    +0.050 A 
ATOM     18  C   UNL     1      -1.945   0.491  -2.041  0.00  0.00    +0.026 A 
ATOM     19  C   UNL     1      -3.000   1.206  -2.566  0.00  0.00    +0.002 A 
ATOM     20  C   UNL     1      -4.264   1.116  -2.003  0.00  0.00    +0.001 A 
ATOM     21  C   UNL     1      -4.483   0.301  -0.913  0.00  0.00    +0.010 A 
BRANCH  13  23
ATOM     22  C   UNL     1       0.922  -0.220   0.199  0.00  0.00    +0.027 C 
ATOM     23  C   UNL     1       0.124  -1.333  -0.482  0.00  0.00    +0.118 C 
ENDBRANCH  13  23
ENDBRANCH   1  15
BRANCH   8  24
ATOM     24  O   UNL     1      -4.546  -3.173   8.722  0.00  0.00    -0.506 OA
ATOM     25  H   UNL     1      -5.013  -2.490   9.223  0.00  0.00    +0.292 HD
ENDBRANCH   8  24
BRANCH   9  26
ATOM     26  C   UNL     1      -6.257  -3.460   6.504  0.00  0.00    -0.035 C 
BRANCH  26  27
ATOM     27  N   UNL     1      -7.226  -2.391   6.779  0.00  0.00    +0.385 N 
ATOM     28  C   UNL     1      -6.939  -1.797   8.091  0.00  0.00    -0.059 C 
ATOM     29  C   UNL     1      -7.875  -0.608   8.328  0.00  0.00    +0.086 C 
ATOM     30  N   UNL     1      -9.263  -1.066   8.159  0.00  0.00    -0.331 N 
ATOM     31  C   UNL     1      -9.602  -1.817   6.940  0.00  0.00    +0.086 C 
ATOM     32  C   UNL     1      -8.584  -2.949   6.768  0.00  0.00    -0.059 C 
ATOM     33  H   UNL     1      -7.151  -1.680   6.067  0.00  0.00    -0.081 HD
BRANCH  30  34
ATOM     34  C   UNL     1     -10.233  -0.796   9.130  0.00  0.00    +0.065 A 
ATOM     35  C   UNL     1     -10.991   0.365   9.052  0.00  0.00    +0.026 A 
ATOM     36  C   UNL     1     -11.948   0.629  10.012  0.00  0.00    +0.002 A 
ATOM     37  C   UNL     1     -12.152  -0.261  11.051  0.00  0.00    +0.003 A 
ATOM     38  C   UNL     1     -11.399  -1.418  11.133  0.00  0.00    +0.040 A 
ATOM     39  C   UNL     1     -10.444  -1.692  10.172  0.00  0.00    +0.144 A 
ATOM     40  F   UNL     1      -9.712  -2.825  10.249  0.00  0.00    -0.204 F 
ENDBRANCH  30  34
ENDBRANCH  26  27
ENDBRANCH   9  26
TORSDOF 6
