REMARK  Name = ZINC63363078
REMARK  8 active torsions:
REMARK  status: ('A' for Active; 'I' for Inactive)
REMARK    1  A    between atoms: C_1  and  C_2
REMARK    2  A    between atoms: C_2  and  O_3
REMARK    3  A    between atoms: O_3  and  C_4
REMARK    4  A    between atoms: C_7  and  N_10
REMARK    5  A    between atoms: C_13  and  C_38
REMARK    6  A    between atoms: C_24  and  C_30
REMARK    7  A    between atoms: C_35  and  O_36
REMARK    8  A    between atoms: O_36  and  C_37
REMARK                            x       y       z     vdW  Elec       q    Type
REMARK                         _______ _______ _______ _____ _____    ______ ____
ROOT
ATOM      1  N   UNL     1      -1.989  -5.992  -0.010  0.00  0.00    -0.192 N 
ATOM      2  C   UNL     1      -3.182  -6.614   0.085  0.00  0.00    +0.253 C 
ATOM      3  O   UNL     1      -4.270  -6.094   0.215  0.00  0.00    -0.272 OA
ATOM      4  C   UNL     1      -2.882  -8.094  -0.005  0.00  0.00    +0.137 C 
ATOM      5  C   UNL     1      -3.313  -8.799   1.286  0.00  0.00    +0.139 C 
ATOM      6  C   UNL     1      -2.516 -10.096   1.357  0.00  0.00    -0.027 C 
ATOM      7  C   UNL     1      -3.409 -11.079   1.434  0.00  0.00    -0.000 A 
ATOM      8  C   UNL     1      -3.249 -12.534   1.583  0.00  0.00    +0.010 A 
ATOM      9  C   UNL     1      -4.396 -13.262   1.618  0.00  0.00    +0.001 A 
ATOM     10  C   UNL     1      -5.670 -12.695   1.521  0.00  0.00    +0.002 A 
ATOM     11  C   UNL     1      -5.910 -11.366   1.386  0.00  0.00    +0.026 A 
ATOM     12  C   UNL     1      -4.782 -10.497   1.341  0.00  0.00    +0.043 A 
ATOM     13  N   UNL     1      -4.724  -9.190   1.236  0.00  0.00    -0.375 N 
ATOM     14  C   UNL     1      -1.010 -10.149   1.276  0.00  0.00    +0.069 C 
ATOM     15  C   UNL     1      -0.595  -9.359   0.018  0.00  0.00    +0.123 C 
ATOM     16  N   UNL     1      -1.403  -8.137  -0.044  0.00  0.00    -0.268 N 
ATOM     17  C   UNL     1      -0.981  -6.868  -0.117  0.00  0.00    +0.317 C 
ATOM     18  O   UNL     1       0.182  -6.548  -0.259  0.00  0.00    -0.252 OA
ATOM     19  C   UNL     1      -3.508  -8.729  -1.249  0.00  0.00    +0.044 C 
ATOM     20  H   UNL     1      -5.476  -8.586   1.139  0.00  0.00    +0.160 HD
ENDROOT
BRANCH   1  24
ATOM     21  C   UNL     1      -1.498  -1.849   0.006  0.00  0.00    +0.121 A 
ATOM     22  C   UNL     1      -0.387  -2.679   0.021  0.00  0.00    +0.047 A 
ATOM     23  C   UNL     1      -0.549  -4.050   0.015  0.00  0.00    +0.027 A 
ATOM     24  C   UNL     1      -1.824  -4.598  -0.004  0.00  0.00    +0.046 A 
ATOM     25  C   UNL     1      -2.936  -3.767  -0.018  0.00  0.00    +0.027 A 
ATOM     26  C   UNL     1      -2.773  -2.396  -0.008  0.00  0.00    +0.047 A 
BRANCH  21  27
ATOM     27  O   UNL     1      -1.339  -0.499   0.012  0.00  0.00    -0.492 OA
BRANCH  27  29
ATOM     28  C   UNL     1      -0.019   1.526   0.031  0.00  0.00    +0.048 C 
ATOM     29  C   UNL     1       0.002  -0.004   0.027  0.00  0.00    +0.225 C 
ENDBRANCH  27  29
ENDBRANCH  21  27
ENDBRANCH   1  24
BRANCH  14  30
ATOM     30  C   UNL     1      -0.552 -11.579   1.160  0.00  0.00    +0.003 A 
ATOM     31  C   UNL     1      -0.959 -12.352   0.089  0.00  0.00    +0.008 A 
ATOM     32  C   UNL     1      -0.539 -13.665  -0.017  0.00  0.00    +0.001 A 
ATOM     33  C   UNL     1       0.290 -14.208   0.948  0.00  0.00    +0.004 A 
ATOM     34  C   UNL     1       0.700 -13.440   2.020  0.00  0.00    +0.046 A 
ATOM     35  C   UNL     1       0.284 -12.120   2.126  0.00  0.00    +0.124 A 
BRANCH  35  36
ATOM     36  O   UNL     1       0.691 -11.361   3.177  0.00  0.00    -0.495 OA
ATOM     37  C   UNL     1       1.551 -11.984   4.133  0.00  0.00    +0.277 C 
ENDBRANCH  35  36
ENDBRANCH  14  30
TORSDOF 5
