REMARK  Name = ZINC39710299
REMARK  12 active torsions:
REMARK  status: ('A' for Active; 'I' for Inactive)
REMARK    1  A    between atoms: C_1  and  C_2
REMARK    2  A    between atoms: C_9  and  C_14
REMARK    3  A    between atoms: C_14  and  C_16
REMARK    4  A    between atoms: C_14  and  N_25
REMARK    5  A    between atoms: N_20  and  C_21
REMARK    6  A    between atoms: C_21  and  C_22
REMARK    7  A    between atoms: C_22  and  O_23
REMARK    8  A    between atoms: O_23  and  C_24
REMARK    9  A    between atoms: N_25  and  C_26
REMARK   10  A    between atoms: N_25  and  C_34
REMARK   11  A    between atoms: C_26  and  C_27
REMARK   12  A    between atoms: C_34  and  C_35
REMARK                            x       y       z     vdW  Elec       q    Type
REMARK                         _______ _______ _______ _____ _____    ______ ____
ROOT
ATOM      1  C   UNL     1       6.226  -3.452   0.922  0.00  0.00    +0.019 C 
ENDROOT
BRANCH   1  10
ATOM      2  C   UNL     1      13.368  -3.447   0.912  0.00  0.00    +0.044 C 
ATOM      3  C   UNL     1      12.023  -4.126   0.928  0.00  0.00    -0.050 A 
ATOM      4  C   UNL     1      11.919  -5.426   1.424  0.00  0.00    +0.005 A 
ATOM      5  C   UNL     1      10.741  -6.101   1.470  0.00  0.00    +0.024 A 
ATOM      6  C   UNL     1       9.555  -5.501   1.010  0.00  0.00    +0.040 A 
ATOM      7  N   UNL     1       8.405  -6.173   1.061  0.00  0.00    -0.285 N 
ATOM      8  C   UNL     1       7.255  -5.668   0.645  0.00  0.00    +0.223 C 
ATOM      9  O   UNL     1       6.237  -6.330   0.717  0.00  0.00    -0.275 OA
ATOM     10  C   UNL     1       7.211  -4.266   0.081  0.00  0.00    +0.092 C 
ATOM     11  C   UNL     1       8.517  -3.498   0.021  0.00  0.00    -0.006 C 
ATOM     12  C   UNL     1       9.635  -4.128   0.481  0.00  0.00    -0.007 A 
ATOM     13  C   UNL     1      10.935  -3.457   0.465  0.00  0.00    +0.012 A 
ATOM     14  H   UNL     1       8.412  -7.074   1.420  0.00  0.00    +0.155 HD
ENDBRANCH   1  10
BRANCH   1  15
ATOM     15  C   UNL     1       6.606  -3.552   2.377  0.00  0.00    +0.139 A 
ATOM     16  N   UNL     1       6.195  -4.455   3.233  0.00  0.00    -0.115 NA
ATOM     17  N   UNL     1       6.742  -4.202   4.372  0.00  0.00    -0.023 NA
ATOM     18  N   UNL     1       7.492  -3.161   4.264  0.00  0.00    -0.044 NA
ATOM     19  N   UNL     1       7.439  -2.735   3.048  0.00  0.00    -0.229 N 
BRANCH  19  20
ATOM     20  C   UNL     1       8.149  -1.576   2.501  0.00  0.00    +0.175 C 
BRANCH  20  21
ATOM     21  C   UNL     1       9.608  -1.609   2.959  0.00  0.00    +0.183 C 
BRANCH  21  22
ATOM     22  O   UNL     1      10.286  -0.448   2.474  0.00  0.00    -0.381 OA
ATOM     23  C   UNL     1      11.664  -0.381   2.849  0.00  0.00    +0.194 C 
ENDBRANCH  21  22
ENDBRANCH  20  21
ENDBRANCH  19  20
ENDBRANCH   1  15
BRANCH   1  24
ATOM     24  N   UNL     1       4.868  -3.980   0.734  0.00  0.00    +0.394 N 
ATOM     25  H   UNL     1       4.837  -4.943   1.034  0.00  0.00    -0.080 HD
BRANCH  24  26
ATOM     26  C   UNL     1       3.920  -3.188   1.529  0.00  0.00    -0.040 C 
BRANCH  26  27
ATOM     27  C   UNL     1       3.241  -4.080   2.535  0.00  0.00    -0.046 A 
ATOM     28  C   UNL     1       2.760  -5.318   2.149  0.00  0.00    +0.003 A 
ATOM     29  C   UNL     1       2.137  -6.136   3.072  0.00  0.00    +0.000 A 
ATOM     30  C   UNL     1       1.994  -5.718   4.382  0.00  0.00    +0.001 A 
ATOM     31  C   UNL     1       2.473  -4.481   4.769  0.00  0.00    +0.020 A 
ATOM     32  C   UNL     1       3.103  -3.664   3.847  0.00  0.00    +0.042 A 
ATOM     33 CL   UNL     1       3.711  -2.113   4.334  0.00  0.00    -0.083 Cl
ENDBRANCH  26  27
ENDBRANCH  24  26
BRANCH  24  34
ATOM     34  C   UNL     1       4.504  -3.898  -0.687  0.00  0.00    -0.002 C 
BRANCH  34  35
ATOM     35  C   UNL     1       4.736  -5.235  -1.343  0.00  0.00    +0.089 A 
ATOM     36  C   UNL     1       3.858  -6.252  -1.389  0.00  0.00    +0.042 A 
ATOM     37  C   UNL     1       4.485  -7.304  -2.096  0.00  0.00    +0.041 A 
ATOM     38  C   UNL     1       5.709  -6.866  -2.440  0.00  0.00    +0.195 A 
ATOM     39  O   UNL     1       5.854  -5.610  -1.987  0.00  0.00    -0.470 OA
ENDBRANCH  34  35
ENDBRANCH  24  34
ENDBRANCH   1  24
TORSDOF 10
