REMARK  Name = ZINC03595088
REMARK  9 active torsions:
REMARK  status: ('A' for Active; 'I' for Inactive)
REMARK    1  A    between atoms: C_1  and  C_2
REMARK    2  A    between atoms: C_2  and  C_3
REMARK    3  A    between atoms: C_2  and  C_4
REMARK    4  A    between atoms: C_4  and  C_5
REMARK    5  A    between atoms: C_5  and  N_6
REMARK    6  A    between atoms: C_10  and  C_12
REMARK    7  A    between atoms: C_12  and  N_13
REMARK    8  A    between atoms: C_16  and  C_20
REMARK    9  A    between atoms: C_16  and  C_21
REMARK                            x       y       z     vdW  Elec       q    Type
REMARK                         _______ _______ _______ _____ _____    ______ ____
ROOT
ATOM      1  N   UNL     1      -8.486  -0.771  -4.596  0.00  0.00    -0.215 N 
ATOM      2  C   UNL     1      -9.174   0.376  -4.761  0.00  0.00    +0.251 C 
ATOM      3  O   UNL     1      -9.347   1.251  -3.939  0.00  0.00    -0.272 OA
ATOM      4  C   UNL     1      -9.686   0.346  -6.187  0.00  0.00    +0.136 C 
ATOM      5  N   UNL     1      -9.179  -0.935  -6.710  0.00  0.00    -0.281 N 
ATOM      6  C   UNL     1      -8.488  -1.511  -5.710  0.00  0.00    +0.310 C 
ATOM      7  O   UNL     1      -7.930  -2.587  -5.808  0.00  0.00    -0.252 OA
ATOM      8  C   UNL     1      -9.115   1.518  -6.989  0.00  0.00    +0.047 C 
ATOM      9  H   UNL     1      -9.315  -1.291  -7.602  0.00  0.00    +0.152 HD
ENDROOT
BRANCH   4  10
ATOM     10  C   UNL     1     -11.193   0.369  -6.211  0.00  0.00    +0.003 A 
ATOM     11  C   UNL     1     -11.891  -0.675  -6.787  0.00  0.00    +0.009 A 
ATOM     12  C   UNL     1     -13.273  -0.654  -6.809  0.00  0.00    +0.020 A 
ATOM     13  C   UNL     1     -13.958   0.412  -6.253  0.00  0.00    +0.042 A 
ATOM     14  C   UNL     1     -13.259   1.457  -5.676  0.00  0.00    +0.040 A 
ATOM     15  C   UNL     1     -11.876   1.433  -5.651  0.00  0.00    +0.048 A 
ATOM     16 CL   UNL     1     -10.999   2.742  -4.921  0.00  0.00    -0.083 Cl
ATOM     17 CL   UNL     1     -15.693   0.438  -6.281  0.00  0.00    -0.083 Cl
ENDBRANCH   4  10
BRANCH   1  18
ATOM     18  C   UNL     1      -7.814  -1.156  -3.353  0.00  0.00    +0.214 C 
BRANCH  18  23
ATOM     19  N   UNL     1      -3.510  -0.638  -1.275  0.00  0.00    -0.299 N 
ATOM     20  C   UNL     1      -4.323  -0.403  -2.324  0.00  0.00    +0.306 C 
ATOM     21  O   UNL     1      -3.916   0.230  -3.279  0.00  0.00    -0.252 OA
ATOM     22  N   UNL     1      -5.587  -0.870  -2.315  0.00  0.00    -0.239 N 
ATOM     23  C   UNL     1      -6.400  -0.634  -3.364  0.00  0.00    +0.238 C 
ATOM     24  O   UNL     1      -5.994  -0.003  -4.316  0.00  0.00    -0.274 OA
ATOM     25  H   UNL     1      -3.834  -1.143  -0.513  0.00  0.00    +0.150 HD
ATOM     26  H   UNL     1      -5.912  -1.375  -1.553  0.00  0.00    +0.159 HD
BRANCH  19  27
ATOM     27  C   UNL     1      -2.135  -0.131  -1.286  0.00  0.00    +0.106 C 
BRANCH  27  28
ATOM     28  C   UNL     1      -1.433  -0.534   0.013  0.00  0.00    +0.022 C 
BRANCH  28  30
ATOM     29  C   UNL     1      -0.019   1.526   0.010  0.00  0.00    +0.007 C 
ATOM     30  C   UNL     1       0.002  -0.004   0.002  0.00  0.00    -0.016 C 
ATOM     31  C   UNL     1       0.742  -0.511   1.242  0.00  0.00    +0.007 C 
ENDBRANCH  28  30
ENDBRANCH  27  28
ENDBRANCH  19  27
ENDBRANCH  18  23
ENDBRANCH   1  18
TORSDOF 6
