REMARK  Name = ZINC21966761
REMARK  10 active torsions:
REMARK  status: ('A' for Active; 'I' for Inactive)
REMARK    1  A    between atoms: C_1  and  N_2
REMARK    2  A    between atoms: N_2  and  C_3
REMARK    3  A    between atoms: N_2  and  C_4
REMARK    4  A    between atoms: C_4  and  C_5
REMARK    5  A    between atoms: C_5  and  C_6
REMARK    6  A    between atoms: C_6  and  N_7
REMARK    7  A    between atoms: C_16  and  S_17
REMARK    8  A    between atoms: S_17  and  C_18
REMARK    9  A    between atoms: C_18  and  C_19
REMARK   10  A    between atoms: N_21  and  C_22
REMARK                            x       y       z     vdW  Elec       q    Type
REMARK                         _______ _______ _______ _____ _____    ______ ____
ROOT
ATOM      1  N   UNL     1      -0.708   1.565   1.206  0.00  0.00    -0.287 N 
ATOM      2  C   UNL     1      -1.686   0.815   1.746  0.00  0.00    +0.263 A 
ATOM      3  O   UNL     1      -1.997  -0.252   1.243  0.00  0.00    -0.267 OA
ATOM      4  C   UNL     1      -2.358   1.287   2.918  0.00  0.00    +0.076 A 
ATOM      5  C   UNL     1      -3.439   0.642   3.665  0.00  0.00    -0.023 A 
ATOM      6  C   UNL     1      -3.908   1.294   4.748  0.00  0.00    -0.004 A 
ATOM      7  S   UNL     1      -2.953   2.784   4.838  0.00  0.00    -0.073 S 
ATOM      8  C   UNL     1      -1.923   2.526   3.416  0.00  0.00    +0.117 A 
ATOM      9  N   UNL     1      -0.949   3.218   2.836  0.00  0.00    -0.216 NA
ATOM     10  C   UNL     1      -0.344   2.758   1.759  0.00  0.00    +0.173 A 
ATOM     11  C   UNL     1      -5.001   0.850   5.672  0.00  0.00    +0.043 C 
ATOM     12  C   UNL     1      -5.773  -0.292   4.996  0.00  0.00    +0.005 C 
ATOM     13  C   UNL     1      -4.767  -1.307   4.447  0.00  0.00    +0.005 C 
ATOM     14  C   UNL     1      -4.023  -0.707   3.253  0.00  0.00    +0.037 C 
ENDROOT
BRANCH   1  15
ATOM     15  C   UNL     1      -0.016   1.087   0.007  0.00  0.00    +0.125 C 
BRANCH  15  16
ATOM     16  C   UNL     1      -0.746   1.594  -1.239  0.00  0.00    +0.003 C 
BRANCH  16  17
ATOM     17  C   UNL     1      -0.023   1.095  -2.492  0.00  0.00    -0.078 C 
BRANCH  17  19
ATOM     18  C   UNL     1       0.064   1.327  -4.901  0.00  0.00    -0.097 C 
ATOM     19  N   UNL     1      -0.725   1.582  -3.688  0.00  0.00    +0.376 N 
ATOM     20  C   UNL     1      -2.062   0.982  -3.794  0.00  0.00    -0.097 C 
ATOM     21  H   UNL     1      -0.849   2.670  -3.587  0.00  0.00    -0.083 HD
ENDBRANCH  17  19
ENDBRANCH  16  17
ENDBRANCH  15  16
ENDBRANCH   1  15
BRANCH  10  22
ATOM     22  S   UNL     1       0.949   3.700   1.020  0.00  0.00    -0.078 S 
BRANCH  22  23
ATOM     23  C   UNL     1       0.984   5.120   2.142  0.00  0.00    +0.173 C 
BRANCH  23  24
ATOM     24  C   UNL     1       2.047   6.089   1.692  0.00  0.00    +0.227 C 
ATOM     25  O   UNL     1       2.715   5.844   0.710  0.00  0.00    -0.275 OA
ATOM     26  N   UNL     1       2.256   7.228   2.381  0.00  0.00    -0.285 N 
ATOM     27  H   UNL     1       1.601   7.487   3.226  0.00  0.00    +0.155 HD
BRANCH  26  28
ATOM     28  C   UNL     1       3.307   8.082   2.022  0.00  0.00    +0.036 A 
ATOM     29  C   UNL     1       3.996   8.785   3.001  0.00  0.00    +0.026 A 
ATOM     30  C   UNL     1       5.036   9.623   2.647  0.00  0.00    +0.043 A 
ATOM     31  C   UNL     1       5.385   9.770   1.315  0.00  0.00    +0.159 A 
ATOM     32  C   UNL     1       4.695   9.072   0.335  0.00  0.00    +0.160 A 
ATOM     33  C   UNL     1       3.657   8.229   0.687  0.00  0.00    +0.064 A 
ATOM     34  F   UNL     1       5.037   9.217  -0.964  0.00  0.00    -0.202 F 
ATOM     35  F   UNL     1       6.399  10.593   0.971  0.00  0.00    -0.202 F 
ENDBRANCH  26  28
ENDBRANCH  23  24
ENDBRANCH  22  23
ENDBRANCH  10  22
TORSDOF 8
