REMARK  Name = ZINC02857596
REMARK  9 active torsions:
REMARK  status: ('A' for Active; 'I' for Inactive)
REMARK    1  A    between atoms: C_1  and  C_2
REMARK    2  A    between atoms: C_7  and  N_8
REMARK    3  A    between atoms: C_9  and  C_11
REMARK    4  A    between atoms: C_11  and  S_12
REMARK    5  A    between atoms: S_12  and  C_13
REMARK    6  A    between atoms: C_16  and  C_21
REMARK    7  A    between atoms: N_17  and  C_18
REMARK    8  A    between atoms: C_18  and  C_19
REMARK    9  A    between atoms: C_26  and  O_27
REMARK                            x       y       z     vdW  Elec       q    Type
REMARK                         _______ _______ _______ _____ _____    ______ ____
ROOT
ATOM      1  C   UNL     1      -0.304  -0.112   7.694  0.00  0.00    +0.193 A 
ATOM      2  N   UNL     1      -0.517   1.185   7.704  0.00  0.00    -0.122 NA
ATOM      3  N   UNL     1      -0.658   1.600   8.912  0.00  0.00    -0.128 NA
ATOM      4  C   UNL     1      -0.544   0.594   9.748  0.00  0.00    +0.169 A 
ATOM      5  N   UNL     1      -0.319  -0.534   8.993  0.00  0.00    -0.298 N 
ENDROOT
BRANCH   4   6
ATOM      6  C   UNL     1      -0.643   0.660  11.220  0.00  0.00    +0.061 A 
ATOM      7  C   UNL     1      -1.449  -0.247  11.911  0.00  0.00    +0.015 A 
ATOM      8  C   UNL     1      -1.537  -0.180  13.286  0.00  0.00    +0.001 A 
ATOM      9  C   UNL     1      -0.831   0.783  13.984  0.00  0.00    +0.004 A 
ATOM     10  C   UNL     1      -0.030   1.687  13.312  0.00  0.00    +0.046 A 
ATOM     11  C   UNL     1       0.075   1.629  11.931  0.00  0.00    +0.128 A 
BRANCH  11  12
ATOM     12  O   UNL     1       0.867   2.513  11.270  0.00  0.00    -0.506 OA
ATOM     13  H   UNL     1       0.414   3.326  11.007  0.00  0.00    +0.292 HD
ENDBRANCH  11  12
ENDBRANCH   4   6
BRANCH   1  14
ATOM     14  S   UNL     1      -0.053  -1.118   6.270  0.00  0.00    -0.077 S 
BRANCH  14  15
ATOM     15  C   UNL     1      -0.152   0.049   4.884  0.00  0.00    +0.173 C 
BRANCH  15  17
ATOM     16  N   UNL     1       0.016  -0.025   2.417  0.00  0.00    -0.285 N 
ATOM     17  C   UNL     1       0.049  -0.693   3.588  0.00  0.00    +0.227 C 
ATOM     18  O   UNL     1       0.239  -1.891   3.597  0.00  0.00    -0.275 OA
ATOM     19  H   UNL     1      -0.071   0.941   2.413  0.00  0.00    +0.155 HD
BRANCH  16  26
ATOM     20  C   UNL     1      -1.239   1.088   0.119  0.00  0.00    +0.046 C 
ATOM     21  C   UNL     1      -0.489  -0.218   0.064  0.00  0.00    -0.028 A 
ATOM     22  C   UNL     1      -0.392  -0.909  -1.129  0.00  0.00    +0.019 A 
ATOM     23  C   UNL     1       0.296  -2.107  -1.181  0.00  0.00    +0.014 A 
ATOM     24  C   UNL     1       0.889  -2.618  -0.039  0.00  0.00    +0.016 A 
ATOM     25  C   UNL     1       0.794  -1.932   1.155  0.00  0.00    +0.024 A 
ATOM     26  C   UNL     1       0.109  -0.726   1.209  0.00  0.00    +0.036 A 
ATOM     27  I   UNL     1       0.441  -3.152  -2.991  0.00  0.00    -0.044 I 
ENDBRANCH  16  26
ENDBRANCH  15  17
ENDBRANCH  14  15
ENDBRANCH   1  14
BRANCH   5  28
ATOM     28  C   UNL     1      -0.131  -1.903   9.481  0.00  0.00    +0.152 C 
BRANCH  28  29
ATOM     29  C   UNL     1       1.342  -2.185   9.632  0.00  0.00    -0.013 C 
ATOM     30  C   UNL     1       1.814  -2.601  10.781  0.00  0.00    +0.005 C 
ENDBRANCH  28  29
ENDBRANCH   5  28
TORSDOF 8
