REMARK  Name = ZINC35123707
REMARK  5 active torsions:
REMARK  status: ('A' for Active; 'I' for Inactive)
REMARK    1  A    between atoms: C_1  and  O_2
REMARK    2  A    between atoms: O_2  and  C_3
REMARK    3  A    between atoms: C_3  and  C_5
REMARK    4  A    between atoms: C_9  and  C_20
REMARK    5  A    between atoms: C_12  and  C_14
REMARK                            x       y       z     vdW  Elec       q    Type
REMARK                         _______ _______ _______ _____ _____    ______ ____
ROOT
ATOM      1  C   UNL     1       3.889  -3.221  -1.975  0.00  0.00    +0.195 C 
ATOM      2  C   UNL     1       4.012  -4.768  -1.847  0.00  0.00    +0.105 C 
ATOM      3  S   UNL     1       4.082  -5.183  -3.648  0.00  0.00    -0.136 S 
ATOM      4  C   UNL     1       3.041  -3.785  -4.248  0.00  0.00    +0.138 C 
ATOM      5  N   UNL     1       3.027  -2.862  -3.098  0.00  0.00    -0.275 N 
ATOM      6  C   UNL     1       2.265  -1.751  -3.086  0.00  0.00    +0.220 C 
ATOM      7  O   UNL     1       1.169  -1.761  -3.605  0.00  0.00    -0.275 OA
ENDROOT
BRANCH   6   8
ATOM      8  C   UNL     1       2.774  -0.495  -2.427  0.00  0.00    +0.075 C 
ATOM      9  C   UNL     1       1.623   0.500  -2.265  0.00  0.00    +0.013 C 
ATOM     10  C   UNL     1       2.140   1.775  -1.596  0.00  0.00    +0.001 C 
ATOM     11  C   UNL     1       3.234   2.399  -2.465  0.00  0.00    +0.000 C 
ATOM     12  C   UNL     1       4.386   1.404  -2.627  0.00  0.00    +0.001 C 
ATOM     13  C   UNL     1       3.868   0.129  -3.296  0.00  0.00    +0.013 C 
ENDBRANCH   6   8
BRANCH   4  14
ATOM     14  C   UNL     1       3.678  -3.123  -5.472  0.00  0.00    +0.020 C 
ATOM     15  C   UNL     1       2.844  -1.909  -5.886  0.00  0.00    +0.006 C 
ATOM     16  C   UNL     1       3.481  -1.248  -7.110  0.00  0.00    +0.000 C 
ATOM     17  C   UNL     1       3.530  -2.251  -8.264  0.00  0.00    +0.000 C 
ATOM     18  C   UNL     1       4.364  -3.465  -7.850  0.00  0.00    +0.000 C 
ATOM     19  C   UNL     1       3.727  -4.127  -6.626  0.00  0.00    +0.006 C 
ENDBRANCH   4  14
BRANCH   1  20
ATOM     20  C   UNL     1       3.303  -2.664  -0.703  0.00  0.00    +0.328 C 
ATOM     21  O   UNL     1       2.345  -1.929  -0.750  0.00  0.00    -0.249 OA
BRANCH  20  23
ATOM     22  C   UNL     1       3.160  -2.534   1.652  0.00  0.00    +0.280 C 
ATOM     23  O   UNL     1       3.846  -2.984   0.482  0.00  0.00    -0.467 OA
ENDBRANCH  20  23
ENDBRANCH   1  20
TORSDOF 4
