REMARK  Name = ZINC09325345
REMARK  8 active torsions:
REMARK  status: ('A' for Active; 'I' for Inactive)
REMARK    1  A    between atoms: C_1  and  C_2
REMARK    2  A    between atoms: C_5  and  S_8
REMARK    3  A    between atoms: S_8  and  C_11
REMARK    4  A    between atoms: C_11  and  C_12
REMARK    5  A    between atoms: N_14  and  C_15
REMARK    6  A    between atoms: C_16  and  C_28
REMARK    7  A    between atoms: C_24  and  O_26
REMARK    8  A    between atoms: O_26  and  C_27
REMARK                            x       y       z     vdW  Elec       q    Type
REMARK                         _______ _______ _______ _____ _____    ______ ____
ROOT
ATOM      1  C   UNL     1       1.175   2.053   0.002  0.00  0.00    +0.084 A 
ATOM      2  C   UNL     1       1.359   3.428   0.002  0.00  0.00    +0.068 A 
ATOM      3  C   UNL     1       2.726   3.924  -0.005  0.00  0.00    -0.020 A 
ATOM      4  C   UNL     1       3.681   2.969  -0.018  0.00  0.00    +0.013 A 
ATOM      5  S   UNL     1       2.795   1.438  -0.018  0.00  0.00    -0.076 S 
ATOM      6  C   UNL     1       5.165   3.182  -0.028  0.00  0.00    +0.153 C 
ATOM      7  N   UNL     1       5.396   4.623  -0.254  0.00  0.00    -0.262 N 
ATOM      8  C   UNL     1       4.532   5.570   0.466  0.00  0.00    +0.116 C 
ATOM      9  C   UNL     1       3.086   5.405  -0.004  0.00  0.00    +0.056 C 
ATOM     10  C   UNL     1       6.363   5.053  -1.089  0.00  0.00    +0.403 C 
ATOM     11  O   UNL     1       6.534   6.244  -1.258  0.00  0.00    -0.226 OA
ENDROOT
BRANCH   2  12
ATOM     12  C   UNL     1       0.218   4.348   0.012  0.00  0.00    +0.244 C 
ATOM     13  O   UNL     1      -0.248   4.729   1.070  0.00  0.00    -0.270 OA
ATOM     14  N   UNL     1      -0.317   4.771  -1.151  0.00  0.00    -0.325 N 
ATOM     15  H   UNL     1       0.054   4.468  -1.994  0.00  0.00    +0.145 HD
ATOM     16  H   UNL     1      -1.072   5.380  -1.145  0.00  0.00    +0.145 HD
ENDBRANCH   2  12
BRANCH   1  19
ATOM     17  C   UNL     1       0.002  -0.004   0.002  0.00  0.00    +0.239 C 
ATOM     18  O   UNL     1       1.060  -0.596  -0.011  0.00  0.00    -0.274 OA
ATOM     19  N   UNL     1      -0.016   1.344   0.009  0.00  0.00    -0.278 N 
ATOM     20  H   UNL     1      -0.863   1.817   0.016  0.00  0.00    +0.155 HD
BRANCH  17  21
ATOM     21  C   UNL     1      -1.293  -0.775   0.010  0.00  0.00    +0.267 C 
BRANCH  21  22
ATOM     22  S   UNL     1      -0.937  -2.554  -0.003  0.00  0.00    +0.005 S 
ATOM     23  O   UNL     1      -0.357  -2.928  -1.245  0.00  0.00    -0.169 OA
ATOM     24  O   UNL     1      -0.334  -2.942   1.224  0.00  0.00    -0.169 OA
BRANCH  22  29
ATOM     25  C   UNL     1      -6.350  -5.219   0.035  0.00  0.00    +0.044 C 
ATOM     26  C   UNL     1      -4.998  -4.553   0.025  0.00  0.00    -0.050 A 
ATOM     27  C   UNL     1      -4.390  -4.241  -1.176  0.00  0.00    +0.005 A 
ATOM     28  C   UNL     1      -3.150  -3.631  -1.185  0.00  0.00    +0.027 A 
ATOM     29  C   UNL     1      -2.518  -3.332   0.008  0.00  0.00    +0.089 A 
ATOM     30  C   UNL     1      -3.124  -3.649   1.210  0.00  0.00    +0.027 A 
ATOM     31  C   UNL     1      -4.366  -4.255   1.218  0.00  0.00    +0.005 A 
ENDBRANCH  22  29
ENDBRANCH  21  22
ENDBRANCH  17  21
ENDBRANCH   1  19
BRANCH  10  32
ATOM     32  O   UNL     1       7.139   4.163  -1.736  0.00  0.00    -0.454 OA
ATOM     33  C   UNL     1       8.159   4.698  -2.620  0.00  0.00    +0.282 C 
ENDBRANCH  10  32
TORSDOF 6
