REMARK  Name = ZINC64435318
REMARK  5 active torsions:
REMARK  status: ('A' for Active; 'I' for Inactive)
REMARK    1  A    between atoms: C_3  and  O_24
REMARK    2  A    between atoms: C_6  and  C_7
REMARK    3  A    between atoms: C_7  and  C_8
REMARK    4  A    between atoms: C_14  and  C_17
REMARK    5  A    between atoms: O_24  and  C_25
REMARK                            x       y       z     vdW  Elec       q    Type
REMARK                         _______ _______ _______ _____ _____    ______ ____
ROOT
ATOM      1  C   UNL     1      -1.739  -1.023  -1.407  0.00  0.00    +0.156 A 
ATOM      2  N   UNL     1      -2.498  -0.242  -2.118  0.00  0.00    -0.132 NA
ATOM      3  N   UNL     1      -2.695  -0.757  -3.281  0.00  0.00    -0.121 NA
ATOM      4  C   UNL     1      -2.083  -1.898  -3.356  0.00  0.00    +0.210 A 
ATOM      5  N   UNL     1      -1.408  -2.119  -2.183  0.00  0.00    -0.224 N 
ATOM      6  N   UNL     1      -0.633  -3.234  -2.062  0.00  0.00    -0.265 N 
ATOM      7  C   UNL     1      -0.972  -4.340  -2.998  0.00  0.00    +0.183 C 
ATOM      8  S   UNL     1      -1.730  -3.335  -4.346  0.00  0.00    -0.058 S 
ATOM      9  H   UNL     1       0.347  -3.001  -2.118  0.00  0.00    +0.168 HD
ENDROOT
BRANCH   7  10
ATOM     10  C   UNL     1       0.280  -5.079  -3.473  0.00  0.00    +0.198 C 
ATOM     11  C   UNL     1      -0.092  -6.239  -4.379  0.00  0.00    +0.044 C 
ATOM     12  C   UNL     1       0.363  -7.314  -3.728  0.00  0.00    +0.147 C 
ATOM     13  N   UNL     1       0.952  -6.957  -2.567  0.00  0.00    -0.161 NA
ATOM     14  N   UNL     1       0.955  -5.740  -2.343  0.00  0.00    -0.176 NA
ATOM     15 BR   UNL     1      -0.992  -6.178  -6.041  0.00  0.00    -0.051 Br
ENDBRANCH   7  10
BRANCH   1  16
ATOM     16  C   UNL     1      -1.293  -0.774   0.011  0.00  0.00    +0.113 C 
BRANCH  16  22
ATOM     17  C   UNL     1      -0.017   1.378   0.010  0.00  0.00    +0.007 A 
ATOM     18  C   UNL     1       1.169   2.087   0.002  0.00  0.00    +0.046 A 
ATOM     19  C   UNL     1       2.380   1.409  -0.013  0.00  0.00    +0.130 A 
ATOM     20  C   UNL     1       2.396   0.022  -0.021  0.00  0.00    +0.046 A 
ATOM     21  C   UNL     1       1.207  -0.681  -0.013  0.00  0.00    +0.007 A 
ATOM     22  C   UNL     1       0.002  -0.004   0.002  0.00  0.00    -0.040 A 
BRANCH  19  23
ATOM     23  O   UNL     1       3.548   2.104  -0.021  0.00  0.00    -0.406 OA
BRANCH  23  24
ATOM     24  C   UNL     1       4.756   1.341  -0.036  0.00  0.00    +0.575 C 
ATOM     25  F   UNL     1       4.787   0.540  -1.183  0.00  0.00    -0.133 F 
ATOM     26  F   UNL     1       5.855   2.207  -0.043  0.00  0.00    -0.133 F 
ATOM     27  F   UNL     1       4.810   0.528   1.101  0.00  0.00    -0.133 F 
ENDBRANCH  23  24
ENDBRANCH  19  23
ENDBRANCH  16  22
ENDBRANCH   1  16
TORSDOF 5
