REMARK  Name = ZINC01283970
REMARK  10 active torsions:
REMARK  status: ('A' for Active; 'I' for Inactive)
REMARK    1  A    between atoms: C_1  and  C_2
REMARK    2  A    between atoms: C_9  and  N_14
REMARK    3  A    between atoms: C_10  and  C_11
REMARK    4  A    between atoms: C_15  and  C_17
REMARK    5  A    between atoms: C_17  and  C_18
REMARK    6  A    between atoms: C_18  and  C_19
REMARK    7  A    between atoms: C_21  and  O_28
REMARK    8  A    between atoms: C_22  and  O_26
REMARK    9  A    between atoms: O_26  and  C_27
REMARK   10  A    between atoms: O_28  and  C_29
REMARK                            x       y       z     vdW  Elec       q    Type
REMARK                         _______ _______ _______ _____ _____    ______ ____
ROOT
ATOM      1  N   UNL     1       0.696  -5.847   2.434  0.00  0.00    -0.279 N 
ATOM      2  C   UNL     1       1.677  -6.096   3.324  0.00  0.00    +0.218 C 
ATOM      3  O   UNL     1       2.383  -5.191   3.716  0.00  0.00    -0.275 OA
ATOM      4  H   UNL     1       0.131  -6.571   2.120  0.00  0.00    +0.155 HD
ENDROOT
BRANCH   1  12
ATOM      5  C   UNL     1      -0.019   1.526   0.010  0.00  0.00    +0.008 C 
ATOM      6  C   UNL     1       0.002  -0.004   0.002  0.00  0.00    -0.009 C 
ATOM      7  C   UNL     1      -1.434  -0.537   0.019  0.00  0.00    +0.008 C 
ATOM      8  C   UNL     1      -1.433  -2.045  -0.237  0.00  0.00    +0.037 C 
ATOM      9  C   UNL     1      -0.464  -2.704   0.734  0.00  0.00    -0.023 A 
ATOM     10  C   UNL     1       0.485  -1.986   1.374  0.00  0.00    -0.004 A 
ATOM     11  S   UNL     1       1.343  -3.167   2.373  0.00  0.00    -0.077 S 
ATOM     12  C   UNL     1       0.492  -4.557   1.968  0.00  0.00    +0.084 A 
ATOM     13  C   UNL     1      -0.459  -4.119   1.061  0.00  0.00    +0.068 A 
ATOM     14  C   UNL     1       0.739  -0.515   1.248  0.00  0.00    +0.046 C 
BRANCH  13  15
ATOM     15  C   UNL     1      -1.421  -5.045   0.456  0.00  0.00    +0.244 C 
ATOM     16  O   UNL     1      -1.149  -5.611  -0.587  0.00  0.00    -0.270 OA
ATOM     17  N   UNL     1      -2.608  -5.271   1.055  0.00  0.00    -0.325 N 
ATOM     18  H   UNL     1      -2.825  -4.821   1.886  0.00  0.00    +0.145 HD
ATOM     19  H   UNL     1      -3.244  -5.884   0.655  0.00  0.00    +0.145 HD
ENDBRANCH  13  15
ENDBRANCH   1  12
BRANCH   2  20
ATOM     20  C   UNL     1       1.898  -7.498   3.830  0.00  0.00    +0.101 C 
BRANCH  20  21
ATOM     21  C   UNL     1       3.064  -7.504   4.821  0.00  0.00    +0.045 C 
BRANCH  21  22
ATOM     22  C   UNL     1       3.285  -8.906   5.327  0.00  0.00    -0.029 A 
ATOM     23  C   UNL     1       4.300  -9.680   4.795  0.00  0.00    +0.054 A 
ATOM     24  C   UNL     1       4.505 -10.969   5.260  0.00  0.00    +0.162 A 
ATOM     25  C   UNL     1       3.688 -11.482   6.263  0.00  0.00    +0.163 A 
ATOM     26  C   UNL     1       2.673 -10.702   6.793  0.00  0.00    +0.065 A 
ATOM     27  C   UNL     1       2.477  -9.414   6.328  0.00  0.00    +0.025 A 
ATOM     28 BR   UNL     1       1.096  -8.348   7.057  0.00  0.00    -0.050 Br
BRANCH  25  29
ATOM     29  O   UNL     1       3.885 -12.747   6.722  0.00  0.00    -0.491 OA
ATOM     30  C   UNL     1       3.008 -13.207   7.752  0.00  0.00    +0.277 C 
ENDBRANCH  25  29
BRANCH  24  31
ATOM     31  O   UNL     1       5.502 -11.732   4.736  0.00  0.00    -0.491 OA
ATOM     32  C   UNL     1       6.300 -11.140   3.709  0.00  0.00    +0.277 C 
ENDBRANCH  24  31
ENDBRANCH  21  22
ENDBRANCH  20  21
ENDBRANCH   2  20
TORSDOF 7
