REMARK  Name = ZINC40690700
REMARK  4 active torsions:
REMARK  status: ('A' for Active; 'I' for Inactive)
REMARK    1  A    between atoms: C_3  and  N_18
REMARK    2  A    between atoms: C_4  and  C_8
REMARK    3  A    between atoms: N_10  and  C_11
REMARK    4  A    between atoms: C_11  and  C_16
REMARK                            x       y       z     vdW  Elec       q    Type
REMARK                         _______ _______ _______ _____ _____    ______ ____
ROOT
ATOM      1  C   UNL     1       3.896  -0.229   0.145  0.00  0.00    +0.248 C 
ATOM      2  O   UNL     1       4.815   0.567   0.154  0.00  0.00    -0.270 OA
ATOM      3  N   UNL     1       4.149  -1.551   0.206  0.00  0.00    -0.293 N 
ATOM      4  H   UNL     1       3.415  -2.186   0.199  0.00  0.00    +0.151 HD
ENDROOT
BRANCH   1   8
ATOM      5  C   UNL     1      -0.113   1.162  -0.080  0.00  0.00    +0.040 A 
ATOM      6  C   UNL     1       0.806   1.550  -1.038  0.00  0.00    +0.036 A 
ATOM      7  C   UNL     1       2.109   1.102  -0.971  0.00  0.00    +0.138 A 
ATOM      8  C   UNL     1       2.501   0.255   0.068  0.00  0.00    +0.070 A 
ATOM      9  C   UNL     1       1.571  -0.134   1.032  0.00  0.00    +0.053 A 
ATOM     10  C   UNL     1       0.268   0.322   0.954  0.00  0.00    +0.124 A 
ATOM     11  F   UNL     1      -0.635  -0.053   1.886  0.00  0.00    -0.205 F 
BRANCH   7  12
ATOM     12  N   UNL     1       3.091   1.518  -1.998  0.00  0.00    +0.057 N 
ATOM     13  O   UNL     1       2.785   2.343  -2.826  0.00  0.00    -0.126 OA
ATOM     14  O   UNL     1       4.198   1.032  -2.008  0.00  0.00    -0.126 OA
ENDBRANCH   7  12
ENDBRANCH   1   8
BRANCH   3  15
ATOM     15  C   UNL     1       5.531  -2.030   0.282  0.00  0.00    +0.131 C 
ATOM     16  C   UNL     1       5.525  -3.556   0.203  0.00  0.00    +0.052 C 
ATOM     17  C   UNL     1       6.755  -4.140   0.953  0.00  0.00    +0.072 C 
ATOM     18  S   UNL     1       6.795  -3.003   2.408  0.00  0.00    -0.157 S 
ATOM     19  C   UNL     1       6.172  -1.485   1.573  0.00  0.00    +0.110 C 
BRANCH  15  20
ATOM     20  C   UNL     1       6.276  -1.504  -0.873  0.00  0.00    +0.089 C 
ATOM     21  N   UNL     1       6.851  -1.098  -1.765  0.00  0.00    -0.194 NA
ENDBRANCH  15  20
ENDBRANCH   3  15
TORSDOF 4
