REMARK  Name = ZINC50943558
REMARK  8 active torsions:
REMARK  status: ('A' for Active; 'I' for Inactive)
REMARK    1  A    between atoms: C_1  and  C_2
REMARK    2  A    between atoms: C_2  and  C_3
REMARK    3  A    between atoms: C_2  and  C_4
REMARK    4  A    between atoms: C_2  and  C_5
REMARK    5  A    between atoms: C_11  and  N_13
REMARK    6  A    between atoms: C_14  and  C_16
REMARK    7  A    between atoms: C_16  and  C_17
REMARK    8  A    between atoms: C_17  and  C_18
REMARK                            x       y       z     vdW  Elec       q    Type
REMARK                         _______ _______ _______ _____ _____    ______ ____
ROOT
ATOM      1  N   UNL     1       2.163   1.387  -1.333  0.00  0.00    -0.312 N 
ATOM      2  C   UNL     1       3.323   1.978  -0.984  0.00  0.00    +0.213 C 
ATOM      3  O   UNL     1       4.293   1.300  -0.719  0.00  0.00    -0.276 OA
ATOM      4  H   UNL     1       1.387   1.930  -1.546  0.00  0.00    +0.149 HD
ENDROOT
BRANCH   1  10
ATOM      5  C   UNL     1       0.643  -0.511  -1.073  0.00  0.00    +0.015 C 
ATOM      6  C   UNL     1       0.550  -2.037  -1.135  0.00  0.00    +0.006 C 
ATOM      7  C   UNL     1       0.927  -2.514  -2.539  0.00  0.00    +0.000 C 
ATOM      8  C   UNL     1       2.358  -2.077  -2.859  0.00  0.00    +0.002 C 
ATOM      9  C   UNL     1       2.451  -0.551  -2.797  0.00  0.00    +0.022 C 
ATOM     10  C   UNL     1       2.074  -0.074  -1.393  0.00  0.00    +0.077 C 
BRANCH   5  12
ATOM     11  C   UNL     1       0.195   1.495   0.348  0.00  0.00    +0.011 C 
ATOM     12  C   UNL     1       0.265  -0.034   0.331  0.00  0.00    -0.033 C 
ATOM     13  C   UNL     1       1.322  -0.507   1.331  0.00  0.00    +0.011 C 
ATOM     14  C   UNL     1      -1.098  -0.611   0.717  0.00  0.00    +0.011 C 
ENDBRANCH   5  12
ENDBRANCH   1  10
BRANCH   2  15
ATOM     15  C   UNL     1       3.414   3.481  -0.923  0.00  0.00    +0.096 C 
BRANCH  15  16
ATOM     16  C   UNL     1       4.828   3.889  -0.504  0.00  0.00    +0.012 C 
BRANCH  16  17
ATOM     17  C   UNL     1       4.921   5.415  -0.442  0.00  0.00    -0.014 C 
ATOM     18  C   UNL     1       4.741   5.997  -1.847  0.00  0.00    -0.016 C 
ATOM     19  C   UNL     1       4.914   7.516  -1.791  0.00  0.00    -0.082 C 
ATOM     20  N   UNL     1       6.256   7.841  -1.294  0.00  0.00    +0.379 N 
ATOM     21  C   UNL     1       6.411   7.349   0.081  0.00  0.00    -0.082 C 
ATOM     22  C   UNL     1       6.296   5.823   0.096  0.00  0.00    -0.016 C 
ATOM     23  H   UNL     1       6.948   7.406  -1.886  0.00  0.00    -0.086 HD
ATOM     24  H   UNL     1       6.386   8.842  -1.308  0.00  0.00    -0.086 HD
ENDBRANCH  16  17
ENDBRANCH  15  16
ENDBRANCH   2  15
TORSDOF 5
