REMARK  Name = ZINC21249001
REMARK  8 active torsions:
REMARK  status: ('A' for Active; 'I' for Inactive)
REMARK    1  A    between atoms: C_1  and  O_2
REMARK    2  A    between atoms: O_2  and  C_3
REMARK    3  A    between atoms: C_7  and  C_9
REMARK    4  A    between atoms: C_14  and  C_24
REMARK    5  A    between atoms: C_26  and  N_33
REMARK    6  A    between atoms: C_27  and  O_32
REMARK    7  A    between atoms: C_28  and  O_30
REMARK    8  A    between atoms: O_30  and  C_31
REMARK                            x       y       z     vdW  Elec       q    Type
REMARK                         _______ _______ _______ _____ _____    ______ ____
ROOT
ATOM      1  C   UNL     1       5.202   7.601  -0.477  0.00  0.00    +0.032 C 
ATOM      2  C   UNL     1       5.104   6.834  -1.795  0.00  0.00    +0.059 C 
ATOM      3  C   UNL     1       5.340   5.352  -1.551  0.00  0.00    +0.017 C 
ATOM      4  C   UNL     1       4.957   4.783  -0.396  0.00  0.00    +0.036 C 
ATOM      5  C   UNL     1       5.107   3.325  -0.034  0.00  0.00    +0.136 C 
ATOM      6  N   UNL     1       5.953   2.568  -0.932  0.00  0.00    -0.331 N 
ATOM      7  C   UNL     1       5.595   2.374  -2.266  0.00  0.00    +0.049 A 
ATOM      8  C   UNL     1       5.253   1.120  -2.747  0.00  0.00    +0.025 A 
ATOM      9  C   UNL     1       4.801   0.992  -4.049  0.00  0.00    +0.002 A 
ATOM     10  C   UNL     1       4.692   2.103  -4.865  0.00  0.00    +0.002 A 
ATOM     11  C   UNL     1       5.053   3.354  -4.394  0.00  0.00    +0.025 A 
ATOM     12  C   UNL     1       5.522   3.481  -3.098  0.00  0.00    +0.052 A 
ATOM     13  N   UNL     1       5.944   4.699  -2.576  0.00  0.00    -0.316 N 
ATOM     14  C   UNL     1       4.355   5.565   0.619  0.00  0.00    +0.163 C 
ATOM     15  O   UNL     1       4.005   5.021   1.647  0.00  0.00    -0.292 OA
ATOM     16  C   UNL     1       4.134   7.040   0.470  0.00  0.00    +0.088 C 
ATOM     17  H   UNL     1       6.895   2.135  -0.566  0.00  0.00    +0.147 HD
ATOM     18  H   UNL     1       6.834   5.131  -3.055  0.00  0.00    +0.152 HD
ENDROOT
BRANCH   1  23
ATOM     19  C   UNL     1       5.697  11.344  -0.631  0.00  0.00    +0.120 A 
ATOM     20  C   UNL     1       4.487  11.759  -1.168  0.00  0.00    +0.045 A 
ATOM     21  C   UNL     1       3.515  10.828  -1.479  0.00  0.00    +0.004 A 
ATOM     22  C   UNL     1       3.747   9.483  -1.255  0.00  0.00    +0.004 A 
ATOM     23  C   UNL     1       4.953   9.067  -0.720  0.00  0.00    -0.040 A 
ATOM     24  C   UNL     1       5.926   9.995  -0.403  0.00  0.00    +0.049 A 
BRANCH  19  26
ATOM     25  C   UNL     1       6.349  13.630  -0.581  0.00  0.00    +0.277 C 
ATOM     26  O   UNL     1       6.655  12.258  -0.324  0.00  0.00    -0.495 OA
ENDBRANCH  19  26
ENDBRANCH   1  23
BRANCH   5  27
ATOM     27  C   UNL     1       3.738   2.693  -0.020  0.00  0.00    -0.017 A 
ATOM     28  C   UNL     1       2.995   2.634  -1.184  0.00  0.00    +0.042 A 
ATOM     29  C   UNL     1       1.739   2.055  -1.177  0.00  0.00    +0.171 A 
ATOM     30  C   UNL     1       1.223   1.534  -0.001  0.00  0.00    +0.189 A 
ATOM     31  C   UNL     1       1.969   1.599   1.172  0.00  0.00    +0.164 A 
ATOM     32  C   UNL     1       3.229   2.175   1.156  0.00  0.00    +0.055 A 
BRANCH  29  33
ATOM     33  N   UNL     1       0.946   1.992  -2.425  0.00  0.00    +0.060 N 
ATOM     34  O   UNL     1       1.400   2.450  -3.458  0.00  0.00    -0.126 OA
ATOM     35  O   UNL     1      -0.160   1.482  -2.419  0.00  0.00    -0.126 OA
ENDBRANCH  29  33
BRANCH  31  36
ATOM     36  O   UNL     1       1.465   1.094   2.329  0.00  0.00    -0.491 OA
ATOM     37  C   UNL     1       2.286   1.197   3.494  0.00  0.00    +0.277 C 
ENDBRANCH  31  36
BRANCH  30  38
ATOM     38  O   UNL     1      -0.012   0.965   0.008  0.00  0.00    -0.502 OA
ATOM     39  H   UNL     1      -0.420   0.551   0.942  0.00  0.00    +0.292 HD
ENDBRANCH  30  38
ENDBRANCH   5  27
TORSDOF 6
