REMARK  Name = ZINC21224743
REMARK  10 active torsions:
REMARK  status: ('A' for Active; 'I' for Inactive)
REMARK    1  A    between atoms: C_1  and  C_2
REMARK    2  A    between atoms: C_2  and  O_3
REMARK    3  A    between atoms: O_3  and  C_4
REMARK    4  A    between atoms: C_7  and  C_13
REMARK    5  A    between atoms: C_9  and  O_10
REMARK    6  A    between atoms: O_10  and  C_11
REMARK    7  A    between atoms: C_11  and  C_12
REMARK    8  A    between atoms: C_18  and  C_23
REMARK    9  A    between atoms: C_26  and  O_29
REMARK   10  A    between atoms: O_29  and  C_30
REMARK                            x       y       z     vdW  Elec       q    Type
REMARK                         _______ _______ _______ _____ _____    ______ ____
ROOT
ATOM      1  C   UNL     1       4.972   4.048  -0.023  0.00  0.00    +0.136 C 
ATOM      2  C   UNL     1       5.408   4.262   1.406  0.00  0.00    +0.036 C 
ATOM      3  C   UNL     1       6.419   3.629   2.026  0.00  0.00    +0.017 C 
ATOM      4  C   UNL     1       6.761   3.952   3.470  0.00  0.00    +0.059 C 
ATOM      5  C   UNL     1       5.497   4.344   4.233  0.00  0.00    +0.032 C 
ATOM      6  C   UNL     1       4.894   5.571   3.538  0.00  0.00    +0.088 C 
ATOM      7  C   UNL     1       4.640   5.227   2.101  0.00  0.00    +0.163 C 
ATOM      8  O   UNL     1       3.743   5.798   1.511  0.00  0.00    -0.292 OA
ATOM      9  N   UNL     1       7.213   2.693   1.447  0.00  0.00    -0.316 N 
ATOM     10  C   UNL     1       6.759   1.627   0.680  0.00  0.00    +0.052 A 
ATOM     11  C   UNL     1       6.966   0.309   1.049  0.00  0.00    +0.025 A 
ATOM     12  C   UNL     1       6.592  -0.705   0.183  0.00  0.00    +0.002 A 
ATOM     13  C   UNL     1       6.017  -0.403  -1.038  0.00  0.00    +0.002 A 
ATOM     14  C   UNL     1       5.789   0.914  -1.398  0.00  0.00    +0.025 A 
ATOM     15  C   UNL     1       6.145   1.930  -0.526  0.00  0.00    +0.049 A 
ATOM     16  N   UNL     1       5.892   3.268  -0.823  0.00  0.00    -0.331 N 
ATOM     17  H   UNL     1       8.305   2.746   1.570  0.00  0.00    +0.152 HD
ATOM     18  H   UNL     1       6.404   3.730  -1.680  0.00  0.00    +0.147 HD
ENDROOT
BRANCH   1  22
ATOM     19  C   UNL     1       1.185   2.059   0.004  0.00  0.00    +0.162 A 
ATOM     20  C   UNL     1       2.311   1.419   0.496  0.00  0.00    +0.050 A 
ATOM     21  C   UNL     1       3.534   2.064   0.486  0.00  0.00    +0.009 A 
ATOM     22  C   UNL     1       3.637   3.349  -0.015  0.00  0.00    -0.019 A 
ATOM     23  C   UNL     1       2.517   3.994  -0.507  0.00  0.00    +0.055 A 
ATOM     24  C   UNL     1       1.290   3.350  -0.504  0.00  0.00    +0.162 A 
BRANCH  19  25
ATOM     25  O   UNL     1      -0.018   1.426   0.014  0.00  0.00    -0.489 OA
BRANCH  25  27
ATOM     26  C   UNL     1      -1.477  -0.445   0.473  0.00  0.00    +0.048 C 
ATOM     27  C   UNL     1      -0.049   0.100   0.546  0.00  0.00    +0.226 C 
ENDBRANCH  25  27
ENDBRANCH  19  25
BRANCH  24  28
ATOM     28  O   UNL     1       0.189   3.982  -0.993  0.00  0.00    -0.489 OA
BRANCH  28  29
ATOM     29  C   UNL     1       0.371   5.305  -1.500  0.00  0.00    +0.226 C 
ATOM     30  C   UNL     1      -0.968   5.848  -2.002  0.00  0.00    +0.048 C 
ENDBRANCH  28  29
ENDBRANCH  24  28
ENDBRANCH   1  22
BRANCH   5  31
ATOM     31  C   UNL     1       5.845   4.685   5.659  0.00  0.00    -0.043 A 
ATOM     32  C   UNL     1       6.729   5.713   5.926  0.00  0.00    +0.007 A 
ATOM     33  C   UNL     1       7.046   6.031   7.233  0.00  0.00    +0.046 A 
ATOM     34  C   UNL     1       6.485   5.310   8.277  0.00  0.00    +0.120 A 
ATOM     35  C   UNL     1       5.602   4.274   8.005  0.00  0.00    +0.046 A 
ATOM     36  C   UNL     1       5.284   3.964   6.697  0.00  0.00    +0.007 A 
BRANCH  34  37
ATOM     37  O   UNL     1       6.798   5.617   9.563  0.00  0.00    -0.495 OA
ATOM     38  C   UNL     1       7.714   6.695   9.767  0.00  0.00    +0.277 C 
ENDBRANCH  34  37
ENDBRANCH   5  31
TORSDOF 7
