REMARK  Name = ZINC13691621
REMARK  4 active torsions:
REMARK  status: ('A' for Active; 'I' for Inactive)
REMARK    1  A    between atoms: C_4  and  O_28
REMARK    2  A    between atoms: C_5  and  C_7
REMARK    3  A    between atoms: N_9  and  N_10
REMARK    4  A    between atoms: C_14  and  C_15
REMARK                            x       y       z     vdW  Elec       q    Type
REMARK                         _______ _______ _______ _____ _____    ______ ____
ROOT
ATOM      1  N   UNL     1      -4.036  -4.645   0.324  0.00  0.00    -0.169 N 
ATOM      2  C   UNL     1      -2.767  -4.286   0.230  0.00  0.00    +0.275 C 
ATOM      3  O   UNL     1      -1.868  -5.107   0.238  0.00  0.00    -0.267 OA
ATOM      4  C   UNL     1      -2.495  -2.839   0.114  0.00  0.00    +0.079 C 
ATOM      5  C   UNL     1      -1.308  -2.187   0.003  0.00  0.00    +0.030 C 
ATOM      6  S   UNL     1      -4.157  -2.182   0.167  0.00  0.00    -0.059 S 
ATOM      7  C   UNL     1      -5.029  -3.733   0.315  0.00  0.00    +0.138 C 
ATOM      8  S   UNL     1      -6.717  -3.997   0.426  0.00  0.00    -0.026 S 
ENDROOT
BRANCH   5   9
ATOM      9  C   UNL     1      -1.269  -0.723   0.061  0.00  0.00    +0.002 A 
ATOM     10  C   UNL     1      -2.337  -0.004   0.592  0.00  0.00    +0.010 A 
ATOM     11  C   UNL     1      -2.298   1.381   0.647  0.00  0.00    +0.001 A 
ATOM     12  C   UNL     1      -1.224   2.087   0.195  0.00  0.00    +0.010 A 
ATOM     13  C   UNL     1      -0.114   1.427  -0.358  0.00  0.00    +0.001 A 
ATOM     14  C   UNL     1      -0.105   0.013  -0.436  0.00  0.00    +0.078 A 
ATOM     15  N   UNL     1       0.945  -0.620  -0.954  0.00  0.00    -0.254 NA
ATOM     16  C   UNL     1       1.988   0.041  -1.400  0.00  0.00    +0.111 A 
ATOM     17  C   UNL     1       2.047   1.431  -1.353  0.00  0.00    +0.020 A 
ATOM     18  C   UNL     1       1.002   2.141  -0.835  0.00  0.00    +0.011 A 
ENDBRANCH   5   9
BRANCH   1  21
ATOM     19  C   UNL     1      -4.743  -6.509   1.625  0.00  0.00    +0.264 C 
ATOM     20  O   UNL     1      -4.814  -5.785   2.599  0.00  0.00    -0.269 OA
ATOM     21  N   UNL     1      -4.357  -6.004   0.437  0.00  0.00    -0.222 N 
ATOM     22  H   UNL     1      -4.300  -6.582  -0.341  0.00  0.00    +0.174 HD
BRANCH  19  27
ATOM     23  C   UNL     1      -5.317 -10.112   0.744  0.00  0.00    +0.001 A 
ATOM     24  C   UNL     1      -5.715 -10.632   1.966  0.00  0.00    +0.004 A 
ATOM     25  C   UNL     1      -5.798  -9.817   3.077  0.00  0.00    +0.046 A 
ATOM     26  C   UNL     1      -5.483  -8.470   2.977  0.00  0.00    +0.129 A 
ATOM     27  C   UNL     1      -5.081  -7.941   1.744  0.00  0.00    +0.079 A 
ATOM     28  C   UNL     1      -5.006  -8.775   0.626  0.00  0.00    +0.017 A 
BRANCH  26  29
ATOM     29  O   UNL     1      -5.564  -7.668   4.069  0.00  0.00    -0.506 OA
ATOM     30  H   UNL     1      -6.430  -7.254   4.189  0.00  0.00    +0.292 HD
ENDBRANCH  26  29
ENDBRANCH  19  27
ENDBRANCH   1  21
TORSDOF 4
