REMARK  Name = ZINC38610734
REMARK  2 active torsions:
REMARK  status: ('A' for Active; 'I' for Inactive)
REMARK    1  A    between atoms: C_3  and  C_9
REMARK    2  A    between atoms: C_10  and  C_11
REMARK                            x       y       z     vdW  Elec       q    Type
REMARK                         _______ _______ _______ _____ _____    ______ ____
ROOT
ATOM      1  C   UNL     1       3.651   2.159  -0.022  0.00  0.00    +0.014 C 
ATOM      2  C   UNL     1       3.636   3.508  -0.015  0.00  0.00    +0.068 C 
ENDROOT
BRANCH   2   3
ATOM      3  C   UNL     1       4.894   4.254  -0.023  0.00  0.00    +0.243 C 
ATOM      4  O   UNL     1       5.955   3.658  -0.036  0.00  0.00    -0.270 OA
ATOM      5  N   UNL     1       4.879   5.602  -0.016  0.00  0.00    -0.259 N 
ATOM      6  C   UNL     1       6.072   6.309  -0.024  0.00  0.00    +0.208 A 
ATOM      7  N   UNL     1       7.314   5.852  -0.045  0.00  0.00    -0.105 NA
ATOM      8  N   UNL     1       8.263   6.691  -0.049  0.00  0.00    -0.033 NA
ATOM      9  N   UNL     1       7.999   7.957  -0.033  0.00  0.00    -0.087 NA
ATOM     10  S   UNL     1       6.321   7.973  -0.018  0.00  0.00    +0.074 S 
ATOM     11  H   UNL     1       4.033   6.077  -0.006  0.00  0.00    +0.157 HD
ENDBRANCH   2   3
BRANCH   1  14
ATOM     12  C   UNL     1      -0.017   1.381   0.010  0.00  0.00    +0.020 A 
ATOM     13  C   UNL     1       1.165   2.091   0.002  0.00  0.00    +0.011 A 
ATOM     14  C   UNL     1       2.386   1.409  -0.013  0.00  0.00    -0.006 A 
ATOM     15  C   UNL     1       2.398   0.009  -0.021  0.00  0.00    +0.049 A 
ATOM     16  C   UNL     1       1.207  -0.687  -0.013  0.00  0.00    +0.040 A 
ATOM     17  C   UNL     1       0.002  -0.004   0.002  0.00  0.00    +0.042 A 
ATOM     18 CL   UNL     1      -1.492  -0.888   0.011  0.00  0.00    -0.083 Cl
ATOM     19 CL   UNL     1       3.907  -0.849  -0.040  0.00  0.00    -0.083 Cl
ENDBRANCH   1  14
TORSDOF 2
