REMARK  Name = ZINC34730334
REMARK  7 active torsions:
REMARK  status: ('A' for Active; 'I' for Inactive)
REMARK    1  A    between atoms: C_1  and  C_2
REMARK    2  A    between atoms: C_2  and  C_3
REMARK    3  A    between atoms: C_2  and  C_4
REMARK    4  A    between atoms: C_7  and  C_10
REMARK    5  A    between atoms: C_10  and  N_11
REMARK    6  A    between atoms: N_15  and  C_18
REMARK    7  A    between atoms: C_21  and  N_24
REMARK                            x       y       z     vdW  Elec       q    Type
REMARK                         _______ _______ _______ _____ _____    ______ ____
ROOT
ATOM      1  N   UNL     1      -6.777  -1.274  -0.554  0.00  0.00    -0.281 N 
ATOM      2  C   UNL     1      -6.949   0.004   0.138  0.00  0.00    +0.111 C 
ATOM      3  C   UNL     1      -6.612   1.147  -0.826  0.00  0.00    +0.038 C 
ATOM      4  C   UNL     1      -7.484   1.002  -2.078  0.00  0.00    +0.117 C 
ATOM      5  N   UNL     1      -7.284  -0.331  -2.650  0.00  0.00    -0.255 N 
ATOM      6  C   UNL     1      -6.949  -1.377  -1.881  0.00  0.00    +0.309 C 
ATOM      7  O   UNL     1      -6.800  -2.464  -2.406  0.00  0.00    -0.252 OA
ENDROOT
BRANCH   5   8
ATOM      8  C   UNL     1      -7.439  -0.516  -4.031  0.00  0.00    +0.038 A 
ATOM      9  C   UNL     1      -8.684  -0.844  -4.551  0.00  0.00    +0.025 A 
ATOM     10  C   UNL     1      -8.838  -1.026  -5.911  0.00  0.00    +0.024 A 
ATOM     11  C   UNL     1      -7.747  -0.881  -6.759  0.00  0.00    +0.025 A 
ATOM     12  C   UNL     1      -6.503  -0.553  -6.238  0.00  0.00    +0.024 A 
ATOM     13  C   UNL     1      -6.350  -0.365  -4.879  0.00  0.00    +0.025 A 
BRANCH  11  14
ATOM     14  N   UNL     1      -7.903  -1.067  -8.137  0.00  0.00    -0.358 N 
ATOM     15  H   UNL     1      -8.772  -1.296  -8.501  0.00  0.00    +0.142 HD
ATOM     16  H   UNL     1      -7.141  -0.965  -8.729  0.00  0.00    +0.142 HD
ENDBRANCH  11  14
ENDBRANCH   5   8
BRANCH   1  17
ATOM     17  C   UNL     1      -6.406  -2.463   0.216  0.00  0.00    +0.144 C 
BRANCH  17  21
ATOM     18  C   UNL     1      -2.149  -2.772   0.397  0.00  0.00    -0.045 A 
ATOM     19  C   UNL     1      -2.833  -2.070   1.371  0.00  0.00    +0.004 A 
ATOM     20  C   UNL     1      -4.211  -1.969   1.313  0.00  0.00    +0.005 A 
ATOM     21  C   UNL     1      -4.904  -2.572   0.280  0.00  0.00    -0.030 A 
ATOM     22  C   UNL     1      -4.220  -3.274  -0.695  0.00  0.00    +0.005 A 
ATOM     23  C   UNL     1      -2.842  -3.370  -0.639  0.00  0.00    +0.004 A 
BRANCH  18  25
ATOM     24  C   UNL     1      -0.032  -1.482   0.415  0.00  0.00    +0.012 C 
ATOM     25  C   UNL     1      -0.648  -2.882   0.461  0.00  0.00    +0.013 C 
ATOM     26  C   UNL     1      -0.242  -3.575   1.763  0.00  0.00    +0.012 C 
ENDBRANCH  18  25
ENDBRANCH  17  21
ENDBRANCH   1  17
TORSDOF 5
