REMARK  Name = ZINC38612734
REMARK  4 active torsions:
REMARK  status: ('A' for Active; 'I' for Inactive)
REMARK    1  A    between atoms: C_1  and  C_2
REMARK    2  A    between atoms: C_2  and  C_17
REMARK    3  A    between atoms: N_3  and  N_4
REMARK    4  A    between atoms: C_5  and  C_7
REMARK                            x       y       z     vdW  Elec       q    Type
REMARK                         _______ _______ _______ _____ _____    ______ ____
ROOT
ATOM      1  N   UNL     1      -1.023  -1.647   1.358  0.00  0.00    -0.205 N 
ATOM      2  C   UNL     1      -1.510  -2.000   2.563  0.00  0.00    +0.263 C 
ATOM      3  O   UNL     1      -1.398  -1.247   3.508  0.00  0.00    -0.271 OA
ATOM      4  H   UNL     1      -1.112  -2.249   0.603  0.00  0.00    +0.177 HD
ENDROOT
BRANCH   2   5
ATOM      5  C   UNL     1      -2.195  -3.331   2.739  0.00  0.00    +0.243 C 
ATOM      6  C   UNL     1      -3.635  -3.253   2.302  0.00  0.00    -0.012 C 
ATOM      7  C   UNL     1      -4.343  -3.530   3.402  0.00  0.00    +0.065 C 
ATOM      8  C   UNL     1      -5.856  -3.561   3.421  0.00  0.00    +0.057 C 
ATOM      9  C   UNL     1      -6.374  -2.829   2.178  0.00  0.00    +0.006 C 
ATOM     10  C   UNL     1      -5.674  -3.373   0.929  0.00  0.00    +0.005 C 
ATOM     11  C   UNL     1      -4.201  -2.941   0.948  0.00  0.00    +0.035 C 
ATOM     12  N   UNL     1      -3.512  -3.764   4.441  0.00  0.00    -0.158 NA
ATOM     13  N   UNL     1      -2.305  -3.679   4.168  0.00  0.00    -0.170 NA
ENDBRANCH   2   5
BRANCH   1  16
ATOM     14  C   UNL     1       0.810   1.231  -0.142  0.00  0.00    +0.068 C 
ATOM     15  C   UNL     1      -0.011  -0.023   0.014  0.00  0.00    +0.063 C 
ATOM     16  N   UNL     1      -0.386  -0.409   1.195  0.00  0.00    -0.184 NA
BRANCH  15  17
ATOM     17  C   UNL     1      -0.388  -0.811  -1.174  0.00  0.00    -0.002 A 
ATOM     18  C   UNL     1      -1.656  -1.390  -1.257  0.00  0.00    +0.012 A 
ATOM     19  C   UNL     1      -2.003  -2.126  -2.371  0.00  0.00    +0.039 A 
ATOM     20  C   UNL     1      -1.096  -2.291  -3.406  0.00  0.00    +0.123 A 
ATOM     21  C   UNL     1       0.164  -1.718  -3.329  0.00  0.00    +0.039 A 
ATOM     22  C   UNL     1       0.520  -0.976  -2.223  0.00  0.00    +0.012 A 
ATOM     23  F   UNL     1      -1.442  -3.012  -4.495  0.00  0.00    -0.205 F 
ENDBRANCH  15  17
ENDBRANCH   1  16
TORSDOF 3
