REMARK  Name = ZINC63136942
REMARK  10 active torsions:
REMARK  status: ('A' for Active; 'I' for Inactive)
REMARK    1  A    between atoms: C_1  and  O_2
REMARK    2  A    between atoms: O_2  and  C_3
REMARK    3  A    between atoms: C_6  and  C_9
REMARK    4  A    between atoms: C_9  and  C_10
REMARK    5  A    between atoms: C_10  and  N_11
REMARK    6  A    between atoms: C_31  and  C_33
REMARK    7  A    between atoms: C_35  and  O_41
REMARK    8  A    between atoms: C_38  and  O_39
REMARK    9  A    between atoms: O_39  and  C_40
REMARK   10  A    between atoms: O_41  and  C_42
REMARK                            x       y       z     vdW  Elec       q    Type
REMARK                         _______ _______ _______ _____ _____    ______ ____
ROOT
ATOM      1  N   UNL     1      -6.960  -3.188  -1.132  0.00  0.00    -0.291 N 
ATOM      2  C   UNL     1      -6.825  -4.632  -1.218  0.00  0.00    +0.203 C 
ATOM      3  C   UNL     1      -8.147  -5.319  -1.309  0.00  0.00    +0.234 C 
ATOM      4  O   UNL     1      -8.149  -6.529  -1.388  0.00  0.00    -0.274 OA
ATOM      5  N   UNL     1      -9.331  -4.694  -1.309  0.00  0.00    -0.279 N 
ATOM      6  C   UNL     1      -9.456  -3.245  -1.201  0.00  0.00    +0.167 C 
ATOM      7  C   UNL     1      -8.134  -2.558  -1.117  0.00  0.00    +0.237 C 
ATOM      8  O   UNL     1      -8.127  -1.348  -1.034  0.00  0.00    -0.274 OA
ATOM      9  C   UNL     1     -10.303  -2.882   0.033  0.00  0.00    +0.065 C 
ATOM     10  C   UNL     1     -11.511  -3.786   0.007  0.00  0.00    -0.034 C 
ATOM     11  C   UNL     1     -12.808  -3.524   0.095  0.00  0.00    -0.001 A 
ATOM     12  C   UNL     1     -13.540  -2.275   0.361  0.00  0.00    +0.010 A 
ATOM     13  C   UNL     1     -14.897  -2.363   0.359  0.00  0.00    +0.001 A 
ATOM     14  C   UNL     1     -15.590  -3.553   0.121  0.00  0.00    +0.002 A 
ATOM     15  C   UNL     1     -14.999  -4.750  -0.122  0.00  0.00    +0.026 A 
ATOM     16  C   UNL     1     -13.574  -4.786  -0.138  0.00  0.00    +0.043 A 
ATOM     17  N   UNL     1     -12.760  -5.784  -0.319  0.00  0.00    -0.375 N 
ATOM     18  C   UNL     1     -11.389  -5.296  -0.166  0.00  0.00    +0.131 C 
ATOM     19  C   UNL     1     -10.550  -5.525  -1.425  0.00  0.00    +0.137 C 
ATOM     20  H   UNL     1     -13.018  -6.697  -0.522  0.00  0.00    +0.160 HD
ENDROOT
BRANCH  19  21
ATOM     21  C   UNL     1     -11.335  -5.113  -2.644  0.00  0.00    +0.020 A 
ATOM     22  C   UNL     1     -11.770  -3.809  -2.778  0.00  0.00    +0.054 A 
ATOM     23  C   UNL     1     -12.491  -3.430  -3.900  0.00  0.00    +0.121 A 
ATOM     24  C   UNL     1     -12.777  -4.361  -4.888  0.00  0.00    +0.049 A 
ATOM     25  C   UNL     1     -12.342  -5.665  -4.755  0.00  0.00    +0.049 A 
ATOM     26  C   UNL     1     -11.616  -6.043  -3.635  0.00  0.00    +0.125 A 
BRANCH  26  27
ATOM     27  O   UNL     1     -11.183  -7.325  -3.506  0.00  0.00    -0.495 OA
ATOM     28  C   UNL     1     -11.508  -8.229  -4.564  0.00  0.00    +0.277 C 
ENDBRANCH  26  27
BRANCH  23  29
ATOM     29  O   UNL     1     -12.920  -2.146  -4.031  0.00  0.00    -0.495 OA
ATOM     30  C   UNL     1     -13.658  -1.826  -5.212  0.00  0.00    +0.277 C 
ENDBRANCH  23  29
ENDBRANCH  19  21
BRANCH   1  31
ATOM     31  C   UNL     1      -5.740  -2.382  -1.050  0.00  0.00    +0.113 C 
BRANCH  31  32
ATOM     32  C   UNL     1      -5.348  -2.196   0.418  0.00  0.00    +0.054 C 
BRANCH  32  36
ATOM     33  C   UNL     1      -1.789   0.156   0.657  0.00  0.00    +0.120 A 
ATOM     34  C   UNL     1      -3.031   0.772   0.669  0.00  0.00    +0.046 A 
ATOM     35  C   UNL     1      -4.181   0.010   0.591  0.00  0.00    +0.007 A 
ATOM     36  C   UNL     1      -4.093  -1.367   0.502  0.00  0.00    -0.046 A 
ATOM     37  C   UNL     1      -2.856  -1.984   0.490  0.00  0.00    +0.007 A 
ATOM     38  C   UNL     1      -1.704  -1.226   0.561  0.00  0.00    +0.046 A 
BRANCH  33  40
ATOM     39  C   UNL     1      -0.820   2.320   0.829  0.00  0.00    +0.277 C 
ATOM     40  O   UNL     1      -0.657   0.904   0.733  0.00  0.00    -0.495 OA
ENDBRANCH  33  40
ENDBRANCH  32  36
ENDBRANCH  31  32
ENDBRANCH   1  31
TORSDOF 7
