REMARK  Name = ZINC20275240
REMARK  4 active torsions:
REMARK  status: ('A' for Active; 'I' for Inactive)
REMARK    1  A    between atoms: C_1  and  C_2
REMARK    2  A    between atoms: C_3  and  C_19
REMARK    3  A    between atoms: C_6  and  N_11
REMARK    4  A    between atoms: C_15  and  C_18
REMARK                            x       y       z     vdW  Elec       q    Type
REMARK                         _______ _______ _______ _____ _____    ______ ____
ROOT
ATOM      1  C   UNL     1       4.770   2.426  -0.028  0.00  0.00    +0.066 C 
ATOM      2  C   UNL     1       3.264   2.458  -0.015  0.00  0.00    +0.046 A 
ATOM      3  C   UNL     1       2.474   3.599  -0.002  0.00  0.00    +0.156 A 
ATOM      4  N   UNL     1       1.161   3.165   0.007  0.00  0.00    -0.293 N 
ATOM      5  C   UNL     1      -0.025   3.833   0.021  0.00  0.00    +0.116 A 
ATOM      6  C   UNL     1      -1.201   3.152   0.028  0.00  0.00    +0.047 A 
ATOM      7  C   UNL     1      -1.198   1.746   0.017  0.00  0.00    +0.028 A 
ATOM      8  C   UNL     1      -0.013   1.076   0.008  0.00  0.00    +0.047 A 
ATOM      9  C   UNL     1       1.193   1.801   0.000  0.00  0.00    +0.116 A 
ATOM     10  N   UNL     1       2.466   1.404  -0.013  0.00  0.00    -0.343 N 
ATOM     11  H   UNL     1       2.893   0.391  -0.022  0.00  0.00    +0.167 HD
ENDROOT
BRANCH   6  12
ATOM     12  N   UNL     1      -2.415   3.851   0.042  0.00  0.00    -0.329 N 
ATOM     13  C   UNL     1      -2.477   4.776   1.181  0.00  0.00    +0.105 C 
ATOM     14  C   UNL     1      -3.747   5.623   1.083  0.00  0.00    +0.019 C 
ATOM     15  C   UNL     1      -4.970   4.702   1.083  0.00  0.00    +0.006 C 
ATOM     16  C   UNL     1      -4.857   3.717  -0.084  0.00  0.00    +0.003 C 
ATOM     17  C   UNL     1      -3.555   2.925   0.047  0.00  0.00    +0.108 C 
ATOM     18  C   UNL     1      -6.046   2.754  -0.057  0.00  0.00    +0.009 C 
ENDBRANCH   6  12
BRANCH   3  19
ATOM     19  C   UNL     1       2.923   4.941   0.001  0.00  0.00    +0.405 C 
ATOM     20  O   UNL     1       4.116   5.184  -0.009  0.00  0.00    -0.239 OA
ATOM     21  O   UNL     1       2.029   5.952   0.014  0.00  0.00    -0.239 OA
ENDBRANCH   3  19
TORSDOF 2
