REMARK  Name = ZINC40679413
REMARK  10 active torsions:
REMARK  status: ('A' for Active; 'I' for Inactive)
REMARK    1  A    between atoms: C_1  and  C_2
REMARK    2  A    between atoms: C_2  and  N_3
REMARK    3  A    between atoms: N_3  and  C_4
REMARK    4  A    between atoms: C_11  and  N_36
REMARK    5  A    between atoms: C_12  and  N_16
REMARK    6  A    between atoms: N_16  and  C_17
REMARK    7  A    between atoms: C_20  and  C_24
REMARK    8  A    between atoms: C_22  and  C_23
REMARK    9  A    between atoms: C_24  and  C_26
REMARK   10  A    between atoms: C_24  and  C_28
REMARK                            x       y       z     vdW  Elec       q    Type
REMARK                         _______ _______ _______ _____ _____    ______ ____
ROOT
ATOM      1  N   UNL     1       0.134  -2.594  -5.508  0.00  0.00    -0.299 N 
ATOM      2  H   UNL     1       1.056  -2.891  -5.472  0.00  0.00    +0.154 HD
ENDROOT
BRANCH   1   6
ATOM      3  N   UNL     1       0.317  -1.064  -0.922  0.00  0.00    -0.284 N 
ATOM      4  C   UNL     1      -0.357  -1.236  -2.126  0.00  0.00    +0.151 A 
ATOM      5  C   UNL     1       0.275  -1.846  -3.212  0.00  0.00    +0.104 A 
ATOM      6  C   UNL     1      -0.448  -1.994  -4.397  0.00  0.00    +0.126 A 
ATOM      7  N   UNL     1      -1.702  -1.551  -4.447  0.00  0.00    -0.333 N 
ATOM      8  C   UNL     1      -2.261  -0.980  -3.399  0.00  0.00    +0.200 A 
ATOM      9  N   UNL     1      -1.617  -0.827  -2.260  0.00  0.00    -0.220 NA
ATOM     10  H   UNL     1      -2.212  -1.649  -5.266  0.00  0.00    +0.168 HD
BRANCH   3  11
ATOM     11  C   UNL     1       0.967   0.143  -0.651  0.00  0.00    +0.035 A 
ATOM     12  C   UNL     1       1.558   0.353   0.588  0.00  0.00    +0.023 A 
ATOM     13  C   UNL     1       2.200   1.547   0.852  0.00  0.00    +0.002 A 
ATOM     14  C   UNL     1       2.255   2.533  -0.116  0.00  0.00    +0.000 A 
ATOM     15  C   UNL     1       1.667   2.327  -1.351  0.00  0.00    +0.002 A 
ATOM     16  C   UNL     1       1.029   1.134  -1.623  0.00  0.00    +0.023 A 
ENDBRANCH   3  11
BRANCH   5  17
ATOM     17  N   UNL     1       1.600  -2.298  -3.114  0.00  0.00    -0.353 N 
ATOM     18  H   UNL     1       2.064  -2.259  -2.263  0.00  0.00    +0.143 HD
ATOM     19  H   UNL     1       2.052  -2.649  -3.897  0.00  0.00    +0.143 HD
ENDBRANCH   5  17
BRANCH   3  21
ATOM     20  C   UNL     1      -0.850  -2.011   1.007  0.00  0.00    +0.025 C 
ATOM     21  C   UNL     1       0.345  -2.148   0.063  0.00  0.00    +0.109 C 
ENDBRANCH   3  21
ENDBRANCH   1   6
BRANCH   1  22
ATOM     22  C   UNL     1      -0.611  -2.769  -6.678  0.00  0.00    +0.037 A 
ATOM     23  C   UNL     1      -1.147  -4.014  -6.982  0.00  0.00    +0.043 A 
ATOM     24  C   UNL     1      -1.883  -4.184  -8.139  0.00  0.00    +0.047 A 
ATOM     25  C   UNL     1      -2.087  -3.114  -8.994  0.00  0.00    -0.008 A 
ATOM     26  C   UNL     1      -1.555  -1.874  -8.693  0.00  0.00    +0.011 A 
ATOM     27  C   UNL     1      -0.823  -1.697  -7.535  0.00  0.00    -0.029 A 
ATOM     28  C   UNL     1      -0.248  -0.343  -7.206  0.00  0.00    +0.045 C 
ATOM     29 CL   UNL     1      -2.552  -5.739  -8.521  0.00  0.00    -0.083 Cl
BRANCH  25  30
ATOM     30  C   UNL     1      -2.890  -3.302 -10.255  0.00  0.00    +0.153 C 
BRANCH  30  31
ATOM     31  C   UNL     1      -4.165  -2.503 -10.162  0.00  0.00    -0.026 A 
ATOM     32  C   UNL     1      -4.125  -1.125 -10.257  0.00  0.00    +0.006 A 
ATOM     33  C   UNL     1      -5.293  -0.392 -10.173  0.00  0.00    +0.020 A 
ATOM     34  C   UNL     1      -6.503  -1.038  -9.993  0.00  0.00    +0.041 A 
ATOM     35  C   UNL     1      -6.543  -2.418  -9.898  0.00  0.00    +0.020 A 
ATOM     36  C   UNL     1      -5.374  -3.150  -9.989  0.00  0.00    +0.006 A 
ATOM     37 CL   UNL     1      -7.972  -0.118  -9.886  0.00  0.00    -0.084 Cl
ENDBRANCH  30  31
BRANCH  30  38
ATOM     38  C   UNL     1      -2.104  -2.840 -11.411  0.00  0.00    +0.075 C 
ATOM     39  N   UNL     1      -1.498  -2.483 -12.302  0.00  0.00    -0.196 NA
ENDBRANCH  30  38
ENDBRANCH  25  30
ENDBRANCH   1  22
TORSDOF 8
