REMARK  Name = ZINC39911771
REMARK  8 active torsions:
REMARK  status: ('A' for Active; 'I' for Inactive)
REMARK    1  A    between atoms: C_1  and  C_2
REMARK    2  A    between atoms: C_2  and  C_3
REMARK    3  A    between atoms: C_3  and  N_4
REMARK    4  A    between atoms: C_5  and  C_24
REMARK    5  A    between atoms: C_8  and  C_15
REMARK    6  A    between atoms: C_17  and  C_23
REMARK    7  A    between atoms: C_19  and  C_22
REMARK    8  A    between atoms: C_20  and  O_21
REMARK                            x       y       z     vdW  Elec       q    Type
REMARK                         _______ _______ _______ _____ _____    ______ ____
ROOT
ATOM      1  N   UNL     1       0.738  -1.962  -1.265  0.00  0.00    -0.285 N 
ATOM      2  C   UNL     1       1.783  -2.812  -0.679  0.00  0.00    +0.141 C 
ATOM      3  C   UNL     1       1.360  -4.232  -0.939  0.00  0.00    +0.035 A 
ATOM      4  C   UNL     1       1.646  -5.593  -0.793  0.00  0.00    +0.102 A 
ATOM      5  N   UNL     1       0.665  -6.266  -1.361  0.00  0.00    -0.173 NA
ATOM      6  N   UNL     1      -0.212  -5.464  -1.852  0.00  0.00    -0.272 N 
ATOM      7  H   UNL     1      -1.019  -5.738  -2.315  0.00  0.00    +0.189 HD
ATOM      8  C   UNL     1       0.161  -4.170  -1.622  0.00  0.00    +0.126 A 
ATOM      9  C   UNL     1      -0.201  -2.760  -1.805  0.00  0.00    +0.265 C 
ATOM     10  O   UNL     1      -1.206  -2.368  -2.367  0.00  0.00    -0.268 OA
ENDROOT
BRANCH   4  11
ATOM     11  C   UNL     1       2.836  -6.174  -0.122  0.00  0.00    +0.044 A 
ATOM     12  C   UNL     1       3.797  -5.339   0.443  0.00  0.00    +0.017 A 
ATOM     13  C   UNL     1       4.902  -5.883   1.066  0.00  0.00    -0.049 A 
ATOM     14  C   UNL     1       5.059  -7.257   1.131  0.00  0.00    +0.010 A 
ATOM     15  C   UNL     1       4.111  -8.094   0.574  0.00  0.00    -0.008 A 
ATOM     16  C   UNL     1       2.994  -7.560  -0.050  0.00  0.00    +0.129 A 
ATOM     17  C   UNL     1       4.289  -9.588   0.649  0.00  0.00    +0.047 C 
ATOM     18  C   UNL     1       5.941  -4.979   1.677  0.00  0.00    +0.044 C 
BRANCH  16  19
ATOM     19  O   UNL     1       2.059  -8.383  -0.594  0.00  0.00    -0.506 OA
ATOM     20  H   UNL     1       2.227  -8.611  -1.518  0.00  0.00    +0.292 HD
ENDBRANCH  16  19
ENDBRANCH   4  11
BRANCH   2  21
ATOM     21  C   UNL     1       1.884  -2.562   0.804  0.00  0.00    -0.021 A 
ATOM     22  C   UNL     1       0.737  -2.384   1.554  0.00  0.00    +0.007 A 
ATOM     23  C   UNL     1       0.828  -2.155   2.914  0.00  0.00    +0.022 A 
ATOM     24  C   UNL     1       2.068  -2.103   3.525  0.00  0.00    +0.059 A 
ATOM     25  C   UNL     1       3.217  -2.281   2.774  0.00  0.00    +0.060 A 
ATOM     26  C   UNL     1       3.123  -2.516   1.413  0.00  0.00    +0.027 A 
ATOM     27 CL   UNL     1       4.774  -2.216   3.539  0.00  0.00    -0.082 Cl
ATOM     28 CL   UNL     1       2.183  -1.814   5.233  0.00  0.00    -0.082 Cl
ENDBRANCH   2  21
BRANCH   1  29
ATOM     29  C   UNL     1       0.718  -0.497  -1.257  0.00  0.00    +0.109 C 
BRANCH  29  31
ATOM     30  C   UNL     1      -0.019   1.526   0.010  0.00  0.00    +0.005 C 
ATOM     31  C   UNL     1       0.002  -0.004   0.002  0.00  0.00    +0.016 C 
ENDBRANCH  29  31
ENDBRANCH   1  29
TORSDOF 5
