REMARK  Name = ZINC23448413
REMARK  8 active torsions:
REMARK  status: ('A' for Active; 'I' for Inactive)
REMARK    1  A    between atoms: C_1  and  C_2
REMARK    2  A    between atoms: C_2  and  C_27
REMARK    3  A    between atoms: N_5  and  C_9
REMARK    4  A    between atoms: C_9  and  C_10
REMARK    5  A    between atoms: N_12  and  C_13
REMARK    6  A    between atoms: C_18  and  S_19
REMARK    7  A    between atoms: S_19  and  C_20
REMARK    8  A    between atoms: C_30  and  C_33
REMARK                            x       y       z     vdW  Elec       q    Type
REMARK                         _______ _______ _______ _____ _____    ______ ____
ROOT
ATOM      1  C   UNL     1      -3.119  -1.780   1.329  0.00  0.00    +0.214 C 
ENDROOT
BRANCH   1   6
ATOM      2  C   UNL     1      -2.223   2.030  -1.269  0.00  0.00    +0.047 C 
ATOM      3  C   UNL     1      -1.897   0.535  -1.305  0.00  0.00    +0.135 C 
ATOM      4  C   UNL     1      -2.997  -0.268  -0.640  0.00  0.00    +0.251 C 
ATOM      5  O   UNL     1      -4.160  -0.336  -0.977  0.00  0.00    -0.272 OA
ATOM      6  N   UNL     1      -2.414  -0.891   0.403  0.00  0.00    -0.215 N 
ATOM      7  C   UNL     1      -1.111  -0.596   0.488  0.00  0.00    +0.310 C 
ATOM      8  O   UNL     1      -0.373  -1.038   1.347  0.00  0.00    -0.252 OA
ATOM      9  N   UNL     1      -0.710   0.244  -0.483  0.00  0.00    -0.281 N 
ATOM     10  H   UNL     1       0.187   0.590  -0.615  0.00  0.00    +0.152 HD
BRANCH   3  11
ATOM     11  C   UNL     1      -1.684   0.075  -2.724  0.00  0.00    -0.015 A 
ATOM     12  C   UNL     1      -2.754  -0.397  -3.463  0.00  0.00    +0.007 A 
ATOM     13  C   UNL     1      -2.567  -0.820  -4.763  0.00  0.00    +0.019 A 
ATOM     14  C   UNL     1      -1.293  -0.770  -5.333  0.00  0.00    +0.052 A 
ATOM     15  C   UNL     1      -0.217  -0.292  -4.582  0.00  0.00    +0.019 A 
ATOM     16  C   UNL     1      -0.420   0.132  -3.285  0.00  0.00    +0.007 A 
BRANCH  14  17
ATOM     17  C   UNL     1      -1.091  -1.208  -6.681  0.00  0.00    +0.099 C 
ATOM     18  N   UNL     1      -0.930  -1.555  -7.751  0.00  0.00    -0.191 NA
ENDBRANCH  14  17
ENDBRANCH   3  11
ENDBRANCH   1   6
BRANCH   1  19
ATOM     19  C   UNL     1      -3.056  -3.195   0.814  0.00  0.00    +0.235 C 
ATOM     20  O   UNL     1      -2.478  -3.436  -0.225  0.00  0.00    -0.274 OA
ATOM     21  N   UNL     1      -3.640  -4.191   1.507  0.00  0.00    -0.283 N 
ATOM     22  H   UNL     1      -4.037  -4.011   2.374  0.00  0.00    +0.155 HD
BRANCH  21  23
ATOM     23  C   UNL     1      -3.676  -5.487   0.976  0.00  0.00    +0.047 A 
ATOM     24  C   UNL     1      -2.672  -5.916   0.121  0.00  0.00    +0.024 A 
ATOM     25  C   UNL     1      -2.708  -7.195  -0.402  0.00  0.00    +0.002 A 
ATOM     26  C   UNL     1      -3.744  -8.052  -0.074  0.00  0.00    +0.001 A 
ATOM     27  C   UNL     1      -4.749  -7.633   0.777  0.00  0.00    +0.017 A 
ATOM     28  C   UNL     1      -4.718  -6.352   1.311  0.00  0.00    +0.034 A 
BRANCH  28  29
ATOM     29  S   UNL     1      -5.994  -5.818   2.402  0.00  0.00    -0.088 S 
BRANCH  29  30
ATOM     30  C   UNL     1      -7.037  -7.229   2.561  0.00  0.00    +0.013 A 
ATOM     31  C   UNL     1      -6.740  -8.213   3.498  0.00  0.00    +0.016 A 
ATOM     32  C   UNL     1      -7.559  -9.317   3.620  0.00  0.00    +0.021 A 
ATOM     33  C   UNL     1      -8.675  -9.447   2.812  0.00  0.00    +0.041 A 
ATOM     34  C   UNL     1      -8.973  -8.469   1.878  0.00  0.00    +0.021 A 
ATOM     35  C   UNL     1      -8.162  -7.359   1.755  0.00  0.00    +0.016 A 
ATOM     36 CL   UNL     1      -9.702 -10.837   2.968  0.00  0.00    -0.084 Cl
ENDBRANCH  29  30
ENDBRANCH  28  29
ENDBRANCH  21  23
ENDBRANCH   1  19
TORSDOF 7
