REMARK  Name = ZINC12009935
REMARK  5 active torsions:
REMARK  status: ('A' for Active; 'I' for Inactive)
REMARK    1  A    between atoms: C_3  and  C_6
REMARK    2  A    between atoms: C_8  and  N_22
REMARK    3  A    between atoms: C_23  and  C_25
REMARK    4  A    between atoms: C_28  and  S_31
REMARK    5  A    between atoms: S_31  and  N_34
REMARK                            x       y       z     vdW  Elec       q    Type
REMARK                         _______ _______ _______ _____ _____    ______ ____
ROOT
ATOM      1  C   UNL     1       5.654  -1.169  -0.062  0.00  0.00    +0.130 A 
ATOM      2  C   UNL     1       4.935  -2.383  -0.062  0.00  0.00    +0.077 A 
ATOM      3  C   UNL     1       3.612  -2.081  -0.041  0.00  0.00    +0.133 A 
ATOM      4  N   UNL     1       3.497  -0.720  -0.038  0.00  0.00    -0.184 N 
ATOM      5  N   UNL     1       4.788  -0.176  -0.048  0.00  0.00    -0.159 NA
ATOM      6  C   UNL     1       2.315  -0.005  -0.022  0.00  0.00    +0.234 A 
ATOM      7  N   UNL     1       2.358   1.354  -0.015  0.00  0.00    -0.291 N 
ATOM      8  H   UNL     1       3.211   1.815  -0.021  0.00  0.00    +0.172 HD
ATOM      9  C   UNL     1       1.206   2.058   0.002  0.00  0.00    +0.256 A 
ATOM     10  O   UNL     1       1.224   3.278   0.008  0.00  0.00    -0.267 OA
ATOM     11  C   UNL     1      -0.016   1.359   0.009  0.00  0.00    +0.038 A 
ATOM     12  C   UNL     1       0.002  -0.004   0.002  0.00  0.00    +0.053 A 
ATOM     13  N   UNL     1       1.171  -0.650  -0.014  0.00  0.00    -0.217 NA
ATOM     14  C   UNL     1      -1.414  -0.540   0.014  0.00  0.00    +0.056 C 
ATOM     15  C   UNL     1      -2.299   0.653  -0.408  0.00  0.00    +0.011 C 
ATOM     16  C   UNL     1      -1.442   1.862   0.020  0.00  0.00    +0.043 C 
ENDROOT
BRANCH   1  19
ATOM     17  C   UNL     1       9.188  -0.205  -0.092  0.00  0.00    +0.042 A 
ATOM     18  C   UNL     1       7.820   0.135  -0.082  0.00  0.00    +0.051 A 
ATOM     19  C   UNL     1       7.126  -1.034  -0.076  0.00  0.00    +0.155 A 
ATOM     20  O   UNL     1       8.012  -2.048  -0.092  0.00  0.00    -0.461 OA
ATOM     21  C   UNL     1       9.260  -1.550  -0.102  0.00  0.00    +0.196 A 
ENDBRANCH   1  19
BRANCH   3  22
ATOM     22  N   UNL     1       2.561  -2.994  -0.028  0.00  0.00    -0.266 N 
ATOM     23  C   UNL     1       2.818  -4.317  -0.033  0.00  0.00    +0.249 C 
ATOM     24  O   UNL     1       3.967  -4.713  -0.049  0.00  0.00    -0.270 OA
ATOM     25  H   UNL     1       1.644  -2.678  -0.015  0.00  0.00    +0.157 HD
BRANCH  23  26
ATOM     26  C   UNL     1       1.702  -5.287  -0.019  0.00  0.00    +0.037 A 
ATOM     27  C   UNL     1       0.382  -4.836   0.005  0.00  0.00    +0.015 A 
ATOM     28  C   UNL     1      -0.655  -5.746   0.013  0.00  0.00    +0.029 A 
ATOM     29  C   UNL     1      -0.388  -7.103   0.008  0.00  0.00    +0.106 A 
ATOM     30  C   UNL     1       0.919  -7.557  -0.010  0.00  0.00    +0.029 A 
ATOM     31  C   UNL     1       1.965  -6.658  -0.024  0.00  0.00    +0.015 A 
BRANCH  29  32
ATOM     32  S   UNL     1      -1.717  -8.259   0.025  0.00  0.00    +0.061 S 
ATOM     33  O   UNL     1      -2.848  -7.585  -0.510  0.00  0.00    -0.153 OA
ATOM     34  O   UNL     1      -1.215  -9.465  -0.534  0.00  0.00    -0.153 OA
BRANCH  32  35
ATOM     35  N   UNL     1      -2.066  -8.582   1.611  0.00  0.00    -0.177 NA
ATOM     36  C   UNL     1      -1.398  -9.686   2.314  0.00  0.00    +0.109 C 
ATOM     37  C   UNL     1      -0.766  -9.134   3.601  0.00  0.00    +0.017 C 
ATOM     38  C   UNL     1      -1.840  -8.422   4.426  0.00  0.00    +0.003 C 
ATOM     39  C   UNL     1      -2.405  -7.247   3.625  0.00  0.00    +0.017 C 
ATOM     40  C   UNL     1      -3.052  -7.774   2.340  0.00  0.00    +0.109 C 
ENDBRANCH  32  35
ENDBRANCH  29  32
ENDBRANCH  23  26
ENDBRANCH   3  22
TORSDOF 5
