REMARK  Name = ZINC64435055
REMARK  6 active torsions:
REMARK  status: ('A' for Active; 'I' for Inactive)
REMARK    1  A    between atoms: C_1  and  C_2
REMARK    2  A    between atoms: C_2  and  C_3
REMARK    3  A    between atoms: C_2  and  C_4
REMARK    4  A    between atoms: N_15  and  C_16
REMARK    5  A    between atoms: C_16  and  C_17
REMARK    6  A    between atoms: N_19  and  C_20
REMARK                            x       y       z     vdW  Elec       q    Type
REMARK                         _______ _______ _______ _____ _____    ______ ____
ROOT
ATOM      1  C   UNL     1       0.928  -0.391   1.043  0.00  0.00    +0.164 C 
ATOM      2  N   UNL     1       1.094  -1.842   0.891  0.00  0.00    -0.325 N 
ATOM      3  C   UNL     1       0.030  -2.671   1.225  0.00  0.00    +0.041 A 
ATOM      4  C   UNL     1      -0.174  -3.889   0.602  0.00  0.00    +0.024 A 
ATOM      5  C   UNL     1      -1.251  -4.674   0.969  0.00  0.00    +0.002 A 
ATOM      6  C   UNL     1      -2.127  -4.250   1.956  0.00  0.00    +0.001 A 
ATOM      7  C   UNL     1      -1.938  -3.039   2.588  0.00  0.00    +0.015 A 
ATOM      8  C   UNL     1      -0.856  -2.239   2.229  0.00  0.00    +0.058 A 
ATOM      9  C   UNL     1      -0.602  -0.940   2.877  0.00  0.00    +0.250 C 
ATOM     10  O   UNL     1      -1.181  -0.641   3.904  0.00  0.00    -0.270 OA
ATOM     11  N   UNL     1       0.279  -0.089   2.319  0.00  0.00    -0.270 N 
ATOM     12  H   UNL     1       1.929  -2.213   0.565  0.00  0.00    +0.148 HD
ENDROOT
BRANCH   1  14
ATOM     13  C   UNL     1       0.009   1.670  -0.029  0.00  0.00    +0.011 C 
ATOM     14  C   UNL     1       0.066   0.143  -0.103  0.00  0.00    +0.021 C 
ATOM     15  C   UNL     1       0.675  -0.281  -1.440  0.00  0.00    +0.011 C 
ENDBRANCH   1  14
BRANCH  11  16
ATOM     16  C   UNL     1       0.592   1.167   3.005  0.00  0.00    +0.205 C 
BRANCH  16  17
ATOM     17  C   UNL     1       1.824   0.982   3.854  0.00  0.00    +0.235 C 
ATOM     18  O   UNL     1       2.331  -0.115   3.955  0.00  0.00    -0.274 OA
ATOM     19  N   UNL     1       2.361   2.036   4.500  0.00  0.00    -0.284 N 
ATOM     20  H   UNL     1       1.913   2.896   4.482  0.00  0.00    +0.155 HD
BRANCH  19  21
ATOM     21  C   UNL     1       3.556   1.890   5.190  0.00  0.00    +0.034 C 
ATOM     22  C   UNL     1       3.620   2.195   6.532  0.00  0.00    +0.029 C 
ATOM     23  C   UNL     1       4.859   1.956   7.137  0.00  0.00    -0.016 C 
ATOM     24  C   UNL     1       5.505   2.545   8.164  0.00  0.00    +0.025 C 
ATOM     25  C   UNL     1       6.843   2.107   8.185  0.00  0.00    +0.106 C 
ATOM     26  N   UNL     1       7.077   1.192   7.285  0.00  0.00    -0.279 NA
ATOM     27  C   UNL     1       5.812   0.885   6.633  0.00  0.00    +0.158 C 
ATOM     28  C   UNL     1       5.833   0.962   5.136  0.00  0.00    +0.006 C 
ATOM     29  C   UNL     1       4.752   1.407   4.494  0.00  0.00    +0.021 C 
ENDBRANCH  19  21
ENDBRANCH  16  17
ENDBRANCH  11  16
TORSDOF 4
