REMARK  Name = ZINC02846239
REMARK  4 active torsions:
REMARK  status: ('A' for Active; 'I' for Inactive)
REMARK    1  A    between atoms: C_10  and  C_11
REMARK    2  A    between atoms: C_11  and  N_12
REMARK    3  A    between atoms: C_19  and  C_22
REMARK    4  A    between atoms: C_19  and  O_32
REMARK                            x       y       z     vdW  Elec       q    Type
REMARK                         _______ _______ _______ _____ _____    ______ ____
ROOT
ATOM      1  N   UNL     1       0.700  -3.620  -0.648  0.00  0.00    -0.264 N 
ATOM      2  C   UNL     1       0.838  -3.698   0.739  0.00  0.00    +0.044 A 
ATOM      3  C   UNL     1       0.381  -4.651   1.647  0.00  0.00    +0.025 A 
ATOM      4  C   UNL     1       0.646  -4.509   2.993  0.00  0.00    +0.022 A 
ATOM      5  C   UNL     1       1.367  -3.421   3.453  0.00  0.00    +0.041 A 
ATOM      6  C   UNL     1       1.824  -2.469   2.556  0.00  0.00    +0.029 A 
ATOM      7  C   UNL     1       1.560  -2.610   1.212  0.00  0.00    +0.020 A 
ATOM      8  C   UNL     1       1.906  -1.772   0.003  0.00  0.00    +0.196 C 
ATOM      9  C   UNL     1       1.294  -2.527  -1.157  0.00  0.00    +0.261 C 
ATOM     10  O   UNL     1       1.331  -2.206  -2.326  0.00  0.00    -0.271 OA
ATOM     11 CL   UNL     1       1.697  -3.248   5.148  0.00  0.00    -0.084 Cl
ENDROOT
BRANCH   8  12
ATOM     12  C   UNL     1       1.296  -0.399   0.120  0.00  0.00    +0.022 A 
ATOM     13  C   UNL     1       1.956   0.770   0.138  0.00  0.00    +0.091 A 
ATOM     14  N   UNL     1       1.069   1.805   0.255  0.00  0.00    -0.360 N 
ATOM     15  H   UNL     1       1.310   2.744   0.289  0.00  0.00    +0.165 HD
ATOM     16  C   UNL     1      -0.216   1.316   0.318  0.00  0.00    +0.047 A 
ATOM     17  C   UNL     1      -0.131  -0.086   0.236  0.00  0.00    +0.006 A 
ATOM     18  C   UNL     1      -1.293  -0.858   0.275  0.00  0.00    +0.010 A 
ATOM     19  C   UNL     1      -2.510  -0.247   0.392  0.00  0.00    +0.001 A 
ATOM     20  C   UNL     1      -2.599   1.136   0.474  0.00  0.00    +0.002 A 
ATOM     21  C   UNL     1      -1.464   1.916   0.442  0.00  0.00    +0.026 A 
ENDBRANCH   8  12
BRANCH   8  22
ATOM     22  O   UNL     1       3.324  -1.677  -0.151  0.00  0.00    -0.371 OA
ATOM     23  H   UNL     1       3.602  -1.173  -0.928  0.00  0.00    +0.212 HD
ENDBRANCH   8  22
BRANCH   1  24
ATOM     24  C   UNL     1      -0.010  -4.614  -1.456  0.00  0.00    +0.149 C 
BRANCH  24  34
ATOM     25  C   UNL     1      -4.462  -6.584   0.126  0.00  0.00    +0.001 A 
ATOM     26  C   UNL     1      -3.126  -6.962   0.244  0.00  0.00    +0.001 A 
ATOM     27  C   UNL     1      -2.134  -6.207  -0.302  0.00  0.00    +0.009 A 
ATOM     28  C   UNL     1      -2.458  -5.032  -1.000  0.00  0.00    -0.013 A 
ATOM     29  C   UNL     1      -3.817  -4.645  -1.116  0.00  0.00    -0.018 A 
ATOM     30  C   UNL     1      -4.814  -5.450  -0.539  0.00  0.00    +0.008 A 
ATOM     31  C   UNL     1      -4.141  -3.467  -1.810  0.00  0.00    +0.008 A 
ATOM     32  C   UNL     1      -3.149  -2.712  -2.356  0.00  0.00    +0.001 A 
ATOM     33  C   UNL     1      -1.813  -3.090  -2.238  0.00  0.00    +0.006 A 
ATOM     34  C   UNL     1      -1.461  -4.224  -1.573  0.00  0.00    -0.022 A 
ENDBRANCH  24  34
ENDBRANCH   1  24
TORSDOF 4
