REMARK  Name = ZINC03839958
REMARK  6 active torsions:
REMARK  status: ('A' for Active; 'I' for Inactive)
REMARK    1  A    between atoms: C_1  and  C_2
REMARK    2  A    between atoms: N_12  and  C_13
REMARK    3  A    between atoms: C_13  and  C_14
REMARK    4  A    between atoms: C_13  and  C_15
REMARK    5  A    between atoms: C_17  and  C_32
REMARK    6  A    between atoms: C_26  and  C_31
REMARK                            x       y       z     vdW  Elec       q    Type
REMARK                         _______ _______ _______ _____ _____    ______ ____
ROOT
ATOM      1  C   UNL     1      -2.209   1.655   1.210  0.00  0.00    +0.014 C 
ATOM      2  C   UNL     1      -0.717   1.988   1.289  0.00  0.00    +0.043 C 
ATOM      3  C   UNL     1      -0.539   3.492   1.429  0.00  0.00    +0.057 A 
ATOM      4  C   UNL     1       0.446   4.128   0.744  0.00  0.00    +0.015 A 
ATOM      5  S   UNL     1       0.240   5.816   1.243  0.00  0.00    -0.057 S 
ATOM      6  C   UNL     1      -1.115   5.561   2.301  0.00  0.00    +0.166 A 
ATOM      7  N   UNL     1      -1.303   4.262   2.201  0.00  0.00    -0.229 NA
ATOM      8  N   UNL     1      -1.820   6.490   3.058  0.00  0.00    -0.248 N 
ATOM      9  C   UNL     1      -1.469   7.791   3.025  0.00  0.00    +0.306 C 
ATOM     10  O   UNL     1      -0.537   8.152   2.334  0.00  0.00    -0.252 OA
ATOM     11  N   UNL     1      -2.152   8.692   3.759  0.00  0.00    -0.297 N 
ATOM     12  C   UNL     1       1.440   3.529  -0.187  0.00  0.00    +0.051 C 
ATOM     13  C   UNL     1       1.440   1.999  -0.001  0.00  0.00    -0.021 C 
ATOM     14  C   UNL     1      -0.018   1.510   0.010  0.00  0.00    +0.045 C 
ATOM     15  C   UNL     1       0.002  -0.004   0.002  0.00  0.00    +0.184 C 
ATOM     16  C   UNL     1       0.654  -0.463  -1.334  0.00  0.00    +0.044 C 
ATOM     17  C   UNL     1       2.133  -0.139  -1.201  0.00  0.00    +0.008 C 
ATOM     18  C   UNL     1       2.245   1.391  -1.146  0.00  0.00    +0.008 C 
ATOM     19  C   UNL     1       0.285  -1.949  -1.294  0.00  0.00    +0.101 C 
ATOM     20  C   UNL     1      -0.974  -1.975  -0.432  0.00  0.00    +0.311 C 
ATOM     21  O   UNL     1      -1.614  -2.961  -0.152  0.00  0.00    -0.251 OA
ATOM     22  O   UNL     1      -1.260  -0.705  -0.029  0.00  0.00    -0.461 OA
ATOM     23  C   UNL     1      -0.013  -2.473  -2.701  0.00  0.00    +0.019 C 
ATOM     24  C   UNL     1       2.105   1.649   1.332  0.00  0.00    +0.012 C 
ATOM     25  H   UNL     1      -2.564   6.202   3.610  0.00  0.00    +0.158 HD
ATOM     26  H   UNL     1      -2.896   8.404   4.311  0.00  0.00    +0.151 HD
ENDROOT
BRANCH  11  27
ATOM     27  C   UNL     1      -1.772  10.106   3.724  0.00  0.00    +0.068 C 
ATOM     28  C   UNL     1      -2.982  10.970   4.085  0.00  0.00    +0.027 C 
ATOM     29  C   UNL     1      -0.647  10.357   4.731  0.00  0.00    +0.027 C 
ENDBRANCH  11  27
TORSDOF 1
