REMARK  Name = ZINC39628377
REMARK  11 active torsions:
REMARK  status: ('A' for Active; 'I' for Inactive)
REMARK    1  A    between atoms: C_1  and  C_2
REMARK    2  A    between atoms: N_8  and  C_9
REMARK    3  A    between atoms: C_9  and  C_10
REMARK    4  A    between atoms: C_10  and  C_11
REMARK    5  A    between atoms: C_11  and  N_12
REMARK    6  A    between atoms: C_13  and  C_15
REMARK    7  A    between atoms: C_26  and  C_28
REMARK    8  A    between atoms: C_31  and  O_36
REMARK    9  A    between atoms: C_33  and  O_34
REMARK   10  A    between atoms: O_34  and  C_35
REMARK   11  A    between atoms: O_36  and  C_37
REMARK                            x       y       z     vdW  Elec       q    Type
REMARK                         _______ _______ _______ _____ _____    ______ ____
ROOT
ATOM      1  C   UNL     1       1.375  -0.193   8.505  0.00  0.00    +0.100 C 
ATOM      2  C   UNL     1       1.280  -1.717   8.738  0.00  0.00    +0.121 C 
ATOM      3  N   UNL     1       1.230  -1.868  10.212  0.00  0.00    -0.296 N 
ATOM      4  C   UNL     1       0.371  -0.749  10.668  0.00  0.00    +0.115 C 
ATOM      5  C   UNL     1       0.777   0.439   9.773  0.00  0.00    -0.004 C 
ATOM      6  C   UNL     1      -0.449   1.275   9.418  0.00  0.00    -0.010 C 
ATOM      7  C   UNL     1      -0.992   1.940  10.686  0.00  0.00    -0.082 C 
ATOM      8  N   UNL     1       0.049   2.789  11.280  0.00  0.00    +0.379 N 
ATOM      9  C   UNL     1       1.186   1.963  11.703  0.00  0.00    -0.082 C 
ATOM     10  C   UNL     1       1.821   1.299  10.478  0.00  0.00    -0.010 C 
ATOM     11  C   UNL     1       1.829  -2.809  10.967  0.00  0.00    +0.250 C 
ATOM     12  O   UNL     1       2.587  -3.610  10.453  0.00  0.00    -0.270 OA
ATOM     13  H   UNL     1       0.360   3.464  10.598  0.00  0.00    -0.086 HD
ATOM     14  H   UNL     1      -0.330   3.273  12.080  0.00  0.00    -0.086 HD
ENDROOT
BRANCH  11  15
ATOM     15  C   UNL     1       1.567  -2.869  12.415  0.00  0.00    +0.079 A 
ATOM     16  C   UNL     1       0.299  -2.552  12.913  0.00  0.00    +0.020 A 
ATOM     17  C   UNL     1       0.058  -2.609  14.266  0.00  0.00    +0.046 A 
ATOM     18  C   UNL     1       1.072  -2.981  15.143  0.00  0.00    +0.124 A 
ATOM     19  C   UNL     1       2.333  -3.297  14.661  0.00  0.00    +0.092 A 
ATOM     20  C   UNL     1       2.587  -3.249  13.301  0.00  0.00    +0.136 A 
BRANCH  20  21
ATOM     21  O   UNL     1       3.818  -3.563  12.826  0.00  0.00    -0.494 OA
ATOM     22  C   UNL     1       4.806  -3.942  13.787  0.00  0.00    +0.277 C 
ENDBRANCH  20  21
BRANCH  18  23
ATOM     23  O   UNL     1       0.826  -3.035  16.477  0.00  0.00    -0.495 OA
ATOM     24  C   UNL     1      -0.494  -2.697  16.907  0.00  0.00    +0.277 C 
ENDBRANCH  18  23
ENDBRANCH  11  15
BRANCH   1  26
ATOM     25  N   UNL     1       0.834   1.366   6.663  0.00  0.00    -0.315 N 
ATOM     26  C   UNL     1       0.574   0.203   7.292  0.00  0.00    +0.218 C 
ATOM     27  O   UNL     1      -0.306  -0.524   6.882  0.00  0.00    -0.275 OA
ATOM     28  H   UNL     1       1.537   1.948   6.990  0.00  0.00    +0.149 HD
BRANCH  25  29
ATOM     29  C   UNL     1       0.054   1.752   5.484  0.00  0.00    +0.102 C 
BRANCH  29  30
ATOM     30  C   UNL     1       0.547   3.104   4.966  0.00  0.00    +0.000 C 
BRANCH  30  31
ATOM     31  C   UNL     1      -0.267   3.506   3.735  0.00  0.00    -0.077 C 
BRANCH  31  38
ATOM     32  C   UNL     1      -2.105   5.304   2.606  0.00  0.00    -0.013 C 
ATOM     33  C   UNL     1      -0.652   5.246   2.131  0.00  0.00    -0.072 C 
ATOM     34  C   UNL     1      -0.213   6.635   1.663  0.00  0.00    -0.016 C 
ATOM     35  C   UNL     1       1.242   6.572   1.189  0.00  0.00    -0.003 C 
ATOM     36  C   UNL     1       2.117   6.040   2.328  0.00  0.00    -0.019 C 
ATOM     37  C   UNL     1       1.591   4.672   2.771  0.00  0.00    -0.078 C 
ATOM     38  N   UNL     1       0.206   4.805   3.237  0.00  0.00    +0.381 N 
ATOM     39  H   UNL     1       0.167   5.483   3.983  0.00  0.00    -0.081 HD
ENDBRANCH  31  38
ENDBRANCH  30  31
ENDBRANCH  29  30
ENDBRANCH  25  29
ENDBRANCH   1  26
TORSDOF 8
