REMARK  Name = ZINC27021211
REMARK  12 active torsions:
REMARK  status: ('A' for Active; 'I' for Inactive)
REMARK    1  A    between atoms: C_1  and  O_2
REMARK    2  A    between atoms: O_2  and  C_3
REMARK    3  A    between atoms: C_3  and  C_5
REMARK    4  A    between atoms: C_8  and  C_11
REMARK    5  A    between atoms: C_12  and  C_13
REMARK    6  A    between atoms: C_12  and  C_37
REMARK    7  A    between atoms: C_21  and  C_23
REMARK    8  A    between atoms: C_23  and  C_35
REMARK    9  A    between atoms: C_24  and  C_25
REMARK   10  A    between atoms: C_28  and  C_31
REMARK   11  A    between atoms: C_31  and  O_33
REMARK   12  A    between atoms: O_33  and  C_34
REMARK                            x       y       z     vdW  Elec       q    Type
REMARK                         _______ _______ _______ _____ _____    ______ ____
ROOT
ATOM      1  C   UNL     1       5.239  -8.448  -1.326  0.00  0.00    +0.257 C 
ATOM      2  O   UNL     1       5.625  -9.113  -0.384  0.00  0.00    -0.269 OA
ATOM      3  N   UNL     1       4.772  -9.057  -2.434  0.00  0.00    -0.294 N 
ATOM      4  C   UNL     1       4.185  -8.271  -3.528  0.00  0.00    +0.127 C 
ATOM      5  C   UNL     1       4.928  -8.608  -4.827  0.00  0.00    +0.127 C 
ATOM      6  N   UNL     1       4.997 -10.070  -4.963  0.00  0.00    -0.294 N 
ATOM      7  C   UNL     1       5.585 -10.856  -3.868  0.00  0.00    +0.127 C 
ATOM      8  C   UNL     1       4.847 -10.518  -2.572  0.00  0.00    +0.127 C 
ATOM      9  C   UNL     1       4.530 -10.679  -6.071  0.00  0.00    +0.257 C 
ATOM     10  O   UNL     1       4.118 -10.014  -7.002  0.00  0.00    -0.269 OA
ENDROOT
BRANCH   1  12
ATOM     11  C   UNL     1       6.422  -6.345  -0.852  0.00  0.00    +0.032 C 
ATOM     12  C   UNL     1       5.282  -6.976  -1.256  0.00  0.00    +0.114 C 
BRANCH  11  16
ATOM     13  C   UNL     1       6.416  -2.148  -0.224  0.00  0.00    +0.059 A 
ATOM     14  C   UNL     1       5.253  -2.889  -0.000  0.00  0.00    +0.015 A 
ATOM     15  C   UNL     1       5.253  -4.250  -0.203  0.00  0.00    +0.009 A 
ATOM     16  C   UNL     1       6.420  -4.893  -0.635  0.00  0.00    -0.024 A 
ATOM     17  C   UNL     1       7.585  -4.149  -0.860  0.00  0.00    +0.009 A 
ATOM     18  C   UNL     1       7.580  -2.787  -0.660  0.00  0.00    +0.015 A 
BRANCH  13  19
ATOM     19  C   UNL     1       6.415  -0.686  -0.005  0.00  0.00    +0.339 C 
ATOM     20  O   UNL     1       7.424  -0.041  -0.204  0.00  0.00    -0.245 OA
BRANCH  19  22
ATOM     21  C   UNL     1       5.363   1.345   0.606  0.00  0.00    +0.280 C 
ATOM     22  O   UNL     1       5.293  -0.070   0.415  0.00  0.00    -0.464 OA
ENDBRANCH  19  22
ENDBRANCH  13  19
ENDBRANCH  11  16
BRANCH  12  23
ATOM     23  C   UNL     1       4.127  -6.209  -1.613  0.00  0.00    +0.104 C 
ATOM     24  N   UNL     1       3.210  -5.600  -1.896  0.00  0.00    -0.191 NA
ENDBRANCH  12  23
ENDBRANCH   1  12
BRANCH   9  25
ATOM     25  C   UNL     1       4.520 -12.150  -6.154  0.00  0.00    +0.114 C 
ATOM     26  C   UNL     1       5.284 -12.787  -7.088  0.00  0.00    +0.032 C 
BRANCH  26  27
ATOM     27  C   UNL     1       5.151 -14.236  -7.282  0.00  0.00    -0.024 A 
ATOM     28  C   UNL     1       6.255 -14.993  -7.696  0.00  0.00    +0.009 A 
ATOM     29  C   UNL     1       6.129 -16.351  -7.877  0.00  0.00    +0.015 A 
ATOM     30  C   UNL     1       4.900 -16.976  -7.648  0.00  0.00    +0.059 A 
ATOM     31  C   UNL     1       3.798 -16.223  -7.235  0.00  0.00    +0.015 A 
ATOM     32  C   UNL     1       3.922 -14.865  -7.048  0.00  0.00    +0.009 A 
BRANCH  30  33
ATOM     33  C   UNL     1       4.766 -18.435  -7.844  0.00  0.00    +0.339 C 
ATOM     34  O   UNL     1       5.723 -19.090  -8.203  0.00  0.00    -0.245 OA
BRANCH  33  35
ATOM     35  O   UNL     1       3.582 -19.038  -7.623  0.00  0.00    -0.464 OA
ATOM     36  C   UNL     1       3.524 -20.450  -7.832  0.00  0.00    +0.280 C 
ENDBRANCH  33  35
ENDBRANCH  30  33
ENDBRANCH  26  27
BRANCH  25  37
ATOM     37  C   UNL     1       3.707 -12.912  -5.254  0.00  0.00    +0.104 C 
ATOM     38  N   UNL     1       3.062 -13.517  -4.540  0.00  0.00    -0.191 NA
ENDBRANCH  25  37
ENDBRANCH   9  25
TORSDOF 10
