REMARK  Name = ZINC36609302
REMARK  8 active torsions:
REMARK  status: ('A' for Active; 'I' for Inactive)
REMARK    1  A    between atoms: C_4  and  N_7
REMARK    2  A    between atoms: N_7  and  C_8
REMARK    3  A    between atoms: C_8  and  C_10
REMARK    4  A    between atoms: C_8  and  C_16
REMARK    5  A    between atoms: N_18  and  C_19
REMARK    6  A    between atoms: C_25  and  C_27
REMARK    7  A    between atoms: C_29  and  N_34
REMARK    8  A    between atoms: C_32  and  O_33
REMARK                            x       y       z     vdW  Elec       q    Type
REMARK                         _______ _______ _______ _____ _____    ______ ____
ROOT
ATOM      1  N   UNL     1       4.224  -0.775  -0.804  0.00  0.00    -0.255 N 
ATOM      2  C   UNL     1       5.428  -0.343  -0.380  0.00  0.00    +0.255 C 
ATOM      3  O   UNL     1       6.211  -1.125   0.124  0.00  0.00    -0.269 OA
ENDROOT
BRANCH   1   7
ATOM      4  C   UNL     1       1.579   1.881  -2.621  0.00  0.00    +0.000 A 
ATOM      5  C   UNL     1       2.841   1.691  -3.154  0.00  0.00    +0.002 A 
ATOM      6  C   UNL     1       3.720   0.811  -2.554  0.00  0.00    +0.023 A 
ATOM      7  C   UNL     1       3.336   0.117  -1.414  0.00  0.00    +0.037 A 
ATOM      8  C   UNL     1       2.068   0.310  -0.881  0.00  0.00    +0.023 A 
ATOM      9  C   UNL     1       1.194   1.192  -1.486  0.00  0.00    +0.002 A 
ENDBRANCH   1   7
BRANCH   2  10
ATOM     10  C   UNL     1       5.796   1.077  -0.527  0.00  0.00    +0.081 A 
ATOM     11  C   UNL     1       4.808   2.065  -0.504  0.00  0.00    +0.049 A 
ATOM     12  C   UNL     1       5.158   3.391  -0.642  0.00  0.00    +0.127 A 
ATOM     13  C   UNL     1       6.486   3.749  -0.805  0.00  0.00    +0.036 A 
ATOM     14  C   UNL     1       7.473   2.784  -0.830  0.00  0.00    +0.048 A 
ATOM     15  C   UNL     1       7.139   1.445  -0.686  0.00  0.00    +0.129 A 
BRANCH  12  16
ATOM     16  N   UNL     1       4.110   4.436  -0.617  0.00  0.00    +0.056 N 
ATOM     17  O   UNL     1       2.963   4.136  -0.382  0.00  0.00    -0.126 OA
ATOM     18  O   UNL     1       4.402   5.589  -0.832  0.00  0.00    -0.126 OA
ENDBRANCH  12  16
BRANCH  15  19
ATOM     19  O   UNL     1       8.108   0.496  -0.704  0.00  0.00    -0.506 OA
ATOM     20  H   UNL     1       8.304   0.151  -1.586  0.00  0.00    +0.292 HD
ENDBRANCH  15  19
ENDBRANCH   2  10
BRANCH   1  21
ATOM     21  C   UNL     1       3.845  -2.179  -0.627  0.00  0.00    +0.170 C 
BRANCH  21  22
ATOM     22  C   UNL     1       2.632  -2.267   0.301  0.00  0.00    +0.019 C 
ATOM     23  C   UNL     1       2.928  -1.515   1.600  0.00  0.00    +0.006 C 
ATOM     24  C   UNL     1       1.714  -1.602   2.528  0.00  0.00    +0.000 C 
ATOM     25  C   UNL     1       1.419  -3.070   2.844  0.00  0.00    +0.000 C 
ATOM     26  C   UNL     1       1.123  -3.822   1.545  0.00  0.00    +0.000 C 
ATOM     27  C   UNL     1       2.337  -3.735   0.617  0.00  0.00    +0.006 C 
ENDBRANCH  21  22
BRANCH  21  28
ATOM     28  C   UNL     1       3.499  -2.779  -1.965  0.00  0.00    +0.234 C 
ATOM     29  O   UNL     1       3.402  -2.067  -2.942  0.00  0.00    -0.274 OA
ATOM     30  N   UNL     1       3.297  -4.107  -2.076  0.00  0.00    -0.311 N 
ATOM     31  H   UNL     1       3.289  -4.665  -1.283  0.00  0.00    +0.149 HD
BRANCH  30  32
ATOM     32  C   UNL     1       3.088  -4.708  -3.396  0.00  0.00    +0.073 C 
ATOM     33  C   UNL     1       4.443  -5.009  -4.040  0.00  0.00    +0.022 C 
ATOM     34  C   UNL     1       4.225  -5.637  -5.418  0.00  0.00    +0.002 C 
ATOM     35  C   UNL     1       3.432  -6.937  -5.266  0.00  0.00    +0.000 C 
ATOM     36  C   UNL     1       2.077  -6.636  -4.623  0.00  0.00    +0.002 C 
ATOM     37  C   UNL     1       2.295  -6.008  -3.245  0.00  0.00    +0.022 C 
ENDBRANCH  30  32
ENDBRANCH  21  28
ENDBRANCH   1  21
TORSDOF 8
