REMARK  Name = ZINC39595749
REMARK  11 active torsions:
REMARK  status: ('A' for Active; 'I' for Inactive)
REMARK    1  A    between atoms: C_1  and  C_2
REMARK    2  A    between atoms: C_2  and  C_4
REMARK    3  A    between atoms: C_2  and  O_31
REMARK    4  A    between atoms: C_4  and  N_5
REMARK    5  A    between atoms: C_6  and  C_8
REMARK    6  A    between atoms: C_19  and  C_21
REMARK    7  A    between atoms: C_24  and  O_29
REMARK    8  A    between atoms: C_26  and  O_27
REMARK    9  A    between atoms: O_27  and  C_28
REMARK   10  A    between atoms: O_29  and  C_30
REMARK   11  A    between atoms: O_31  and  C_32
REMARK                            x       y       z     vdW  Elec       q    Type
REMARK                         _______ _______ _______ _____ _____    ______ ____
ROOT
ATOM      1  C   UNL     1      -2.284  -4.092   0.450  0.00  0.00    +0.100 C 
ATOM      2  C   UNL     1      -1.477  -4.358  -0.841  0.00  0.00    +0.121 C 
ATOM      3  N   UNL     1      -2.067  -5.596  -1.403  0.00  0.00    -0.296 N 
ATOM      4  C   UNL     1      -3.523  -5.450  -1.167  0.00  0.00    +0.115 C 
ATOM      5  C   UNL     1      -3.627  -4.810   0.231  0.00  0.00    -0.004 C 
ATOM      6  C   UNL     1      -4.775  -3.806   0.267  0.00  0.00    -0.010 C 
ATOM      7  C   UNL     1      -6.103  -4.550   0.106  0.00  0.00    -0.082 C 
ATOM      8  N   UNL     1      -6.250  -5.532   1.188  0.00  0.00    +0.379 N 
ATOM      9  C   UNL     1      -5.195  -6.548   1.089  0.00  0.00    -0.082 C 
ATOM     10  C   UNL     1      -3.828  -5.887   1.292  0.00  0.00    -0.010 C 
ATOM     11  C   UNL     1      -1.424  -6.623  -1.994  0.00  0.00    +0.250 C 
ATOM     12  O   UNL     1      -0.208  -6.637  -2.034  0.00  0.00    -0.270 OA
ATOM     13  H   UNL     1      -6.182  -5.062   2.078  0.00  0.00    -0.086 HD
ATOM     14  H   UNL     1      -7.153  -5.978   1.115  0.00  0.00    -0.086 HD
ENDROOT
BRANCH  11  15
ATOM     15  C   UNL     1      -2.193  -7.728  -2.590  0.00  0.00    +0.079 A 
ATOM     16  C   UNL     1      -3.422  -7.475  -3.208  0.00  0.00    +0.020 A 
ATOM     17  C   UNL     1      -4.137  -8.510  -3.764  0.00  0.00    +0.046 A 
ATOM     18  C   UNL     1      -3.643  -9.810  -3.713  0.00  0.00    +0.124 A 
ATOM     19  C   UNL     1      -2.427 -10.073  -3.102  0.00  0.00    +0.092 A 
ATOM     20  C   UNL     1      -1.694  -9.039  -2.544  0.00  0.00    +0.136 A 
BRANCH  20  21
ATOM     21  O   UNL     1      -0.501  -9.293  -1.950  0.00  0.00    -0.494 OA
ATOM     22  C   UNL     1      -0.057 -10.651  -1.942  0.00  0.00    +0.277 C 
ENDBRANCH  20  21
BRANCH  18  23
ATOM     23  O   UNL     1      -4.356 -10.826  -4.264  0.00  0.00    -0.495 OA
ATOM     24  C   UNL     1      -5.601 -10.486  -4.878  0.00  0.00    +0.277 C 
ENDBRANCH  18  23
ENDBRANCH  11  15
BRANCH   1  26
ATOM     25  N   UNL     1      -2.622  -2.099   1.876  0.00  0.00    -0.312 N 
ATOM     26  C   UNL     1      -2.504  -2.613   0.635  0.00  0.00    +0.218 C 
ATOM     27  O   UNL     1      -2.575  -1.884  -0.332  0.00  0.00    -0.275 OA
ATOM     28  H   UNL     1      -2.566  -2.682   2.649  0.00  0.00    +0.149 HD
BRANCH  25  29
ATOM     29  C   UNL     1      -2.836  -0.661   2.056  0.00  0.00    +0.148 C 
BRANCH  29  31
ATOM     30  C   UNL     1      -3.282   1.134   3.735  0.00  0.00    +0.053 C 
ATOM     31  C   UNL     1      -2.935  -0.344   3.550  0.00  0.00    +0.187 C 
BRANCH  31  32
ATOM     32  O   UNL     1      -1.683  -0.622   4.180  0.00  0.00    -0.488 OA
BRANCH  32  33
ATOM     33  C   UNL     1      -1.707  -0.878   5.514  0.00  0.00    +0.121 A 
ATOM     34  C   UNL     1      -2.916  -0.916   6.192  0.00  0.00    +0.048 A 
ATOM     35  C   UNL     1      -2.939  -1.177   7.549  0.00  0.00    +0.042 A 
ATOM     36  C   UNL     1      -1.756  -1.400   8.232  0.00  0.00    +0.124 A 
ATOM     37  C   UNL     1      -0.548  -1.362   7.556  0.00  0.00    +0.042 A 
ATOM     38  C   UNL     1      -0.522  -1.108   6.199  0.00  0.00    +0.048 A 
ATOM     39  F   UNL     1      -1.780  -1.654   9.558  0.00  0.00    -0.205 F 
ENDBRANCH  32  33
ENDBRANCH  31  32
ENDBRANCH  29  31
ENDBRANCH  25  29
ENDBRANCH   1  26
TORSDOF 8
