REMARK  Name = ZINC14768804
REMARK  11 active torsions:
REMARK  status: ('A' for Active; 'I' for Inactive)
REMARK    1  A    between atoms: C_1  and  C_2
REMARK    2  A    between atoms: C_2  and  C_3
REMARK    3  A    between atoms: C_3  and  C_5
REMARK    4  A    between atoms: C_3  and  O_21
REMARK    5  A    between atoms: N_7  and  N_8
REMARK    6  A    between atoms: C_9  and  C_11
REMARK    7  A    between atoms: C_11  and  O_12
REMARK    8  A    between atoms: O_12  and  C_13
REMARK    9  A    between atoms: C_18  and  C_19
REMARK   10  A    between atoms: O_21  and  C_22
REMARK   11  A    between atoms: C_25  and  C_28
REMARK                            x       y       z     vdW  Elec       q    Type
REMARK                         _______ _______ _______ _____ _____    ______ ____
ROOT
ATOM      1  C   UNL     1      -2.326   3.949   0.950  0.00  0.00    +0.270 C 
ATOM      2  O   UNL     1      -3.129   3.151   1.385  0.00  0.00    -0.270 OA
ATOM      3  N   UNL     1      -2.485   5.265   1.194  0.00  0.00    -0.231 N 
ATOM      4  H   UNL     1      -1.843   5.903   0.846  0.00  0.00    +0.173 HD
ENDROOT
BRANCH   3   5
ATOM      5  N   UNL     1      -3.577   5.711   1.950  0.00  0.00    -0.231 N 
ATOM      6  C   UNL     1      -3.736   7.027   2.193  0.00  0.00    +0.267 C 
ATOM      7  O   UNL     1      -2.933   7.825   1.758  0.00  0.00    -0.271 OA
ATOM      8  H   UNL     1      -4.219   5.072   2.298  0.00  0.00    +0.173 HD
BRANCH   6   9
ATOM      9  C   UNL     1      -4.910   7.506   3.006  0.00  0.00    +0.326 C 
BRANCH   9  10
ATOM     10  O   UNL     1      -4.858   8.930   3.125  0.00  0.00    -0.482 OA
BRANCH  10  11
ATOM     11  C   UNL     1      -5.853   9.526   3.833  0.00  0.00    +0.124 A 
ATOM     12  C   UNL     1      -6.858   8.758   4.403  0.00  0.00    +0.047 A 
ATOM     13  C   UNL     1      -7.867   9.366   5.122  0.00  0.00    +0.019 A 
ATOM     14  C   UNL     1      -7.877  10.742   5.276  0.00  0.00    +0.018 A 
ATOM     15  C   UNL     1      -6.876  11.509   4.709  0.00  0.00    +0.022 A 
ATOM     16  C   UNL     1      -5.861  10.904   3.993  0.00  0.00    -0.008 A 
ATOM     17  C   UNL     1      -4.767  11.741   3.381  0.00  0.00    +0.047 C 
ATOM     18 BR   UNL     1      -9.261  11.572   6.262  0.00  0.00    -0.050 Br
ENDBRANCH  10  11
ENDBRANCH   9  10
ENDBRANCH   6   9
ENDBRANCH   3   5
BRANCH   1  19
ATOM     19  C   UNL     1      -1.151   3.469   0.137  0.00  0.00    +0.260 C 
BRANCH  19  21
ATOM     20  C   UNL     1       0.052   3.712  -2.039  0.00  0.00    +0.008 C 
ATOM     21  C   UNL     1      -1.204   4.099  -1.256  0.00  0.00    +0.051 C 
ENDBRANCH  19  21
BRANCH  19  22
ATOM     22  O   UNL     1      -1.203   2.046   0.019  0.00  0.00    -0.480 OA
BRANCH  22  23
ATOM     23  C   UNL     1      -0.024   1.377   0.102  0.00  0.00    +0.122 A 
ATOM     24  C   UNL     1      -0.015  -0.011   0.118  0.00  0.00    +0.046 A 
ATOM     25  C   UNL     1       1.180  -0.694   0.209  0.00  0.00    +0.012 A 
ATOM     26  C   UNL     1       2.380   0.012   0.284  0.00  0.00    -0.018 A 
ATOM     27  C   UNL     1       2.368   1.406   0.268  0.00  0.00    +0.012 A 
ATOM     28  C   UNL     1       1.169   2.082   0.177  0.00  0.00    +0.046 A 
BRANCH  26  29
ATOM     29  C   UNL     1       3.667  -0.719   0.382  0.00  0.00    -0.018 A 
ATOM     30  C   UNL     1       4.868  -0.015   0.452  0.00  0.00    +0.008 A 
ATOM     31  C   UNL     1       6.062  -0.700   0.547  0.00  0.00    +0.001 A 
ATOM     32  C   UNL     1       6.070  -2.083   0.563  0.00  0.00    +0.000 A 
ATOM     33  C   UNL     1       4.882  -2.787   0.489  0.00  0.00    +0.001 A 
ATOM     34  C   UNL     1       3.681  -2.112   0.398  0.00  0.00    +0.008 A 
ENDBRANCH  26  29
ENDBRANCH  22  23
ENDBRANCH  19  22
ENDBRANCH   1  19
TORSDOF 9
