REMARK  Name = ZINC40014694
REMARK  14 active torsions:
REMARK  status: ('A' for Active; 'I' for Inactive)
REMARK    1  A    between atoms: C_1  and  C_2
REMARK    2  A    between atoms: C_2  and  C_3
REMARK    3  A    between atoms: C_3  and  C_4
REMARK    4  A    between atoms: C_4  and  N_5
REMARK    5  A    between atoms: N_5  and  C_6
REMARK    6  A    between atoms: N_5  and  C_10
REMARK    7  A    between atoms: C_6  and  C_7
REMARK    8  A    between atoms: C_7  and  C_8
REMARK    9  A    between atoms: C_8  and  C_9
REMARK   10  A    between atoms: C_10  and  C_11
REMARK   11  A    between atoms: C_11  and  C_12
REMARK   12  A    between atoms: C_12  and  N_13
REMARK   13  A    between atoms: C_14  and  C_30
REMARK   14  A    between atoms: C_34  and  O_36
REMARK                            x       y       z     vdW  Elec       q    Type
REMARK                         _______ _______ _______ _____ _____    ______ ____
ROOT
ATOM      1  N   UNL     1      -1.577  -6.025   3.381  0.00  0.00    -0.284 N 
ATOM      2  C   UNL     1      -0.151  -6.318   3.598  0.00  0.00    +0.145 C 
ATOM      3  C   UNL     1       0.008  -6.503   5.071  0.00  0.00    +0.072 A 
ATOM      4  C   UNL     1       1.187  -6.822   5.884  0.00  0.00    +0.199 A 
ATOM      5  O   UNL     1       2.322  -6.820   5.442  0.00  0.00    -0.287 OA
ATOM      6  C   UNL     1       0.865  -7.147   7.296  0.00  0.00    +0.066 A 
ATOM      7  C   UNL     1       1.846  -7.662   8.143  0.00  0.00    +0.035 A 
ATOM      8  C   UNL     1       1.528  -7.964   9.450  0.00  0.00    +0.042 A 
ATOM      9  C   UNL     1       0.237  -7.754   9.917  0.00  0.00    +0.023 A 
ATOM     10  C   UNL     1      -0.738  -7.245   9.091  0.00  0.00    +0.048 A 
ATOM     11  C   UNL     1      -0.441  -6.930   7.765  0.00  0.00    +0.140 A 
ATOM     12  O   UNL     1      -1.416  -6.421   6.977  0.00  0.00    -0.450 OA
ATOM     13  C   UNL     1      -1.218  -6.327   5.648  0.00  0.00    +0.199 A 
ATOM     14  C   UNL     1      -2.191  -6.028   4.582  0.00  0.00    +0.283 C 
ATOM     15  O   UNL     1      -3.374  -5.817   4.760  0.00  0.00    -0.267 OA
ATOM     16 CL   UNL     1       2.742  -8.605  10.512  0.00  0.00    -0.084 Cl
ENDROOT
BRANCH   2  17
ATOM     17  C   UNL     1       0.238  -7.578   2.869  0.00  0.00    -0.019 A 
ATOM     18  C   UNL     1      -0.627  -8.657   2.846  0.00  0.00    +0.006 A 
ATOM     19  C   UNL     1      -0.274  -9.815   2.178  0.00  0.00    +0.004 A 
ATOM     20  C   UNL     1       0.945  -9.896   1.532  0.00  0.00    +0.045 A 
ATOM     21  C   UNL     1       1.814  -8.815   1.553  0.00  0.00    +0.117 A 
ATOM     22  C   UNL     1       1.454  -7.652   2.220  0.00  0.00    +0.051 A 
BRANCH  21  23
ATOM     23  O   UNL     1       3.013  -8.893   0.919  0.00  0.00    -0.507 OA
ATOM     24  H   UNL     1       2.990  -8.603  -0.003  0.00  0.00    +0.292 HD
ENDBRANCH  21  23
ENDBRANCH   2  17
BRANCH   1  25
ATOM     25  C   UNL     1      -2.217  -5.769   2.089  0.00  0.00    +0.107 C 
BRANCH  25  26
ATOM     26  C   UNL     1      -2.166  -4.271   1.782  0.00  0.00    +0.000 C 
BRANCH  26  27
ATOM     27  C   UNL     1      -2.834  -4.003   0.432  0.00  0.00    -0.077 C 
BRANCH  27  28
ATOM     28  N   UNL     1      -2.785  -2.565   0.138  0.00  0.00    +0.380 N 
ATOM     29  H   UNL     1      -3.200  -2.051   0.901  0.00  0.00    -0.082 HD
BRANCH  28  30
ATOM     30  C   UNL     1      -1.387  -2.147  -0.031  0.00  0.00    -0.079 C 
BRANCH  30  31
ATOM     31  C   UNL     1      -1.326  -0.627  -0.195  0.00  0.00    -0.019 C 
BRANCH  31  33
ATOM     32  C   UNL     1       0.197   1.343  -0.401  0.00  0.00    +0.004 C 
ATOM     33  C   UNL     1       0.136  -0.177  -0.236  0.00  0.00    -0.005 C 
ENDBRANCH  31  33
ENDBRANCH  30  31
ENDBRANCH  28  30
BRANCH  28  34
ATOM     34  C   UNL     1      -3.530  -2.292  -1.098  0.00  0.00    -0.079 C 
BRANCH  34  35
ATOM     35  C   UNL     1      -5.014  -2.593  -0.876  0.00  0.00    -0.019 C 
BRANCH  35  36
ATOM     36  C   UNL     1      -5.809  -2.184  -2.119  0.00  0.00    -0.005 C 
ATOM     37  C   UNL     1      -7.293  -2.484  -1.897  0.00  0.00    +0.004 C 
ENDBRANCH  35  36
ENDBRANCH  34  35
ENDBRANCH  28  34
ENDBRANCH  27  28
ENDBRANCH  26  27
ENDBRANCH  25  26
ENDBRANCH   1  25
TORSDOF 12
