REMARK  Name = ZINC36640434
REMARK  17 active torsions:
REMARK  status: ('A' for Active; 'I' for Inactive)
REMARK    1  A    between atoms: C_1  and  C_2
REMARK    2  A    between atoms: C_2  and  N_3
REMARK    3  A    between atoms: N_3  and  C_4
REMARK    4  A    between atoms: N_3  and  C_6
REMARK    5  A    between atoms: C_4  and  C_5
REMARK    6  A    between atoms: C_6  and  C_7
REMARK    7  A    between atoms: C_7  and  N_8
REMARK    8  A    between atoms: C_12  and  O_19
REMARK    9  A    between atoms: C_15  and  C_18
REMARK   10  A    between atoms: O_19  and  C_20
REMARK   11  A    between atoms: C_21  and  C_23
REMARK   12  A    between atoms: C_26  and  S_29
REMARK   13  A    between atoms: S_29  and  N_32
REMARK   14  A    between atoms: N_32  and  C_33
REMARK   15  A    between atoms: N_32  and  C_35
REMARK   16  A    between atoms: C_33  and  C_34
REMARK   17  A    between atoms: C_35  and  C_36
REMARK                            x       y       z     vdW  Elec       q    Type
REMARK                         _______ _______ _______ _____ _____    ______ ____
ROOT
ATOM      1  N   UNL     1      -0.662  -3.399   2.159  0.00  0.00    -0.248 N 
ATOM      2  C   UNL     1       0.508  -4.027   1.767  0.00  0.00    +0.168 A 
ATOM      3  N   UNL     1       1.668  -3.493   1.467  0.00  0.00    -0.221 NA
ATOM      4  C   UNL     1       2.735  -4.235   1.096  0.00  0.00    +0.122 A 
ATOM      5  C   UNL     1       4.035  -3.786   0.748  0.00  0.00    +0.147 A 
ATOM      6  C   UNL     1       5.014  -4.684   0.391  0.00  0.00    +0.048 A 
ATOM      7  C   UNL     1       4.767  -6.048   0.358  0.00  0.00    +0.008 A 
ATOM      8  C   UNL     1       3.510  -6.518   0.692  0.00  0.00    -0.034 A 
ATOM      9  C   UNL     1       2.525  -5.630   1.051  0.00  0.00    +0.047 A 
ATOM     10  S   UNL     1       0.825  -5.773   1.548  0.00  0.00    -0.051 S 
ATOM     11  C   UNL     1       3.222  -7.997   0.662  0.00  0.00    +0.045 C 
ATOM     12  C   UNL     1      -1.761  -4.131   2.433  0.00  0.00    +0.252 C 
ATOM     13  O   UNL     1      -1.707  -5.345   2.395  0.00  0.00    -0.270 OA
ENDROOT
BRANCH  12  14
ATOM     14  C   UNL     1      -3.030  -3.458   2.778  0.00  0.00    +0.037 A 
ATOM     15  C   UNL     1      -3.522  -2.432   1.969  0.00  0.00    +0.015 A 
ATOM     16  C   UNL     1      -4.708  -1.808   2.297  0.00  0.00    +0.029 A 
ATOM     17  C   UNL     1      -5.409  -2.196   3.425  0.00  0.00    +0.106 A 
ATOM     18  C   UNL     1      -4.927  -3.212   4.231  0.00  0.00    +0.029 A 
ATOM     19  C   UNL     1      -3.745  -3.849   3.911  0.00  0.00    +0.015 A 
BRANCH  17  20
ATOM     20  S   UNL     1      -6.922  -1.393   3.837  0.00  0.00    +0.061 S 
ATOM     21  O   UNL     1      -7.107  -1.568   5.236  0.00  0.00    -0.153 OA
ATOM     22  O   UNL     1      -6.880  -0.110   3.229  0.00  0.00    -0.153 OA
BRANCH  20  23
ATOM     23  N   UNL     1      -8.140  -2.231   3.091  0.00  0.00    -0.177 NA
BRANCH  23  24
ATOM     24  C   UNL     1      -8.795  -3.344   3.783  0.00  0.00    +0.106 C 
ATOM     25  C   UNL     1     -10.062  -2.839   4.476  0.00  0.00    +0.022 C 
ENDBRANCH  23  24
BRANCH  23  26
ATOM     26  C   UNL     1      -8.563  -1.858   1.738  0.00  0.00    +0.106 C 
ATOM     27  C   UNL     1      -7.832  -2.731   0.717  0.00  0.00    +0.022 C 
ENDBRANCH  23  26
ENDBRANCH  20  23
ENDBRANCH  17  20
ENDBRANCH  12  14
BRANCH   5  28
ATOM     28  O   UNL     1       4.316  -2.456   0.768  0.00  0.00    -0.493 OA
ATOM     29  C   UNL     1       5.643  -2.068   0.407  0.00  0.00    +0.277 C 
ENDBRANCH   5  28
BRANCH   1  30
ATOM     30  C   UNL     1      -0.707  -1.940   2.277  0.00  0.00    +0.097 C 
BRANCH  30  31
ATOM     31  C   UNL     1      -0.801  -1.318   0.882  0.00  0.00    -0.059 C 
BRANCH  31  32
ATOM     32  N   UNL     1      -0.996   0.133   1.005  0.00  0.00    +0.380 N 
ATOM     33  H   UNL     1      -1.802   0.316   1.582  0.00  0.00    -0.082 HD
BRANCH  32  35
ATOM     34  C   UNL     1      -0.063   2.222   1.877  0.00  0.00    -0.017 C 
ATOM     35  C   UNL     1       0.194   0.736   1.619  0.00  0.00    -0.082 C 
ENDBRANCH  32  35
BRANCH  32  36
ATOM     36  C   UNL     1      -1.206   0.713  -0.328  0.00  0.00    -0.082 C 
ATOM     37  C   UNL     1      -2.521   0.191  -0.910  0.00  0.00    -0.017 C 
ENDBRANCH  32  36
ENDBRANCH  31  32
ENDBRANCH  30  31
ENDBRANCH   1  30
TORSDOF 11
