REMARK  Name = ZINC15866209
REMARK  6 active torsions:
REMARK  status: ('A' for Active; 'I' for Inactive)
REMARK    1  A    between atoms: C_1  and  O_2
REMARK    2  A    between atoms: O_2  and  C_3
REMARK    3  A    between atoms: C_7  and  C_13
REMARK    4  A    between atoms: C_8  and  O_9
REMARK    5  A    between atoms: O_9  and  C_10
REMARK    6  A    between atoms: C_16  and  C_24
REMARK                            x       y       z     vdW  Elec       q    Type
REMARK                         _______ _______ _______ _____ _____    ______ ____
ROOT
ATOM      1  C   UNL     1       3.685   2.172  -0.020  0.00  0.00    +0.148 C 
ATOM      2  C   UNL     1       4.491   1.804  -1.272  0.00  0.00    +0.059 C 
ATOM      3  C   UNL     1       5.917   2.354  -1.152  0.00  0.00    +0.106 C 
ATOM      4  N   UNL     1       6.572   1.717   0.008  0.00  0.00    -0.305 N 
ATOM      5  C   UNL     1       5.808   1.610   1.161  0.00  0.00    +0.236 A 
ATOM      6  N   UNL     1       4.467   1.821   1.162  0.00  0.00    -0.206 N 
ATOM      7  N   UNL     1       4.061   1.630   2.483  0.00  0.00    -0.042 NA
ATOM      8  N   UNL     1       5.125   1.330   3.155  0.00  0.00    -0.021 NA
ATOM      9  N   UNL     1       6.156   1.316   2.382  0.00  0.00    -0.092 NA
ATOM     10  H   UNL     1       7.486   1.393  -0.034  0.00  0.00    +0.150 HD
ENDROOT
BRANCH   3  11
ATOM     11  C   UNL     1       5.868   3.846  -0.949  0.00  0.00    -0.027 A 
ATOM     12  C   UNL     1       5.578   4.364   0.300  0.00  0.00    +0.006 A 
ATOM     13  C   UNL     1       5.538   5.733   0.488  0.00  0.00    +0.015 A 
ATOM     14  C   UNL     1       5.777   6.584  -0.576  0.00  0.00    +0.018 A 
ATOM     15  C   UNL     1       6.061   6.065  -1.826  0.00  0.00    +0.015 A 
ATOM     16  C   UNL     1       6.106   4.697  -2.012  0.00  0.00    +0.006 A 
ATOM     17 BR   UNL     1       5.715   8.457  -0.321  0.00  0.00    -0.050 Br
ENDBRANCH   3  11
BRANCH   1  22
ATOM     18  C   UNL     1      -0.017   1.381   0.010  0.00  0.00    +0.162 A 
ATOM     19  C   UNL     1       0.002  -0.004   0.002  0.00  0.00    +0.049 A 
ATOM     20  C   UNL     1       1.208  -0.679  -0.013  0.00  0.00    +0.004 A 
ATOM     21  C   UNL     1       2.398   0.026  -0.020  0.00  0.00    +0.009 A 
ATOM     22  C   UNL     1       2.386   1.408  -0.012  0.00  0.00    +0.023 A 
ATOM     23  C   UNL     1       1.181   2.091   0.002  0.00  0.00    +0.173 A 
BRANCH  18  25
ATOM     24  C   UNL     1      -2.392   1.254   0.020  0.00  0.00    +0.277 C 
ATOM     25  O   UNL     1      -1.203   2.047   0.019  0.00  0.00    -0.491 OA
ENDBRANCH  18  25
BRANCH  23  26
ATOM     26  O   UNL     1       1.167   3.450   0.009  0.00  0.00    -0.430 OA
BRANCH  26  27
ATOM     27  C   UNL     1       1.173   4.093   1.286  0.00  0.00    +0.541 C 
ATOM     28  F   UNL     1       0.041   3.702   2.009  0.00  0.00    -0.166 F 
ATOM     29  F   UNL     1       2.325   3.724   1.988  0.00  0.00    -0.166 F 
ENDBRANCH  26  27
ENDBRANCH  23  26
ENDBRANCH   1  22
TORSDOF 5
