REMARK  Name = ZINC14882454
REMARK  10 active torsions:
REMARK  status: ('A' for Active; 'I' for Inactive)
REMARK    1  A    between atoms: C_1  and  O_2
REMARK    2  A    between atoms: O_2  and  C_3
REMARK    3  A    between atoms: C_7  and  C_10
REMARK    4  A    between atoms: C_8  and  O_9
REMARK    5  A    between atoms: C_10  and  N_67
REMARK    6  A    between atoms: C_13  and  C_16
REMARK    7  A    between atoms: C_16  and  C_27
REMARK    8  A    between atoms: N_19  and  C_23
REMARK    9  A    between atoms: C_23  and  C_24
REMARK   10  A    between atoms: C_27  and  C_28
REMARK                            x       y       z     vdW  Elec       q    Type
REMARK                         _______ _______ _______ _____ _____    ______ ____
ROOT
ATOM      1  C   UNL     1      -4.781  -2.051   7.906  0.00  0.00    +0.119 C 
ATOM      2  C   UNL     1      -5.386  -1.827   9.277  0.00  0.00    +0.247 C 
ATOM      3  O   UNL     1      -4.886  -2.087  10.350  0.00  0.00    -0.273 OA
ATOM      4  N   UNL     1      -6.597  -1.277   9.056  0.00  0.00    -0.224 N 
ATOM      5  C   UNL     1      -6.838  -1.124   7.749  0.00  0.00    +0.309 C 
ATOM      6  O   UNL     1      -7.864  -0.650   7.302  0.00  0.00    -0.252 OA
ATOM      7  N   UNL     1      -5.818  -1.555   6.985  0.00  0.00    -0.284 N 
ATOM      8  H   UNL     1      -5.774  -1.541   6.016  0.00  0.00    +0.151 HD
ENDROOT
BRANCH   1  11
ATOM      9  C   UNL     1      -1.658  -0.612   6.176  0.00  0.00    -0.078 C 
ATOM     10  C   UNL     1      -2.914  -1.468   6.348  0.00  0.00    -0.013 C 
ATOM     11  C   UNL     1      -3.491  -1.244   7.749  0.00  0.00    +0.018 C 
ATOM     12  C   UNL     1      -3.793   0.246   7.936  0.00  0.00    -0.013 C 
ATOM     13  C   UNL     1      -2.511   1.052   7.717  0.00  0.00    -0.078 C 
ATOM     14  N   UNL     1      -2.021   0.812   6.343  0.00  0.00    +0.382 N 
ATOM     15  H   UNL     1      -2.767   1.046   5.678  0.00  0.00    -0.081 HD
BRANCH  14  16
ATOM     16  C   UNL     1      -0.848   1.667   6.069  0.00  0.00    -0.039 C 
BRANCH  16  21
ATOM     17  C   UNL     1      -0.148   1.182   2.380  0.00  0.00    +0.161 A 
ATOM     18  C   UNL     1       0.990   0.393   2.422  0.00  0.00    +0.049 A 
ATOM     19  C   UNL     1       1.534   0.028   3.639  0.00  0.00    +0.004 A 
ATOM     20  C   UNL     1       0.938   0.439   4.817  0.00  0.00    +0.005 A 
ATOM     21  C   UNL     1      -0.201   1.221   4.783  0.00  0.00    -0.019 A 
ATOM     22  C   UNL     1      -0.748   1.595   3.566  0.00  0.00    +0.160 A 
BRANCH  17  24
ATOM     23  C   UNL     1      -0.013   1.086   0.008  0.00  0.00    +0.277 C 
ATOM     24  O   UNL     1      -0.682   1.547   1.184  0.00  0.00    -0.491 OA
ENDBRANCH  17  24
BRANCH  22  25
ATOM     25  O   UNL     1      -1.869   2.365   3.531  0.00  0.00    -0.503 OA
ATOM     26  H   UNL     1      -2.693   1.859   3.521  0.00  0.00    +0.292 HD
ENDBRANCH  22  25
ENDBRANCH  16  21
ENDBRANCH  14  16
ENDBRANCH   1  11
BRANCH   4  27
ATOM     27  C   UNL     1      -7.533  -0.895  10.116  0.00  0.00    +0.121 C 
BRANCH  27  28
ATOM     28  C   UNL     1      -7.270   0.554  10.531  0.00  0.00    +0.007 C 
ATOM     29  C   UNL     1      -6.802   0.804  11.966  0.00  0.00    +0.005 C 
ATOM     30  C   UNL     1      -8.225   1.181  11.549  0.00  0.00    +0.005 C 
ENDBRANCH  27  28
ENDBRANCH   4  27
BRANCH   1  31
ATOM     31  C   UNL     1      -4.515  -3.539   7.671  0.00  0.00    +0.072 C 
BRANCH  31  32
ATOM     32  C   UNL     1      -5.819  -4.295   7.710  0.00  0.00    -0.027 A 
ATOM     33  C   UNL     1      -6.234  -4.897   8.883  0.00  0.00    +0.005 A 
ATOM     34  C   UNL     1      -7.431  -5.586   8.920  0.00  0.00    +0.000 A 
ATOM     35  C   UNL     1      -8.210  -5.682   7.782  0.00  0.00    +0.001 A 
ATOM     36  C   UNL     1      -7.794  -5.084   6.607  0.00  0.00    +0.020 A 
ATOM     37  C   UNL     1      -6.597  -4.390   6.571  0.00  0.00    +0.044 A 
ATOM     38 CL   UNL     1      -6.073  -3.639   5.096  0.00  0.00    -0.083 Cl
ENDBRANCH  31  32
ENDBRANCH   1  31
TORSDOF 9
