REMARK  Name = ZINC61853794
REMARK  6 active torsions:
REMARK  status: ('A' for Active; 'I' for Inactive)
REMARK    1  A    between atoms: C_1  and  C_2
REMARK    2  A    between atoms: C_2  and  C_3
REMARK    3  A    between atoms: C_2  and  N_10
REMARK    4  A    between atoms: C_11  and  C_13
REMARK    5  A    between atoms: N_15  and  C_16
REMARK    6  A    between atoms: C_19  and  N_23
REMARK                            x       y       z     vdW  Elec       q    Type
REMARK                         _______ _______ _______ _____ _____    ______ ____
ROOT
ATOM      1  C   UNL     1       0.775  -1.123   3.567  0.00  0.00    +0.303 C 
ATOM      2  O   UNL     1       1.955  -1.399   3.499  0.00  0.00    -0.265 OA
ATOM      3  N   UNL     1       0.114  -1.272   4.732  0.00  0.00    -0.276 N 
ATOM      4  H   UNL     1      -0.811  -0.991   4.804  0.00  0.00    +0.155 HD
ENDROOT
BRANCH   3   5
ATOM      5  C   UNL     1       0.762  -1.833   5.836  0.00  0.00    +0.052 A 
ATOM      6  C   UNL     1       2.114  -1.592   6.047  0.00  0.00    +0.027 A 
ATOM      7  C   UNL     1       2.751  -2.147   7.139  0.00  0.00    +0.034 A 
ATOM      8  C   UNL     1       2.045  -2.944   8.023  0.00  0.00    +0.128 A 
ATOM      9  C   UNL     1       0.700  -3.187   7.816  0.00  0.00    +0.054 A 
ATOM     10  C   UNL     1       0.054  -2.629   6.729  0.00  0.00    +0.064 A 
ATOM     11 CL   UNL     1      -1.637  -2.928   6.475  0.00  0.00    -0.082 Cl
BRANCH   8  12
ATOM     12  N   UNL     1       2.732  -3.538   9.192  0.00  0.00    +0.056 N 
ATOM     13  O   UNL     1       3.908  -3.327   9.373  0.00  0.00    -0.126 OA
ATOM     14  O   UNL     1       2.116  -4.234   9.965  0.00  0.00    -0.126 OA
ENDBRANCH   8  12
ENDBRANCH   3   5
BRANCH   1  16
ATOM     15  N   UNL     1       0.717  -0.468   1.195  0.00  0.00    -0.301 N 
ATOM     16  C   UNL     1       0.056  -0.617   2.360  0.00  0.00    +0.300 C 
ATOM     17  O   UNL     1      -1.124  -0.341   2.428  0.00  0.00    -0.265 OA
ATOM     18  H   UNL     1       1.660  -0.688   1.141  0.00  0.00    +0.150 HD
BRANCH  15  20
ATOM     19  C   UNL     1      -0.003   1.558   0.029  0.00  0.00    +0.033 C 
ATOM     20  C   UNL     1       0.012   0.028   0.011  0.00  0.00    +0.101 C 
BRANCH  20  21
ATOM     21  C   UNL     1       0.717  -0.452  -1.232  0.00  0.00    -0.027 A 
ATOM     22  C   UNL     1       2.098  -0.477  -1.276  0.00  0.00    +0.007 A 
ATOM     23  C   UNL     1       2.745  -0.918  -2.415  0.00  0.00    +0.020 A 
ATOM     24  C   UNL     1       2.010  -1.333  -3.511  0.00  0.00    +0.041 A 
ATOM     25  C   UNL     1       0.628  -1.308  -3.466  0.00  0.00    +0.020 A 
ATOM     26  C   UNL     1      -0.018  -0.873  -2.325  0.00  0.00    +0.007 A 
ATOM     27 CL   UNL     1       2.822  -1.886  -4.943  0.00  0.00    -0.084 Cl
ENDBRANCH  20  21
ENDBRANCH  15  20
ENDBRANCH   1  16
TORSDOF 5
