REMARK  Name = ZINC12857007
REMARK  9 active torsions:
REMARK  status: ('A' for Active; 'I' for Inactive)
REMARK    1  A    between atoms: C_1  and  C_2
REMARK    2  A    between atoms: C_4  and  C_24
REMARK    3  A    between atoms: C_5  and  C_23
REMARK    4  A    between atoms: C_6  and  S_9
REMARK    5  A    between atoms: C_7  and  C_8
REMARK    6  A    between atoms: S_9  and  N_12
REMARK    7  A    between atoms: N_12  and  N_13
REMARK    8  A    between atoms: C_14  and  C_16
REMARK    9  A    between atoms: N_20  and  C_21
REMARK                            x       y       z     vdW  Elec       q    Type
REMARK                         _______ _______ _______ _____ _____    ______ ____
ROOT
ATOM      1  S   UNL     1      -1.077   2.667   0.067  0.00  0.00    +0.074 S 
ATOM      2  O   UNL     1      -0.522   3.548   1.035  0.00  0.00    -0.152 OA
ATOM      3  O   UNL     1      -0.513   1.393  -0.215  0.00  0.00    -0.152 OA
ENDROOT
BRANCH   1   9
ATOM      4  C   UNL     1      -0.989   7.131  -2.651  0.00  0.00    +0.044 C 
ATOM      5  C   UNL     1      -1.068   5.626  -2.652  0.00  0.00    -0.045 A 
ATOM      6  C   UNL     1      -1.167   4.939  -3.847  0.00  0.00    +0.007 A 
ATOM      7  C   UNL     1      -1.239   3.558  -3.848  0.00  0.00    -0.045 A 
ATOM      8  C   UNL     1      -1.212   2.865  -2.652  0.00  0.00    -0.021 A 
ATOM      9  C   UNL     1      -1.112   3.551  -1.457  0.00  0.00    +0.113 A 
ATOM     10  C   UNL     1      -1.044   4.932  -1.456  0.00  0.00    -0.021 A 
ATOM     11  C   UNL     1      -0.942   5.681  -0.152  0.00  0.00    +0.046 C 
ATOM     12  C   UNL     1      -1.291   1.360  -2.652  0.00  0.00    +0.046 C 
ATOM     13  C   UNL     1      -1.348   2.810  -5.151  0.00  0.00    +0.044 C 
ENDBRANCH   1   9
BRANCH   1  14
ATOM     14  N   UNL     1      -2.648   2.401   0.515  0.00  0.00    -0.108 NA
ATOM     15  H   UNL     1      -2.979   2.752   1.356  0.00  0.00    +0.172 HD
BRANCH  14  16
ATOM     16  N   UNL     1      -3.502   1.673  -0.324  0.00  0.00    -0.227 N 
ATOM     17  C   UNL     1      -4.154   0.593   0.150  0.00  0.00    +0.275 C 
ATOM     18  O   UNL     1      -3.938   0.201   1.282  0.00  0.00    -0.267 OA
ATOM     19  H   UNL     1      -3.624   1.946  -1.247  0.00  0.00    +0.171 HD
BRANCH  17  20
ATOM     20  C   UNL     1      -5.123  -0.110  -0.697  0.00  0.00    +0.106 A 
ATOM     21  C   UNL     1      -5.397   0.163  -2.021  0.00  0.00    +0.047 A 
ATOM     22  C   UNL     1      -6.377  -0.746  -2.433  0.00  0.00    +0.036 A 
ATOM     23  C   UNL     1      -6.684  -1.535  -1.375  0.00  0.00    +0.101 A 
ATOM     24  N   UNL     1      -5.929  -1.158  -0.314  0.00  0.00    -0.345 N 
ATOM     25  C   UNL     1      -5.965  -1.765   1.019  0.00  0.00    +0.149 C 
ATOM     26 BR   UNL     1      -7.141  -0.851  -4.160  0.00  0.00    -0.049 Br
ENDBRANCH  17  20
ENDBRANCH  14  16
ENDBRANCH   1  14
TORSDOF 4
