REMARK  Name = ZINC43218824
REMARK  12 active torsions:
REMARK  status: ('A' for Active; 'I' for Inactive)
REMARK    1  A    between atoms: C_1  and  C_2
REMARK    2  A    between atoms: C_2  and  C_3
REMARK    3  A    between atoms: C_3  and  C_4
REMARK    4  A    between atoms: C_4  and  N_5
REMARK    5  A    between atoms: C_10  and  C_27
REMARK    6  A    between atoms: C_13  and  C_18
REMARK    7  A    between atoms: C_13  and  C_24
REMARK    8  A    between atoms: C_31  and  O_41
REMARK    9  A    between atoms: C_32  and  O_33
REMARK   10  A    between atoms: O_33  and  C_34
REMARK   11  A    between atoms: C_34  and  C_35
REMARK   12  A    between atoms: O_41  and  C_42
REMARK                            x       y       z     vdW  Elec       q    Type
REMARK                         _______ _______ _______ _____ _____    ______ ____
ROOT
ATOM      1  N   UNL     1       0.623  -3.057  -3.267  0.00  0.00    -0.242 N 
ATOM      2  C   UNL     1       0.449  -3.411  -4.582  0.00  0.00    +0.224 C 
ATOM      3  O   UNL     1      -0.566  -3.338  -5.240  0.00  0.00    -0.275 OA
ATOM      4  C   UNL     1       1.744  -3.890  -5.005  0.00  0.00    +0.077 C 
ATOM      5  C   UNL     1       2.503  -4.149  -6.236  0.00  0.00    -0.023 C 
ATOM      6  N   UNL     1       3.933  -4.198  -5.786  0.00  0.00    +0.398 N 
ATOM      7  C   UNL     1       3.961  -3.843  -4.330  0.00  0.00    +0.074 C 
ATOM      8  C   UNL     1       2.715  -2.941  -4.195  0.00  0.00    +0.090 C 
ATOM      9  C   UNL     1       1.939  -2.988  -2.908  0.00  0.00    +0.225 C 
ATOM     10  O   UNL     1       2.390  -2.971  -1.783  0.00  0.00    -0.275 OA
ATOM     11  H   UNL     1       4.302  -5.128  -5.919  0.00  0.00    -0.083 HD
ATOM     12  H   UNL     1       4.481  -3.533  -6.311  0.00  0.00    -0.083 HD
ENDROOT
BRANCH   7  13
ATOM     13  C   UNL     1       3.850  -5.080  -3.476  0.00  0.00    -0.047 A 
ATOM     14  C   UNL     1       3.492  -6.286  -4.050  0.00  0.00    +0.003 A 
ATOM     15  C   UNL     1       3.390  -7.420  -3.266  0.00  0.00    +0.000 A 
ATOM     16  C   UNL     1       3.646  -7.349  -1.910  0.00  0.00    +0.000 A 
ATOM     17  C   UNL     1       4.004  -6.143  -1.337  0.00  0.00    +0.000 A 
ATOM     18  C   UNL     1       4.111  -5.009  -2.121  0.00  0.00    +0.003 A 
ENDBRANCH   7  13
BRANCH   5  19
ATOM     19  C   UNL     1       2.298  -3.031  -7.227  0.00  0.00    -0.015 A 
ATOM     20  C   UNL     1       1.747  -1.833  -6.812  0.00  0.00    +0.006 A 
ATOM     21  C   UNL     1       1.558  -0.806  -7.718  0.00  0.00    +0.004 A 
ATOM     22  C   UNL     1       1.918  -0.973  -9.043  0.00  0.00    +0.049 A 
ATOM     23  C   UNL     1       2.471  -2.171  -9.464  0.00  0.00    +0.162 A 
ATOM     24  C   UNL     1       2.667  -3.203  -8.551  0.00  0.00    +0.164 A 
BRANCH  23  25
ATOM     25  O   UNL     1       2.826  -2.337 -10.767  0.00  0.00    -0.491 OA
ATOM     26  C   UNL     1       2.601  -1.234 -11.646  0.00  0.00    +0.277 C 
ENDBRANCH  23  25
BRANCH  24  27
ATOM     27  O   UNL     1       3.215  -4.379  -8.959  0.00  0.00    -0.484 OA
BRANCH  27  28
ATOM     28  C   UNL     1       2.327  -5.347  -9.524  0.00  0.00    +0.264 C 
BRANCH  28  29
ATOM     29  C   UNL     1       3.122  -6.525 -10.025  0.00  0.00    -0.010 A 
ATOM     30  C   UNL     1       3.598  -6.536 -11.323  0.00  0.00    +0.007 A 
ATOM     31  C   UNL     1       4.327  -7.617 -11.783  0.00  0.00    +0.000 A 
ATOM     32  C   UNL     1       4.580  -8.686 -10.944  0.00  0.00    +0.000 A 
ATOM     33  C   UNL     1       4.105  -8.675  -9.646  0.00  0.00    +0.000 A 
ATOM     34  C   UNL     1       3.380  -7.592  -9.185  0.00  0.00    +0.007 A 
ENDBRANCH  28  29
ENDBRANCH  27  28
ENDBRANCH  24  27
ENDBRANCH   5  19
BRANCH   7  35
ATOM     35  C   UNL     1       5.209  -3.070  -3.993  0.00  0.00    +0.350 C 
ATOM     36  O   UNL     1       6.038  -2.842  -4.857  0.00  0.00    -0.248 OA
ATOM     37  O   UNL     1       5.391  -2.671  -2.854  0.00  0.00    -0.248 OA
ENDBRANCH   7  35
BRANCH   1  38
ATOM     38  C   UNL     1      -0.484  -2.777  -2.349  0.00  0.00    +0.116 C 
BRANCH  38  39
ATOM     39  C   UNL     1      -0.836  -1.289  -2.414  0.00  0.00    +0.019 C 
BRANCH  39  41
ATOM     40  C   UNL     1      -2.345   0.491  -1.520  0.00  0.00    +0.004 C 
ATOM     41  C   UNL     1      -1.992  -0.997  -1.455  0.00  0.00    -0.002 C 
ENDBRANCH  39  41
ENDBRANCH  38  39
ENDBRANCH   1  38
TORSDOF 10
