REMARK  Name = ZINC51755710
REMARK  9 active torsions:
REMARK  status: ('A' for Active; 'I' for Inactive)
REMARK    1  A    between atoms: C_1  and  C_2
REMARK    2  A    between atoms: C_5  and  C_11
REMARK    3  A    between atoms: C_6  and  C_10
REMARK    4  A    between atoms: C_7  and  O_8
REMARK    5  A    between atoms: O_8  and  C_9
REMARK    6  A    between atoms: C_11  and  N_12
REMARK    7  A    between atoms: N_15  and  C_16
REMARK    8  A    between atoms: C_16  and  C_17
REMARK    9  A    between atoms: C_17  and  N_22
REMARK                            x       y       z     vdW  Elec       q    Type
REMARK                         _______ _______ _______ _____ _____    ______ ____
ROOT
ATOM      1  N   UNL     1       1.213  -4.974   0.058  0.00  0.00    -0.294 N 
ATOM      2  C   UNL     1       1.572  -6.266  -0.072  0.00  0.00    +0.300 C 
ATOM      3  O   UNL     1       0.720  -7.134  -0.102  0.00  0.00    -0.253 OA
ATOM      4  N   UNL     1       2.875  -6.598  -0.169  0.00  0.00    -0.301 N 
ATOM      5  H   UNL     1       1.893  -4.282   0.082  0.00  0.00    +0.151 HD
ATOM      6  H   UNL     1       3.554  -5.906  -0.145  0.00  0.00    +0.150 HD
ENDROOT
BRANCH   1   7
ATOM      7  C   UNL     1      -0.203  -4.614   0.164  0.00  0.00    +0.161 C 
BRANCH   7  12
ATOM      8  C   UNL     1      -0.702   1.087   0.565  0.00  0.00    +0.049 C 
ATOM      9  C   UNL     1      -0.569  -0.412   0.499  0.00  0.00    +0.010 A 
ATOM     10  C   UNL     1      -0.565  -1.061  -0.719  0.00  0.00    +0.118 A 
ATOM     11  N   UNL     1      -0.448  -2.374  -0.785  0.00  0.00    -0.258 NA
ATOM     12  C   UNL     1      -0.332  -3.118   0.299  0.00  0.00    +0.065 A 
ATOM     13  C   UNL     1      -0.328  -2.545   1.553  0.00  0.00    +0.014 A 
ATOM     14  C   UNL     1      -0.444  -1.162   1.666  0.00  0.00    +0.129 A 
ATOM     15  C   UNL     1      -0.195  -3.403   2.785  0.00  0.00    +0.049 C 
BRANCH  14  16
ATOM     16  O   UNL     1      -0.439  -0.560   2.883  0.00  0.00    -0.494 OA
ATOM     17  C   UNL     1      -1.703  -0.387   3.527  0.00  0.00    +0.277 C 
ENDBRANCH  14  16
ENDBRANCH   7  12
ENDBRANCH   1   7
BRANCH   4  18
ATOM     18  C   UNL     1       3.265  -8.003  -0.310  0.00  0.00    +0.094 C 
BRANCH  18  19
ATOM     19  C   UNL     1       4.789  -8.102  -0.399  0.00  0.00    -0.050 C 
ATOM     20  C   UNL     1       5.218  -9.582  -0.481  0.00  0.00    -0.010 C 
ATOM     21  C   UNL     1       5.383  -9.846  -1.998  0.00  0.00    -0.001 C 
ATOM     22  C   UNL     1       6.001  -8.522  -2.511  0.00  0.00    -0.001 C 
ATOM     23  C   UNL     1       5.287  -7.428  -1.690  0.00  0.00    -0.010 C 
BRANCH  19  24
ATOM     24  N   UNL     1       5.404  -7.463   0.772  0.00  0.00    +0.386 N 
ATOM     25  C   UNL     1       6.861  -7.543   0.652  0.00  0.00    -0.067 C 
ATOM     26  C   UNL     1       7.519  -6.577   1.645  0.00  0.00    +0.050 C 
ATOM     27  S   UNL     1       7.061  -7.091   3.329  0.00  0.00    -0.164 S 
ATOM     28  C   UNL     1       5.253  -7.272   3.213  0.00  0.00    +0.050 C 
ATOM     29  C   UNL     1       4.935  -8.134   1.986  0.00  0.00    -0.067 C 
ATOM     30  H   UNL     1       5.128  -6.493   0.802  0.00  0.00    -0.081 HD
ENDBRANCH  19  24
ENDBRANCH  18  19
ENDBRANCH   4  18
TORSDOF 6
