REMARK  Name = ZINC41836587
REMARK  7 active torsions:
REMARK  status: ('A' for Active; 'I' for Inactive)
REMARK    1  A    between atoms: C_1  and  C_2
REMARK    2  A    between atoms: C_2  and  C_3
REMARK    3  A    between atoms: C_2  and  C_4
REMARK    4  A    between atoms: C_4  and  C_6
REMARK    5  A    between atoms: C_4  and  N_18
REMARK    6  A    between atoms: C_6  and  N_8
REMARK    7  A    between atoms: C_19  and  C_21
REMARK                            x       y       z     vdW  Elec       q    Type
REMARK                         _______ _______ _______ _____ _____    ______ ____
ROOT
ATOM      1  C   UNL     1      -1.433  -0.534   0.013  0.00  0.00    +0.164 C 
ENDROOT
BRANCH   1   2
ATOM      2  N   UNL     1      -1.413  -1.998   0.005  0.00  0.00    -0.300 N 
ATOM      3  C   UNL     1      -1.292  -2.677   1.163  0.00  0.00    +0.250 C 
ATOM      4  O   UNL     1      -1.198  -2.074   2.214  0.00  0.00    -0.270 OA
ATOM      5  H   UNL     1      -1.488  -2.480  -0.834  0.00  0.00    +0.150 HD
BRANCH   3   6
ATOM      6  C   UNL     1      -1.272  -4.152   1.155  0.00  0.00    +0.107 A 
ATOM      7  C   UNL     1      -0.058  -4.839   1.040  0.00  0.00    +0.138 A 
ATOM      8  C   UNL     1      -0.048  -6.221   1.034  0.00  0.00    +0.039 A 
ATOM      9  C   UNL     1      -1.234  -6.925   1.140  0.00  0.00    +0.006 A 
ATOM     10  C   UNL     1      -2.438  -6.255   1.253  0.00  0.00    +0.039 A 
ATOM     11  C   UNL     1      -2.465  -4.873   1.268  0.00  0.00    +0.138 A 
ATOM     12  F   UNL     1      -3.642  -4.220   1.384  0.00  0.00    -0.205 F 
ATOM     13  F   UNL     1       1.101  -4.153   0.935  0.00  0.00    -0.205 F 
ENDBRANCH   3   6
ENDBRANCH   1   2
BRANCH   1  15
ATOM     14  C   UNL     1      -0.019   1.526   0.010  0.00  0.00    +0.009 C 
ATOM     15  C   UNL     1       0.002  -0.004   0.002  0.00  0.00    +0.012 C 
ATOM     16  C   UNL     1       0.742  -0.511   1.242  0.00  0.00    +0.009 C 
ENDBRANCH   1  15
BRANCH   1  17
ATOM     17  C   UNL     1      -2.162  -0.034  -1.208  0.00  0.00    +0.260 C 
ATOM     18  O   UNL     1      -2.622  -0.827  -2.009  0.00  0.00    -0.272 OA
BRANCH  17  19
ATOM     19  N   UNL     1      -2.303   1.268  -1.409  0.00  0.00    -0.144 NA
ATOM     20  C   UNL     1      -2.950   1.711  -2.492  0.00  0.00    +0.222 A 
ATOM     21  N   UNL     1      -3.509   0.949  -3.451  0.00  0.00    -0.246 N 
ATOM     22  N   UNL     1      -4.080   1.808  -4.399  0.00  0.00    -0.153 NA
ATOM     23  C   UNL     1      -3.865   3.045  -4.013  0.00  0.00    +0.160 A 
ATOM     24  N   UNL     1      -3.166   3.016  -2.822  0.00  0.00    -0.271 N 
ATOM     25  C   UNL     1      -2.818   4.189  -2.200  0.00  0.00    +0.096 A 
ATOM     26  C   UNL     1      -3.155   5.376  -2.736  0.00  0.00    +0.018 A 
ATOM     27  C   UNL     1      -3.871   5.438  -3.948  0.00  0.00    +0.005 A 
ATOM     28  C   UNL     1      -4.217   4.292  -4.586  0.00  0.00    +0.048 A 
ATOM     29  H   UNL     1      -3.515  -0.021  -3.480  0.00  0.00    +0.192 HD
ENDBRANCH  17  19
ENDBRANCH   1  17
TORSDOF 5
