REMARK  Name = ZINC36027341
REMARK  11 active torsions:
REMARK  status: ('A' for Active; 'I' for Inactive)
REMARK    1  A    between atoms: C_1  and  C_2
REMARK    2  A    between atoms: C_2  and  N_3
REMARK    3  A    between atoms: N_3  and  C_4
REMARK    4  A    between atoms: N_3  and  C_6
REMARK    5  A    between atoms: C_4  and  C_5
REMARK    6  A    between atoms: C_6  and  C_7
REMARK    7  A    between atoms: C_7  and  N_8
REMARK    8  A    between atoms: C_11  and  C_30
REMARK    9  A    between atoms: N_17  and  S_20
REMARK   10  A    between atoms: S_20  and  C_23
REMARK   11  A    between atoms: C_30  and  C_31
REMARK                            x       y       z     vdW  Elec       q    Type
REMARK                         _______ _______ _______ _____ _____    ______ ____
ROOT
ATOM      1  N   UNL     1       1.077  -3.963  -2.425  0.00  0.00    -0.284 N 
ATOM      2  C   UNL     1       1.899  -4.787  -1.742  0.00  0.00    +0.234 C 
ATOM      3  O   UNL     1       2.847  -4.444  -1.068  0.00  0.00    -0.274 OA
ATOM      4  C   UNL     1       1.438  -6.212  -1.959  0.00  0.00    +0.147 C 
ATOM      5  N   UNL     1       0.055  -6.087  -2.481  0.00  0.00    -0.285 NA
ATOM      6  C   UNL     1       0.054  -4.754  -3.115  0.00  0.00    +0.091 C 
ATOM      7  C   UNL     1      -1.318  -4.103  -2.949  0.00  0.00    +0.059 C 
ATOM      8  C   UNL     1      -1.298  -2.707  -3.579  0.00  0.00    +0.113 C 
ATOM      9  N   UNL     1      -0.838  -2.822  -4.970  0.00  0.00    -0.176 NA
ATOM     10  C   UNL     1       0.437  -3.500  -5.240  0.00  0.00    +0.113 C 
ATOM     11  C   UNL     1       0.402  -4.890  -4.596  0.00  0.00    +0.059 C 
ATOM     12  H   UNL     1      -0.143  -6.811  -3.156  0.00  0.00    +0.125 HD
ENDROOT
BRANCH   9  13
ATOM     13  S   UNL     1      -1.742  -2.201  -6.211  0.00  0.00    +0.061 S 
ATOM     14  O   UNL     1      -1.374  -2.919  -7.381  0.00  0.00    -0.153 OA
ATOM     15  O   UNL     1      -3.083  -2.139  -5.746  0.00  0.00    -0.153 OA
BRANCH  13  16
ATOM     16  C   UNL     1      -1.216  -0.537  -6.456  0.00  0.00    +0.107 A 
ATOM     17  C   UNL     1      -1.828   0.490  -5.762  0.00  0.00    +0.028 A 
ATOM     18  C   UNL     1      -1.416   1.796  -5.954  0.00  0.00    +0.003 A 
ATOM     19  C   UNL     1      -0.392   2.075  -6.840  0.00  0.00    +0.020 A 
ATOM     20  C   UNL     1       0.220   1.047  -7.535  0.00  0.00    +0.043 A 
ATOM     21  C   UNL     1      -0.189  -0.260  -7.338  0.00  0.00    +0.048 A 
ATOM     22 CL   UNL     1       1.505   1.397  -8.648  0.00  0.00    -0.083 Cl
ENDBRANCH  13  16
ENDBRANCH   9  13
BRANCH   1  23
ATOM     23  C   UNL     1       1.186  -2.503  -2.464  0.00  0.00    +0.091 C 
BRANCH  23  24
ATOM     24  C   UNL     1       0.423  -1.902  -1.282  0.00  0.00    -0.060 C 
BRANCH  24  25
ATOM     25  N   UNL     1       0.643  -0.450  -1.244  0.00  0.00    +0.380 N 
ATOM     26  H   UNL     1       1.634  -0.260  -1.238  0.00  0.00    -0.082 HD
BRANCH  25  28
ATOM     27  C   UNL     1       0.368   1.661  -2.454  0.00  0.00    -0.017 C 
ATOM     28  C   UNL     1       0.033   0.169  -2.429  0.00  0.00    -0.082 C 
ENDBRANCH  25  28
BRANCH  25  29
ATOM     29  C   UNL     1       0.030   0.107  -0.031  0.00  0.00    -0.082 C 
ATOM     30  C   UNL     1       0.764  -0.426   1.202  0.00  0.00    -0.017 C 
ENDBRANCH  25  29
ENDBRANCH  24  25
ENDBRANCH  23  24
ENDBRANCH   1  23
BRANCH   4  31
ATOM     31  C   UNL     1       1.442  -6.981  -0.636  0.00  0.00    +0.063 C 
BRANCH  31  32
ATOM     32  C   UNL     1       1.064  -8.418  -0.888  0.00  0.00    -0.045 A 
ATOM     33  C   UNL     1      -0.263  -8.801  -0.846  0.00  0.00    +0.004 A 
ATOM     34  C   UNL     1      -0.610 -10.119  -1.078  0.00  0.00    +0.000 A 
ATOM     35  C   UNL     1       0.371 -11.054  -1.352  0.00  0.00    +0.000 A 
ATOM     36  C   UNL     1       1.698 -10.670  -1.395  0.00  0.00    +0.000 A 
ATOM     37  C   UNL     1       2.045  -9.351  -1.168  0.00  0.00    +0.004 A 
ENDBRANCH  31  32
ENDBRANCH   4  31
TORSDOF 9
