REMARK  Name = ZINC39689279
REMARK  5 active torsions:
REMARK  status: ('A' for Active; 'I' for Inactive)
REMARK    1  A    between atoms: C_5  and  C_8
REMARK    2  A    between atoms: C_12  and  C_21
REMARK    3  A    between atoms: N_23  and  C_24
REMARK    4  A    between atoms: C_24  and  C_25
REMARK    5  A    between atoms: N_28  and  C_31
REMARK                            x       y       z     vdW  Elec       q    Type
REMARK                         _______ _______ _______ _____ _____    ______ ____
ROOT
ATOM      1  C   UNL     1       1.130  -1.884  -0.156  0.00  0.00    +0.252 C 
ATOM      2  O   UNL     1       1.115  -2.407   0.941  0.00  0.00    -0.270 OA
ATOM      3  N   UNL     1       1.175  -2.647  -1.266  0.00  0.00    -0.296 N 
ATOM      4  C   UNL     1       1.206  -2.196  -2.678  0.00  0.00    +0.121 C 
ATOM      5  C   UNL     1       2.192  -3.162  -3.374  0.00  0.00    +0.100 C 
ATOM      6  C   UNL     1       2.185  -4.427  -2.500  0.00  0.00    -0.004 C 
ATOM      7  C   UNL     1       1.212  -4.127  -1.351  0.00  0.00    +0.115 C 
ATOM      8  C   UNL     1       3.581  -4.693  -1.944  0.00  0.00    -0.010 C 
ATOM      9  C   UNL     1       3.561  -5.987  -1.126  0.00  0.00    -0.082 C 
ATOM     10  N   UNL     1       3.131  -7.101  -1.979  0.00  0.00    +0.379 N 
ATOM     11  C   UNL     1       1.753  -6.882  -2.434  0.00  0.00    -0.082 C 
ATOM     12  C   UNL     1       1.696  -5.625  -3.308  0.00  0.00    -0.010 C 
ATOM     13  H   UNL     1       3.742  -7.165  -2.780  0.00  0.00    -0.086 HD
ATOM     14  H   UNL     1       3.178  -7.962  -1.454  0.00  0.00    -0.086 HD
ENDROOT
BRANCH   1  19
ATOM     15  C   UNL     1      -0.146   1.637  -0.469  0.00  0.00    +0.041 A 
ATOM     16  C   UNL     1       1.039   2.351  -0.493  0.00  0.00    +0.026 A 
ATOM     17  C   UNL     1       2.254   1.694  -0.408  0.00  0.00    +0.077 A 
ATOM     18  C   UNL     1       2.292   0.316  -0.298  0.00  0.00    +0.156 A 
ATOM     19  C   UNL     1       1.099  -0.413  -0.273  0.00  0.00    +0.108 A 
ATOM     20  C   UNL     1      -0.125   0.260  -0.359  0.00  0.00    +0.138 A 
ATOM     21  F   UNL     1      -1.283  -0.435  -0.336  0.00  0.00    -0.205 F 
ATOM     22  F   UNL     1       3.479  -0.325  -0.216  0.00  0.00    -0.203 F 
ATOM     23 CL   UNL     1       3.733   2.602  -0.440  0.00  0.00    -0.081 Cl
ENDBRANCH   1  19
BRANCH   5  24
ATOM     24  C   UNL     1       3.572  -2.560  -3.419  0.00  0.00    +0.218 C 
ATOM     25  O   UNL     1       3.932  -1.801  -2.544  0.00  0.00    -0.275 OA
ATOM     26  N   UNL     1       4.407  -2.865  -4.432  0.00  0.00    -0.315 N 
ATOM     27  H   UNL     1       4.120  -3.472  -5.132  0.00  0.00    +0.149 HD
BRANCH  26  28
ATOM     28  C   UNL     1       5.750  -2.280  -4.476  0.00  0.00    +0.107 C 
BRANCH  28  29
ATOM     29  C   UNL     1       6.486  -2.786  -5.719  0.00  0.00    +0.003 C 
ATOM     30  C   UNL     1       6.716  -4.295  -5.598  0.00  0.00    -0.014 C 
ATOM     31  C   UNL     1       7.522  -4.780  -6.805  0.00  0.00    -0.078 C 
ATOM     32  N   UNL     1       8.816  -4.088  -6.845  0.00  0.00    +0.382 N 
ATOM     33  C   UNL     1       8.604  -2.648  -7.032  0.00  0.00    -0.078 C 
ATOM     34  C   UNL     1       7.840  -2.080  -5.834  0.00  0.00    -0.014 C 
ATOM     35  H   UNL     1       9.306  -4.245  -5.977  0.00  0.00    -0.081 HD
BRANCH  32  36
ATOM     36  C   UNL     1       9.616  -4.614  -7.959  0.00  0.00    -0.069 C 
ATOM     37  C   UNL     1       9.915  -6.110  -7.736  0.00  0.00    -0.015 C 
ATOM     38  C   UNL     1      11.358  -6.293  -8.267  0.00  0.00    -0.002 C 
ATOM     39  C   UNL     1      12.055  -4.984  -7.822  0.00  0.00    -0.002 C 
ATOM     40  C   UNL     1      10.977  -3.897  -8.013  0.00  0.00    -0.015 C 
ENDBRANCH  32  36
ENDBRANCH  28  29
ENDBRANCH  26  28
ENDBRANCH   5  24
TORSDOF 5
