REMARK  Name = ZINC02618052
REMARK  7 active torsions:
REMARK  status: ('A' for Active; 'I' for Inactive)
REMARK    1  A    between atoms: C_1  and  C_2
REMARK    2  A    between atoms: C_5  and  N_8
REMARK    3  A    between atoms: C_12  and  S_14
REMARK    4  A    between atoms: S_14  and  C_15
REMARK    5  A    between atoms: C_15  and  C_16
REMARK    6  A    between atoms: N_18  and  C_19
REMARK    7  A    between atoms: C_20  and  C_27
REMARK                            x       y       z     vdW  Elec       q    Type
REMARK                         _______ _______ _______ _____ _____    ______ ____
ROOT
ATOM      1  C   UNL     1      -1.333  -0.523  -1.064  0.00  0.00    +0.228 C 
ATOM      2  O   UNL     1      -2.251   0.253  -1.229  0.00  0.00    -0.275 OA
ATOM      3  N   UNL     1      -1.562  -1.851  -1.083  0.00  0.00    -0.279 N 
ATOM      4  H   UNL     1      -0.828  -2.471  -0.951  0.00  0.00    +0.155 HD
ENDROOT
BRANCH   3   5
ATOM      5  C   UNL     1      -2.847  -2.330  -1.290  0.00  0.00    +0.084 A 
ATOM      6  C   UNL     1      -3.275  -3.645  -1.348  0.00  0.00    +0.068 A 
ATOM      7  C   UNL     1      -4.700  -3.884  -1.577  0.00  0.00    -0.023 A 
ATOM      8  C   UNL     1      -5.449  -2.775  -1.718  0.00  0.00    -0.004 A 
ATOM      9  S   UNL     1      -4.302  -1.430  -1.547  0.00  0.00    -0.077 S 
ATOM     10  C   UNL     1      -6.899  -3.101  -1.953  0.00  0.00    +0.043 C 
ATOM     11  C   UNL     1      -7.044  -4.574  -1.511  0.00  0.00    +0.010 C 
ATOM     12  C   UNL     1      -5.611  -5.105  -1.713  0.00  0.00    +0.037 C 
BRANCH   6  13
ATOM     13  C   UNL     1      -2.336  -4.758  -1.182  0.00  0.00    +0.244 C 
ATOM     14  O   UNL     1      -2.118  -5.210  -0.073  0.00  0.00    -0.270 OA
ATOM     15  N   UNL     1      -1.713  -5.281  -2.257  0.00  0.00    -0.325 N 
ATOM     16  H   UNL     1      -1.887  -4.921  -3.140  0.00  0.00    +0.145 HD
ATOM     17  H   UNL     1      -1.091  -6.018  -2.147  0.00  0.00    +0.145 HD
ENDBRANCH   6  13
ENDBRANCH   3   5
BRANCH   1  18
ATOM     18  C   UNL     1       0.063  -0.002  -0.838  0.00  0.00    +0.172 C 
BRANCH  18  19
ATOM     19  S   UNL     1       0.043   1.812  -0.868  0.00  0.00    -0.088 S 
BRANCH  19  24
ATOM     20  N   UNL     1       5.288   4.136  -0.028  0.00  0.00    -0.292 N 
ATOM     21  C   UNL     1       4.146   3.364  -0.207  0.00  0.00    +0.187 A 
ATOM     22  N   UNL     1       4.016   2.052  -0.209  0.00  0.00    -0.125 NA
ATOM     23  N   UNL     1       2.777   1.487  -0.407  0.00  0.00    -0.133 NA
ATOM     24  C   UNL     1       1.725   2.261  -0.594  0.00  0.00    +0.160 A 
ATOM     25  S   UNL     1       2.462   3.885  -0.502  0.00  0.00    -0.024 S 
ATOM     26  H   UNL     1       5.216   5.102   0.035  0.00  0.00    +0.154 HD
BRANCH  20  31
ATOM     27  C   UNL     1      10.368   1.642   0.335  0.00  0.00    +0.044 C 
ATOM     28  C   UNL     1       9.018   2.305   0.239  0.00  0.00    -0.050 A 
ATOM     29  C   UNL     1       7.992   1.683  -0.449  0.00  0.00    +0.005 A 
ATOM     30  C   UNL     1       6.753   2.287  -0.539  0.00  0.00    +0.023 A 
ATOM     31  C   UNL     1       6.540   3.522   0.062  0.00  0.00    +0.033 A 
ATOM     32  C   UNL     1       7.574   4.146   0.747  0.00  0.00    +0.023 A 
ATOM     33  C   UNL     1       8.809   3.533   0.838  0.00  0.00    +0.005 A 
ENDBRANCH  20  31
ENDBRANCH  19  24
ENDBRANCH  18  19
ENDBRANCH   1  18
TORSDOF 6
