REMARK  Name = ZINC02857383
REMARK  11 active torsions:
REMARK  status: ('A' for Active; 'I' for Inactive)
REMARK    1  A    between atoms: C_1  and  C_2
REMARK    2  A    between atoms: C_4  and  C_8
REMARK    3  A    between atoms: N_6  and  C_7
REMARK    4  A    between atoms: N_10  and  N_11
REMARK    5  A    between atoms: N_11  and  C_12
REMARK    6  A    between atoms: C_12  and  N_14
REMARK    7  A    between atoms: N_14  and  C_15
REMARK    8  A    between atoms: C_16  and  C_26
REMARK    9  A    between atoms: C_21  and  C_25
REMARK   10  A    between atoms: C_26  and  O_28
REMARK   11  A    between atoms: O_28  and  C_29
REMARK                            x       y       z     vdW  Elec       q    Type
REMARK                         _______ _______ _______ _____ _____    ______ ____
ROOT
ATOM      1  C   UNL     1       1.147   1.655   0.000  0.00  0.00    +0.151 C 
ATOM      2  S   UNL     1       1.124   3.367   0.009  0.00  0.00    -0.017 S 
ENDROOT
BRANCH   1   3
ATOM      3  N   UNL     1       2.323   0.998  -0.015  0.00  0.00    -0.245 N 
ATOM      4  H   UNL     1       3.156   1.494  -0.020  0.00  0.00    +0.172 HD
BRANCH   3   7
ATOM      5  C   UNL     1       3.518  -1.061  -0.037  0.00  0.00    +0.281 C 
ATOM      6  O   UNL     1       4.563  -0.439  -0.044  0.00  0.00    -0.267 OA
ATOM      7  N   UNL     1       2.342  -0.403  -0.022  0.00  0.00    -0.230 N 
ATOM      8  H   UNL     1       1.509  -0.900  -0.017  0.00  0.00    +0.173 HD
BRANCH   5  12
ATOM      9  C   UNL     1       5.051  -5.893  -0.076  0.00  0.00    +0.066 C 
ATOM     10  C   UNL     1       4.221  -4.635  -0.063  0.00  0.00    +0.051 A 
ATOM     11  C   UNL     1       4.688  -3.363  -0.066  0.00  0.00    +0.071 A 
ATOM     12  C   UNL     1       3.538  -2.538  -0.045  0.00  0.00    +0.163 A 
ATOM     13  N   UNL     1       2.489  -3.336  -0.040  0.00  0.00    -0.165 NA
ATOM     14  N   UNL     1       2.867  -4.563  -0.050  0.00  0.00    -0.270 N 
ATOM     15  C   UNL     1       1.966  -5.718  -0.047  0.00  0.00    +0.172 C 
ATOM     16 BR   UNL     1       6.495  -2.808  -0.090  0.00  0.00    -0.046 Br
ENDBRANCH   5  12
ENDBRANCH   3   7
ENDBRANCH   1   3
BRANCH   1  17
ATOM     17  N   UNL     1      -0.011   0.966   0.007  0.00  0.00    -0.290 N 
ATOM     18  H   UNL     1       0.002  -0.004   0.002  0.00  0.00    +0.154 HD
BRANCH  17  19
ATOM     19  C   UNL     1      -1.220   1.642   0.017  0.00  0.00    +0.086 A 
ATOM     20  C   UNL     1      -2.505   1.114   0.020  0.00  0.00    +0.091 A 
ATOM     21  C   UNL     1      -3.615   2.051   0.031  0.00  0.00    -0.021 A 
ATOM     22  C   UNL     1      -3.267   3.356   0.036  0.00  0.00    -0.004 A 
ATOM     23  S   UNL     1      -1.497   3.352   0.035  0.00  0.00    -0.077 S 
ATOM     24  C   UNL     1      -4.189   4.537   0.047  0.00  0.00    +0.046 C 
ATOM     25  C   UNL     1      -5.597   4.054  -0.328  0.00  0.00    -0.009 C 
ATOM     26  C   UNL     1      -5.931   2.812   0.503  0.00  0.00    +0.008 C 
ATOM     27  C   UNL     1      -5.080   1.630   0.037  0.00  0.00    +0.037 C 
ATOM     28  C   UNL     1      -6.613   5.160  -0.034  0.00  0.00    +0.008 C 
BRANCH  20  29
ATOM     29  C   UNL     1      -2.731  -0.333   0.013  0.00  0.00    +0.342 C 
ATOM     30  O   UNL     1      -2.820  -0.939   1.064  0.00  0.00    -0.245 OA
BRANCH  29  31
ATOM     31  O   UNL     1      -2.842  -0.993  -1.158  0.00  0.00    -0.464 OA
ATOM     32  C   UNL     1      -3.066  -2.425  -1.089  0.00  0.00    +0.280 C 
ENDBRANCH  29  31
ENDBRANCH  20  29
ENDBRANCH  17  19
ENDBRANCH   1  17
TORSDOF 7
