REMARK  Name = ZINC43746676
REMARK  10 active torsions:
REMARK  status: ('A' for Active; 'I' for Inactive)
REMARK    1  A    between atoms: C_1  and  C_2
REMARK    2  A    between atoms: C_2  and  C_4
REMARK    3  A    between atoms: C_2  and  N_10
REMARK    4  A    between atoms: C_11  and  C_13
REMARK    5  A    between atoms: C_13  and  C_15
REMARK    6  A    between atoms: C_13  and  N_26
REMARK    7  A    between atoms: C_15  and  C_16
REMARK    8  A    between atoms: C_27  and  C_29
REMARK    9  A    between atoms: C_31  and  C_41
REMARK   10  A    between atoms: C_31  and  C_42
REMARK                            x       y       z     vdW  Elec       q    Type
REMARK                         _______ _______ _______ _____ _____    ______ ____
ROOT
ATOM      1  C   UNL     1       0.704  -1.083  -3.724  0.00  0.00    +0.163 C 
ENDROOT
BRANCH   1   3
ATOM      2  N   UNL     1       0.731  -0.229  -1.402  0.00  0.00    -0.307 N 
ATOM      3  C   UNL     1       0.040  -0.422  -2.543  0.00  0.00    +0.234 C 
ATOM      4  O   UNL     1      -1.117  -0.064  -2.620  0.00  0.00    -0.274 OA
ATOM      5  H   UNL     1       1.655  -0.515  -1.341  0.00  0.00    +0.149 HD
BRANCH   2   7
ATOM      6  C   UNL     1       0.183   1.933  -0.399  0.00  0.00    +0.033 C 
ATOM      7  C   UNL     1       0.085   0.413  -0.255  0.00  0.00    +0.100 C 
BRANCH   7   8
ATOM      8  C   UNL     1       0.774  -0.017   1.015  0.00  0.00    -0.027 A 
ATOM      9  C   UNL     1       2.151  -0.132   1.049  0.00  0.00    +0.005 A 
ATOM     10  C   UNL     1       2.783  -0.527   2.213  0.00  0.00    +0.000 A 
ATOM     11  C   UNL     1       2.038  -0.805   3.344  0.00  0.00    +0.000 A 
ATOM     12  C   UNL     1       0.661  -0.689   3.310  0.00  0.00    +0.000 A 
ATOM     13  C   UNL     1       0.029  -0.291   2.147  0.00  0.00    +0.005 A 
ENDBRANCH   7   8
ENDBRANCH   2   7
ENDBRANCH   1   3
BRANCH   1  14
ATOM     14  N   UNL     1      -0.321  -1.605  -4.631  0.00  0.00    -0.302 N 
ATOM     15  C   UNL     1      -1.218  -0.768  -5.189  0.00  0.00    +0.236 C 
ATOM     16  O   UNL     1      -1.216   0.408  -4.891  0.00  0.00    -0.274 OA
ATOM     17  H   UNL     1      -0.353  -2.554  -4.831  0.00  0.00    +0.150 HD
BRANCH  15  18
ATOM     18  C   UNL     1      -2.223  -1.293  -6.181  0.00  0.00    +0.190 C 
ATOM     19  C   UNL     1      -3.046  -2.442  -5.525  0.00  0.00    +0.111 C 
ATOM     20  S   UNL     1      -4.488  -2.428  -6.683  0.00  0.00    -0.004 S 
ATOM     21  O   UNL     1      -4.170  -3.193  -7.837  0.00  0.00    -0.172 OA
ATOM     22  O   UNL     1      -5.677  -2.708  -5.956  0.00  0.00    -0.172 OA
ATOM     23  C   UNL     1      -4.437  -0.636  -7.106  0.00  0.00    +0.228 C 
ATOM     24  N   UNL     1      -3.115  -0.208  -6.588  0.00  0.00    -0.265 N 
ATOM     25  C   UNL     1      -3.627   0.612  -5.631  0.00  0.00    +0.221 C 
ATOM     26  O   UNL     1      -3.138   1.348  -4.801  0.00  0.00    -0.275 OA
ATOM     27  C   UNL     1      -5.066   0.248  -6.019  0.00  0.00    +0.142 C 
ATOM     28  C   UNL     1      -2.295  -3.774  -5.574  0.00  0.00    +0.037 C 
ATOM     29  C   UNL     1      -3.466  -2.089  -4.096  0.00  0.00    +0.037 C 
ENDBRANCH  15  18
ENDBRANCH   1  14
BRANCH   1  30
ATOM     30  C   UNL     1       1.565  -0.057  -4.464  0.00  0.00    +0.069 C 
BRANCH  30  31
ATOM     31  C   UNL     1       2.325  -0.744  -5.570  0.00  0.00    -0.020 A 
ATOM     32  C   UNL     1       3.577  -1.224  -5.500  0.00  0.00    +0.087 A 
ATOM     33  N   UNL     1       3.931  -1.780  -6.699  0.00  0.00    -0.360 N 
ATOM     34  H   UNL     1       4.788  -2.191  -6.891  0.00  0.00    +0.165 HD
ATOM     35  C   UNL     1       2.889  -1.668  -7.593  0.00  0.00    +0.047 A 
ATOM     36  C   UNL     1       1.835  -1.020  -6.922  0.00  0.00    +0.003 A 
ATOM     37  C   UNL     1       0.633  -0.773  -7.588  0.00  0.00    +0.010 A 
ATOM     38  C   UNL     1       0.485  -1.166  -8.889  0.00  0.00    +0.001 A 
ATOM     39  C   UNL     1       1.520  -1.809  -9.553  0.00  0.00    +0.002 A 
ATOM     40  C   UNL     1       2.718  -2.054  -8.918  0.00  0.00    +0.026 A 
ENDBRANCH  30  31
ENDBRANCH   1  30
TORSDOF 7
