REMARK  Name = ZINC16570181
REMARK  6 active torsions:
REMARK  status: ('A' for Active; 'I' for Inactive)
REMARK    1  A    between atoms: C_1  and  C_2
REMARK    2  A    between atoms: C_2  and  N_3
REMARK    3  A    between atoms: N_6  and  C_7
REMARK    4  A    between atoms: N_6  and  C_31
REMARK    5  A    between atoms: C_7  and  C_8
REMARK    6  A    between atoms: C_22  and  C_24
REMARK                            x       y       z     vdW  Elec       q    Type
REMARK                         _______ _______ _______ _____ _____    ______ ____
ROOT
ATOM      1  C   UNL     1       2.261  -2.748  -0.616  0.00  0.00    +0.238 C 
ATOM      2  O   UNL     1       3.121  -2.127  -1.206  0.00  0.00    -0.273 OA
ATOM      3  N   UNL     1       1.246  -2.092  -0.020  0.00  0.00    -0.255 N 
ATOM      4  C   UNL     1       1.243  -0.692   0.018  0.00  0.00    +0.061 A 
ATOM      5  C   UNL     1       2.436   0.015   0.017  0.00  0.00    +0.025 A 
ATOM      6  C   UNL     1       2.419   1.397   0.039  0.00  0.00    +0.002 A 
ATOM      7  C   UNL     1       1.218   2.083   0.061  0.00  0.00    +0.002 A 
ATOM      8  C   UNL     1       0.021   1.387   0.068  0.00  0.00    +0.028 A 
ATOM      9  C   UNL     1       0.031   0.006   0.048  0.00  0.00    +0.068 A 
ATOM     10  N   UNL     1      -1.155  -0.743   0.067  0.00  0.00    -0.316 N 
ATOM     11  C   UNL     1      -2.437  -0.354  -0.133  0.00  0.00    +0.092 A 
ATOM     12  C   UNL     1      -3.230  -1.443  -0.019  0.00  0.00    +0.020 A 
ATOM     13  C   UNL     1      -2.397  -2.549   0.266  0.00  0.00    +0.025 A 
ATOM     14  C   UNL     1      -1.139  -2.098   0.316  0.00  0.00    +0.049 A 
ATOM     15  C   UNL     1       0.141  -2.850   0.591  0.00  0.00    +0.159 C 
ENDROOT
BRANCH  15  16
ATOM     16  C   UNL     1       0.358  -2.960   2.078  0.00  0.00    -0.021 A 
ATOM     17  C   UNL     1       0.886  -1.892   2.780  0.00  0.00    +0.008 A 
ATOM     18  C   UNL     1       1.081  -1.990   4.145  0.00  0.00    +0.038 A 
ATOM     19  C   UNL     1       0.758  -3.162   4.807  0.00  0.00    +0.123 A 
ATOM     20  C   UNL     1       0.235  -4.233   4.103  0.00  0.00    +0.038 A 
ATOM     21  C   UNL     1       0.035  -4.131   2.739  0.00  0.00    +0.008 A 
ATOM     22  F   UNL     1       0.953  -3.261   6.141  0.00  0.00    -0.205 F 
ENDBRANCH  15  16
BRANCH   1  23
ATOM     23  C   UNL     1       2.329  -4.252  -0.551  0.00  0.00    +0.205 C 
BRANCH  23  27
ATOM     24  N   UNL     1       4.791  -5.314  -3.064  0.00  0.00    -0.299 N 
ATOM     25  C   UNL     1       3.620  -4.992  -2.481  0.00  0.00    +0.303 C 
ATOM     26  O   UNL     1       2.601  -4.954  -3.143  0.00  0.00    -0.253 OA
ATOM     27  N   UNL     1       3.579  -4.711  -1.163  0.00  0.00    -0.274 N 
ATOM     28  H   UNL     1       5.590  -5.416  -2.525  0.00  0.00    +0.150 HD
BRANCH  27  29
ATOM     29  C   UNL     1       4.783  -4.865  -0.343  0.00  0.00    +0.078 C 
ATOM     30  C   UNL     1       4.610  -4.845   1.177  0.00  0.00    +0.024 C 
ATOM     31  C   UNL     1       5.249  -3.651   0.463  0.00  0.00    +0.024 C 
ENDBRANCH  27  29
BRANCH  24  33
ATOM     32  C   UNL     1       6.289  -5.868  -4.917  0.00  0.00    +0.024 C 
ATOM     33  C   UNL     1       4.856  -5.512  -4.515  0.00  0.00    +0.102 C 
ENDBRANCH  24  33
ENDBRANCH  23  27
ENDBRANCH   1  23
TORSDOF 5
