REMARK  Name = ZINC38857878
REMARK  8 active torsions:
REMARK  status: ('A' for Active; 'I' for Inactive)
REMARK    1  A    between atoms: C_1  and  C_2
REMARK    2  A    between atoms: C_2  and  O_3
REMARK    3  A    between atoms: O_3  and  C_4
REMARK    4  A    between atoms: C_4  and  C_6
REMARK    5  A    between atoms: C_10  and  N_11
REMARK    6  A    between atoms: C_12  and  C_14
REMARK    7  A    between atoms: N_18  and  S_27
REMARK    8  A    between atoms: S_27  and  C_30
REMARK                            x       y       z     vdW  Elec       q    Type
REMARK                         _______ _______ _______ _____ _____    ______ ____
ROOT
ATOM      1  N   UNL     1      -0.604  -2.455  -3.925  0.00  0.00    -0.276 N 
ATOM      2  C   UNL     1      -1.119  -2.783  -5.126  0.00  0.00    +0.258 C 
ATOM      3  O   UNL     1      -0.397  -3.225  -5.995  0.00  0.00    -0.271 OA
ATOM      4  H   UNL     1      -1.181  -2.102  -3.230  0.00  0.00    +0.155 HD
ENDROOT
BRANCH   2   5
ATOM      5  C   UNL     1      -2.591  -2.599  -5.391  0.00  0.00    +0.260 C 
ATOM      6  C   UNL     1      -2.929  -1.117  -5.321  0.00  0.00    +0.075 C 
ATOM      7  C   UNL     1      -4.422  -0.857  -5.407  0.00  0.00    +0.135 C 
ATOM      8  N   UNL     1      -4.942  -1.294  -6.709  0.00  0.00    -0.204 N 
ATOM      9  C   UNL     1      -5.231  -2.656  -6.881  0.00  0.00    +0.094 A 
ATOM     10  C   UNL     1      -6.532  -3.085  -7.081  0.00  0.00    +0.048 A 
ATOM     11  C   UNL     1      -6.792  -4.436  -7.240  0.00  0.00    +0.043 A 
ATOM     12  C   UNL     1      -5.756  -5.353  -7.199  0.00  0.00    +0.024 A 
ATOM     13  C   UNL     1      -4.455  -4.927  -7.001  0.00  0.00    +0.049 A 
ATOM     14  C   UNL     1      -4.190  -3.578  -6.846  0.00  0.00    +0.144 A 
ATOM     15  O   UNL     1      -2.906  -3.140  -6.672  0.00  0.00    -0.478 OA
ATOM     16 CL   UNL     1      -8.421  -4.980  -7.492  0.00  0.00    -0.083 Cl
BRANCH   8  17
ATOM     17  S   UNL     1      -5.181  -0.211  -7.939  0.00  0.00    +0.043 S 
ATOM     18  O   UNL     1      -6.200  -0.792  -8.741  0.00  0.00    -0.155 OA
ATOM     19  O   UNL     1      -5.394   1.034  -7.288  0.00  0.00    -0.155 OA
ATOM     20  C   UNL     1      -3.611  -0.182  -8.846  0.00  0.00    +0.218 C 
ENDBRANCH   8  17
ENDBRANCH   2   5
BRANCH   1  25
ATOM     21  C   UNL     1       1.449  -2.344  -2.516  0.00  0.00    +0.091 A 
ATOM     22  C   UNL     1       2.876  -2.619  -2.515  0.00  0.00    -0.021 A 
ATOM     23  C   UNL     1       3.343  -3.117  -3.680  0.00  0.00    -0.004 A 
ATOM     24  S   UNL     1       1.922  -3.212  -4.730  0.00  0.00    -0.077 S 
ATOM     25  C   UNL     1       0.750  -2.624  -3.681  0.00  0.00    +0.086 A 
ATOM     26  C   UNL     1       4.757  -3.498  -3.993  0.00  0.00    +0.043 C 
ATOM     27  C   UNL     1       5.669  -2.887  -2.920  0.00  0.00    +0.005 C 
ATOM     28  C   UNL     1       5.082  -3.191  -1.538  0.00  0.00    +0.005 C 
ATOM     29  C   UNL     1       3.799  -2.383  -1.329  0.00  0.00    +0.037 C 
BRANCH  21  30
ATOM     30  C   UNL     1       0.776  -1.800  -1.335  0.00  0.00    +0.342 C 
ATOM     31  O   UNL     1       0.312  -2.552  -0.499  0.00  0.00    -0.245 OA
BRANCH  30  32
ATOM     32  O   UNL     1       0.671  -0.465  -1.174  0.00  0.00    -0.461 OA
BRANCH  32  34
ATOM     33  C   UNL     1      -0.019   1.526   0.010  0.00  0.00    +0.048 C 
ATOM     34  C   UNL     1       0.002  -0.004   0.002  0.00  0.00    +0.229 C 
ENDBRANCH  32  34
ENDBRANCH  30  32
ENDBRANCH  21  30
ENDBRANCH   1  25
TORSDOF 6
