REMARK  Name = ZINC03211858
REMARK  4 active torsions:
REMARK  status: ('A' for Active; 'I' for Inactive)
REMARK    1  A    between atoms: C_4  and  O_20
REMARK    2  A    between atoms: C_5  and  C_7
REMARK    3  A    between atoms: N_9  and  S_10
REMARK    4  A    between atoms: S_10  and  C_13
REMARK                            x       y       z     vdW  Elec       q    Type
REMARK                         _______ _______ _______ _____ _____    ______ ____
ROOT
ATOM      1  C   UNL     1       2.224   4.067   2.374  0.00  0.00    +0.267 C 
ATOM      2  O   UNL     1       3.182   3.478   1.913  0.00  0.00    -0.268 OA
ATOM      3  N   UNL     1       1.155   4.329   1.596  0.00  0.00    -0.181 N 
ATOM      4  H   UNL     1       0.390   4.798   1.964  0.00  0.00    +0.177 HD
ENDROOT
BRANCH   1   9
ATOM      5  C   UNL     1       1.146   5.572   5.639  0.00  0.00    +0.001 A 
ATOM      6  C   UNL     1       2.244   5.303   6.439  0.00  0.00    +0.004 A 
ATOM      7  C   UNL     1       3.337   4.634   5.924  0.00  0.00    +0.046 A 
ATOM      8  C   UNL     1       3.340   4.226   4.599  0.00  0.00    +0.129 A 
ATOM      9  C   UNL     1       2.231   4.496   3.786  0.00  0.00    +0.080 A 
ATOM     10  C   UNL     1       1.134   5.178   4.319  0.00  0.00    +0.017 A 
BRANCH   8  11
ATOM     11  O   UNL     1       4.413   3.569   4.091  0.00  0.00    -0.506 OA
ATOM     12  H   UNL     1       5.085   4.150   3.708  0.00  0.00    +0.292 HD
ENDBRANCH   8  11
ENDBRANCH   1   9
BRANCH   3  13
ATOM     13  S   UNL     1       1.146   3.847   0.012  0.00  0.00    +0.075 S 
ATOM     14  O   UNL     1       2.381   4.274  -0.549  0.00  0.00    -0.150 OA
ATOM     15  O   UNL     1      -0.110   4.239  -0.525  0.00  0.00    -0.150 OA
BRANCH  13  16
ATOM     16  C   UNL     1       1.171   2.086   0.002  0.00  0.00    +0.109 A 
ATOM     17  C   UNL     1      -0.017   1.378   0.010  0.00  0.00    +0.030 A 
ATOM     18  C   UNL     1       0.002  -0.004   0.002  0.00  0.00    +0.017 A 
ATOM     19  C   UNL     1       1.209  -0.679  -0.013  0.00  0.00    +0.018 A 
ATOM     20  C   UNL     1       2.397   0.029  -0.021  0.00  0.00    +0.017 A 
ATOM     21  C   UNL     1       2.378   1.411  -0.013  0.00  0.00    +0.030 A 
ATOM     22 BR   UNL     1       1.236  -2.570  -0.023  0.00  0.00    -0.050 Br
ENDBRANCH  13  16
ENDBRANCH   3  13
TORSDOF 4
