REMARK  Name = ZINC14234906
REMARK  8 active torsions:
REMARK  status: ('A' for Active; 'I' for Inactive)
REMARK    1  A    between atoms: C_1  and  C_2
REMARK    2  A    between atoms: C_16  and  C_17
REMARK    3  A    between atoms: C_17  and  O_19
REMARK    4  A    between atoms: O_19  and  C_20
REMARK    5  A    between atoms: C_20  and  C_22
REMARK    6  A    between atoms: C_20  and  C_23
REMARK    7  A    between atoms: N_25  and  C_26
REMARK    8  A    between atoms: C_29  and  C_32
REMARK                            x       y       z     vdW  Elec       q    Type
REMARK                         _______ _______ _______ _____ _____    ______ ____
ROOT
ATOM      1  C   UNL     1       2.884   5.478  -6.629  0.00  0.00    +0.347 C 
ATOM      2  O   UNL     1       2.781   6.609  -6.193  0.00  0.00    -0.244 OA
ENDROOT
BRANCH   1  18
ATOM      3  C   UNL     1       1.893   5.632  -3.760  0.00  0.00    +0.046 C 
ATOM      4  C   UNL     1       2.091   4.330  -4.494  0.00  0.00    -0.015 A 
ATOM      5  C   UNL     1       1.817   3.119  -3.857  0.00  0.00    +0.076 A 
ATOM      6  C   UNL     1       2.037   1.954  -4.627  0.00  0.00    +0.116 A 
ATOM      7  N   UNL     1       1.817   0.740  -4.139  0.00  0.00    -0.226 NA
ATOM      8  C   UNL     1       1.379   0.557  -2.925  0.00  0.00    +0.114 A 
ATOM      9  N   UNL     1       1.128   1.605  -2.089  0.00  0.00    -0.296 N 
ATOM     10  C   UNL     1       1.325   2.876  -2.481  0.00  0.00    +0.263 A 
ATOM     11  O   UNL     1       1.103   3.804  -1.724  0.00  0.00    -0.267 OA
ATOM     12  C   UNL     1       0.632   1.312  -0.738  0.00  0.00    +0.126 C 
ATOM     13  C   UNL     1      -0.829   0.877  -0.824  0.00  0.00    +0.022 C 
ATOM     14  C   UNL     1      -0.944  -0.627  -1.009  0.00  0.00    +0.002 C 
ATOM     15  C   UNL     1      -0.375  -1.087  -2.339  0.00  0.00    +0.008 C 
ATOM     16  C   UNL     1       1.131  -0.841  -2.407  0.00  0.00    +0.074 C 
ATOM     17  S   UNL     1       2.604   2.595  -6.182  0.00  0.00    -0.062 S 
ATOM     18  C   UNL     1       2.540   4.333  -5.783  0.00  0.00    +0.102 A 
ENDBRANCH   1  18
BRANCH   1  19
ATOM     19  O   UNL     1       3.314   5.279  -7.892  0.00  0.00    -0.448 OA
BRANCH  19  20
ATOM     20  C   UNL     1       3.637   6.460  -8.672  0.00  0.00    +0.259 C 
ATOM     21  C   UNL     1       2.389   6.933  -9.420  0.00  0.00    +0.062 C 
BRANCH  20  22
ATOM     22  C   UNL     1       4.721   6.125  -9.665  0.00  0.00    +0.258 C 
ATOM     23  O   UNL     1       5.113   4.983  -9.772  0.00  0.00    -0.271 OA
ATOM     24  N   UNL     1       5.255   7.096 -10.432  0.00  0.00    -0.282 N 
ATOM     25  H   UNL     1       4.890   7.994 -10.402  0.00  0.00    +0.155 HD
BRANCH  24  26
ATOM     26  C   UNL     1       6.331   6.809 -11.271  0.00  0.00    +0.034 A 
ATOM     27  C   UNL     1       7.281   5.869 -10.884  0.00  0.00    +0.024 A 
ATOM     28  C   UNL     1       8.342   5.579 -11.711  0.00  0.00    +0.015 A 
ATOM     29  C   UNL     1       8.472   6.239 -12.936  0.00  0.00    +0.037 A 
ATOM     30  C   UNL     1       7.519   7.187 -13.319  0.00  0.00    +0.015 A 
ATOM     31  C   UNL     1       6.457   7.468 -12.489  0.00  0.00    +0.024 A 
BRANCH  29  32
ATOM     32  C   UNL     1       9.611   5.936 -13.824  0.00  0.00    +0.242 C 
ATOM     33  O   UNL     1       9.722   6.511 -14.889  0.00  0.00    -0.270 OA
ATOM     34  N   UNL     1      10.529   5.021 -13.453  0.00  0.00    -0.325 N 
ATOM     35  H   UNL     1      10.441   4.563 -12.602  0.00  0.00    +0.145 HD
ATOM     36  H   UNL     1      11.278   4.822 -14.036  0.00  0.00    +0.145 HD
ENDBRANCH  29  32
ENDBRANCH  24  26
ENDBRANCH  20  22
ENDBRANCH  19  20
ENDBRANCH   1  19
TORSDOF 6
