REMARK  Name = ZINC27498441
REMARK  9 active torsions:
REMARK  status: ('A' for Active; 'I' for Inactive)
REMARK    1  A    between atoms: C_1  and  C_2
REMARK    2  A    between atoms: N_4  and  C_5
REMARK    3  A    between atoms: C_5  and  C_7
REMARK    4  A    between atoms: C_5  and  C_18
REMARK    5  A    between atoms: C_7  and  C_8
REMARK    6  A    between atoms: N_20  and  C_21
REMARK    7  A    between atoms: C_21  and  C_22
REMARK    8  A    between atoms: C_22  and  C_24
REMARK    9  A    between atoms: C_22  and  N_29
REMARK                            x       y       z     vdW  Elec       q    Type
REMARK                         _______ _______ _______ _____ _____    ______ ____
ROOT
ATOM      1  C   UNL     1       6.011   0.624   0.821  0.00  0.00    +0.234 C 
ATOM      2  O   UNL     1       6.820   1.518   0.950  0.00  0.00    -0.274 OA
ATOM      3  N   UNL     1       6.405  -0.661   0.918  0.00  0.00    -0.315 N 
ATOM      4  H   UNL     1       5.672  -1.472   0.800  0.00  0.00    +0.149 HD
ENDROOT
BRANCH   1   5
ATOM      5  C   UNL     1       4.564   0.950   0.551  0.00  0.00    +0.163 C 
BRANCH   5   9
ATOM      6  C   UNL     1       4.686   4.768   0.796  0.00  0.00    +0.109 C 
ATOM      7  C   UNL     1       4.967   3.347   0.381  0.00  0.00    +0.211 C 
ATOM      8  O   UNL     1       5.800   3.117  -0.470  0.00  0.00    -0.276 OA
ATOM      9  N   UNL     1       4.292   2.331   0.955  0.00  0.00    -0.304 N 
ATOM     10  H   UNL     1       3.536   2.540   1.727  0.00  0.00    +0.149 HD
ENDBRANCH   5   9
BRANCH   5  11
ATOM     11  C   UNL     1       4.275   0.788  -0.942  0.00  0.00    +0.069 C 
BRANCH  11  12
ATOM     12  C   UNL     1       2.803   0.994  -1.194  0.00  0.00    -0.020 A 
ATOM     13  C   UNL     1       1.865   0.037  -1.271  0.00  0.00    +0.087 A 
ATOM     14  N   UNL     1       0.641   0.601  -1.510  0.00  0.00    -0.360 N 
ATOM     15  H   UNL     1      -0.250  -0.037  -1.604  0.00  0.00    +0.165 HD
ATOM     16  C   UNL     1       0.766   1.970  -1.593  0.00  0.00    +0.047 A 
ATOM     17  C   UNL     1       2.125   2.276  -1.399  0.00  0.00    +0.003 A 
ATOM     18  C   UNL     1       2.552   3.605  -1.431  0.00  0.00    +0.010 A 
ATOM     19  C   UNL     1       1.645   4.603  -1.651  0.00  0.00    +0.001 A 
ATOM     20  C   UNL     1       0.303   4.306  -1.843  0.00  0.00    +0.002 A 
ATOM     21  C   UNL     1      -0.141   3.002  -1.811  0.00  0.00    +0.026 A 
ENDBRANCH  11  12
ENDBRANCH   5  11
ENDBRANCH   1   5
BRANCH   3  22
ATOM     22  C   UNL     1       7.812  -0.978   1.180  0.00  0.00    +0.096 C 
BRANCH  22  23
ATOM     23  C   UNL     1       7.969  -2.489   1.361  0.00  0.00    +0.016 C 
BRANCH  23  24
ATOM     24  N   UNL     1       7.415  -3.183   0.190  0.00  0.00    +0.387 N 
ATOM     25  C   UNL     1       7.476  -4.640   0.364  0.00  0.00    -0.078 C 
ATOM     26  C   UNL     1       6.763  -5.325  -0.804  0.00  0.00    -0.019 C 
ATOM     27  C   UNL     1       7.439  -4.920  -2.117  0.00  0.00    -0.004 C 
ATOM     28  C   UNL     1       7.405  -3.395  -2.251  0.00  0.00    -0.019 C 
ATOM     29  C   UNL     1       8.100  -2.766  -1.041  0.00  0.00    -0.078 C 
ATOM     30  H   UNL     1       6.356  -2.901   0.097  0.00  0.00    -0.081 HD
ENDBRANCH  23  24
BRANCH  23  31
ATOM     31  C   UNL     1       9.430  -2.829   1.501  0.00  0.00    +0.093 A 
ATOM     32  C   UNL     1      10.041  -3.221   2.634  0.00  0.00    +0.043 A 
ATOM     33  C   UNL     1      11.402  -3.432   2.313  0.00  0.00    +0.041 A 
ATOM     34  C   UNL     1      11.541  -3.156   1.004  0.00  0.00    +0.195 A 
ATOM     35  O   UNL     1      10.342  -2.797   0.516  0.00  0.00    -0.469 OA
ENDBRANCH  23  31
ENDBRANCH  22  23
ENDBRANCH   3  22
TORSDOF 8
