REMARK  Name = ZINC64045354
REMARK  6 active torsions:
REMARK  status: ('A' for Active; 'I' for Inactive)
REMARK    1  A    between atoms: C_7  and  C_10
REMARK    2  A    between atoms: C_10  and  C_11
REMARK    3  A    between atoms: C_11  and  N_12
REMARK    4  A    between atoms: C_25  and  N_29
REMARK    5  A    between atoms: N_29  and  C_30
REMARK    6  A    between atoms: C_30  and  C_31
REMARK                            x       y       z     vdW  Elec       q    Type
REMARK                         _______ _______ _______ _____ _____    ______ ____
ROOT
ATOM      1  N   UNL     1      -0.458  -4.798  -1.460  0.00  0.00    -0.262 N 
ATOM      2  C   UNL     1       0.038  -6.076  -1.364  0.00  0.00    +0.186 C 
ATOM      3  N   UNL     1      -0.652  -7.093  -1.732  0.00  0.00    -0.261 NA
ATOM      4  C   UNL     1      -2.005  -6.981  -2.268  0.00  0.00    +0.184 C 
ATOM      5  C   UNL     1      -2.718  -5.753  -1.647  0.00  0.00    +0.137 C 
ATOM      6  C   UNL     1      -1.788  -4.599  -1.548  0.00  0.00    +0.230 C 
ATOM      7  O   UNL     1      -2.229  -3.470  -1.566  0.00  0.00    -0.274 OA
ATOM      8  C   UNL     1      -3.230  -6.077  -0.267  0.00  0.00    -0.046 C 
ATOM      9  C   UNL     1      -3.461  -7.358   0.009  0.00  0.00    -0.014 C 
ATOM     10  S   UNL     1      -3.032  -8.305  -1.486  0.00  0.00    -0.102 S 
ATOM     11  C   UNL     1      -3.984  -7.926   1.296  0.00  0.00    +0.026 C 
ATOM     12  C   UNL     1      -3.858  -6.862   2.393  0.00  0.00    -0.066 C 
ATOM     13  C   UNL     1      -4.414  -5.539   1.854  0.00  0.00    -0.011 C 
ATOM     14  C   UNL     1      -3.479  -4.992   0.777  0.00  0.00    +0.031 C 
ENDROOT
BRANCH  12  15
ATOM     15  N   UNL     1      -4.625  -7.278   3.575  0.00  0.00    +0.384 N 
ATOM     16  H   UNL     1      -4.609  -6.541   4.263  0.00  0.00    -0.085 HD
ATOM     17  H   UNL     1      -5.579  -7.468   3.307  0.00  0.00    -0.085 HD
BRANCH  15  18
ATOM     18  C   UNL     1      -4.025  -8.492   4.144  0.00  0.00    -0.043 C 
BRANCH  18  19
ATOM     19  C   UNL     1      -4.811  -8.920   5.356  0.00  0.00    -0.026 A 
ATOM     20  C   UNL     1      -4.352  -8.609   6.623  0.00  0.00    +0.005 A 
ATOM     21  C   UNL     1      -5.072  -9.000   7.736  0.00  0.00    +0.003 A 
ATOM     22  C   UNL     1      -6.252  -9.703   7.585  0.00  0.00    +0.041 A 
ATOM     23  C   UNL     1      -6.715 -10.016   6.319  0.00  0.00    +0.159 A 
ATOM     24  C   UNL     1      -5.995  -9.619   5.202  0.00  0.00    +0.160 A 
ATOM     25  F   UNL     1      -6.447  -9.918   3.965  0.00  0.00    -0.202 F 
ATOM     26  F   UNL     1      -7.868 -10.704   6.172  0.00  0.00    -0.202 F 
ENDBRANCH  18  19
ENDBRANCH  15  18
ENDBRANCH  12  15
BRANCH   1  27
ATOM     27  C   UNL     1       0.457  -3.653  -1.462  0.00  0.00    +0.119 C 
BRANCH  27  28
ATOM     28  C   UNL     1       0.691  -3.186  -0.024  0.00  0.00    +0.052 C 
BRANCH  28  35
ATOM     29  C   UNL     1      -0.016   1.348   0.009  0.00  0.00    +0.001 A 
ATOM     30  C   UNL     1       1.166   2.101   0.002  0.00  0.00    +0.002 A 
ATOM     31  C   UNL     1       2.391   1.535  -0.013  0.00  0.00    +0.026 A 
ATOM     32  C   UNL     1       2.529   0.120  -0.022  0.00  0.00    +0.043 A 
ATOM     33  N   UNL     1       3.587  -0.654  -0.037  0.00  0.00    -0.380 N 
ATOM     34  C   UNL     1       3.143  -2.053  -0.041  0.00  0.00    +0.144 C 
ATOM     35  C   UNL     1       1.631  -2.008  -0.025  0.00  0.00    -0.040 C 
ATOM     36  C   UNL     1       1.295  -0.698  -0.014  0.00  0.00    -0.001 A 
ATOM     37  C   UNL     1       0.002  -0.004   0.002  0.00  0.00    +0.010 A 
ATOM     38  H   UNL     1       4.509  -0.353  -0.045  0.00  0.00    +0.160 HD
ENDBRANCH  28  35
ENDBRANCH  27  28
ENDBRANCH   1  27
TORSDOF 6
