REMARK  Name = ZINC32797382
REMARK  9 active torsions:
REMARK  status: ('A' for Active; 'I' for Inactive)
REMARK    1  A    between atoms: C_1  and  C_2
REMARK    2  A    between atoms: C_3  and  O_28
REMARK    3  A    between atoms: C_12  and  C_13
REMARK    4  A    between atoms: C_13  and  N_14
REMARK    5  A    between atoms: N_14  and  C_15
REMARK    6  A    between atoms: C_15  and  C_17
REMARK    7  A    between atoms: C_15  and  C_18
REMARK    8  A    between atoms: C_21  and  S_24
REMARK    9  A    between atoms: S_24  and  C_27
REMARK                            x       y       z     vdW  Elec       q    Type
REMARK                         _______ _______ _______ _____ _____    ______ ____
ROOT
ATOM      1  C   UNL     1       2.241   0.727  -0.802  0.00  0.00    -0.045 C 
ENDROOT
BRANCH   1  13
ATOM      2  C   UNL     1       8.080   1.935   1.378  0.00  0.00    +0.051 C 
ATOM      3  C   UNL     1       6.683   1.370   1.395  0.00  0.00    +0.034 A 
ATOM      4  C   UNL     1       6.237   0.652   2.493  0.00  0.00    +0.123 A 
ATOM      5  C   UNL     1       4.947   0.125   2.518  0.00  0.00    +0.046 A 
ATOM      6  C   UNL     1       4.100   0.320   1.465  0.00  0.00    +0.015 A 
ATOM      7  C   UNL     1       4.530   1.053   0.354  0.00  0.00    +0.019 A 
ATOM      8  C   UNL     1       5.833   1.583   0.320  0.00  0.00    +0.146 A 
ATOM      9  O   UNL     1       6.242   2.295  -0.752  0.00  0.00    -0.422 OA
ATOM     10  C   UNL     1       5.432   2.510  -1.800  0.00  0.00    +0.337 A 
ATOM     11  O   UNL     1       5.844   3.159  -2.745  0.00  0.00    -0.245 OA
ATOM     12  C   UNL     1       4.116   2.004  -1.836  0.00  0.00    +0.094 A 
ATOM     13  C   UNL     1       3.643   1.279  -0.789  0.00  0.00    -0.047 A 
BRANCH   4  14
ATOM     14  O   UNL     1       7.067   0.450   3.548  0.00  0.00    -0.506 OA
ATOM     15  H   UNL     1       6.717  -0.120   4.421  0.00  0.00    +0.292 HD
ENDBRANCH   4  14
ENDBRANCH   1  13
BRANCH   1  16
ATOM     16  N   UNL     1       1.365   1.594  -0.002  0.00  0.00    +0.386 N 
ATOM     17  H   UNL     1       1.735   1.633   1.033  0.00  0.00    -0.085 HD
ATOM     18  H   UNL     1       1.364   2.608  -0.430  0.00  0.00    -0.085 HD
BRANCH  16  19
ATOM     19  C   UNL     1      -0.013   1.086   0.008  0.00  0.00    -0.044 C 
ATOM     20  C   UNL     1      -0.753   1.593  -1.232  0.00  0.00    -0.009 C 
BRANCH  19  21
ATOM     21  C   UNL     1      -0.718   1.572   1.248  0.00  0.00    -0.062 A 
ATOM     22  C   UNL     1      -0.511   2.861   1.700  0.00  0.00    +0.004 A 
ATOM     23  C   UNL     1      -1.161   3.309   2.835  0.00  0.00    +0.027 A 
ATOM     24  C   UNL     1      -2.011   2.463   3.523  0.00  0.00    +0.088 A 
ATOM     25  C   UNL     1      -2.215   1.172   3.073  0.00  0.00    +0.027 A 
ATOM     26  C   UNL     1      -1.568   0.726   1.936  0.00  0.00    +0.004 A 
BRANCH  24  27
ATOM     27  S   UNL     1      -2.835   3.031   4.973  0.00  0.00    -0.006 S 
ATOM     28  O   UNL     1      -2.924   4.440   4.812  0.00  0.00    -0.170 OA
ATOM     29  O   UNL     1      -4.010   2.236   5.058  0.00  0.00    -0.170 OA
ATOM     30  C   UNL     1      -1.709   2.628   6.337  0.00  0.00    +0.200 C 
ENDBRANCH  24  27
ENDBRANCH  19  21
ENDBRANCH  16  19
ENDBRANCH   1  16
TORSDOF 6
