REMARK  Name = ZINC01783986
REMARK  5 active torsions:
REMARK  status: ('A' for Active; 'I' for Inactive)
REMARK    1  A    between atoms: C_4  and  C_7
REMARK    2  A    between atoms: C_7  and  O_9
REMARK    3  A    between atoms: O_9  and  C_10
REMARK    4  A    between atoms: C_12  and  O_30
REMARK    5  A    between atoms: C_20  and  C_22
REMARK                            x       y       z     vdW  Elec       q    Type
REMARK                         _______ _______ _______ _____ _____    ______ ____
ROOT
ATOM      1  C   UNL     1       4.957  -2.574  -0.070  0.00  0.00    +0.381 C 
ATOM      2  C   UNL     1       4.894  -4.048   0.217  0.00  0.00    +0.254 C 
ATOM      3  N   UNL     1       4.194  -4.857  -0.487  0.00  0.00    -0.212 NA
ATOM      4  C   UNL     1       3.406  -4.509  -1.541  0.00  0.00    +0.077 A 
ATOM      5  C   UNL     1       2.161  -5.145  -1.653  0.00  0.00    +0.029 A 
ATOM      6  C   UNL     1       1.317  -4.851  -2.699  0.00  0.00    +0.017 A 
ATOM      7  C   UNL     1       1.691  -3.922  -3.657  0.00  0.00    +0.019 A 
ATOM      8  C   UNL     1       2.908  -3.284  -3.564  0.00  0.00    +0.027 A 
ATOM      9  C   UNL     1       3.780  -3.564  -2.503  0.00  0.00    +0.027 A 
ATOM     10  C   UNL     1       5.055  -2.832  -2.455  0.00  0.00    +0.081 C 
ATOM     11  N   UNL     1       5.591  -2.372  -1.373  0.00  0.00    -0.232 NA
ATOM     12 BR   UNL     1       0.528  -3.530  -5.096  0.00  0.00    -0.050 Br
ENDROOT
BRANCH  10  13
ATOM     13  C   UNL     1       5.772  -2.605  -3.731  0.00  0.00    +0.019 A 
ATOM     14  C   UNL     1       5.932  -1.309  -4.224  0.00  0.00    +0.011 A 
ATOM     15  C   UNL     1       6.601  -1.104  -5.413  0.00  0.00    +0.001 A 
ATOM     16  C   UNL     1       7.113  -2.179  -6.117  0.00  0.00    +0.001 A 
ATOM     17  C   UNL     1       6.958  -3.466  -5.636  0.00  0.00    +0.020 A 
ATOM     18  C   UNL     1       6.295  -3.685  -4.443  0.00  0.00    +0.050 A 
ATOM     19 CL   UNL     1       6.108  -5.300  -3.835  0.00  0.00    -0.083 Cl
ENDBRANCH  10  13
BRANCH   2  20
ATOM     20  O   UNL     1       5.603  -4.538   1.254  0.00  0.00    -0.492 OA
ATOM     21  H   UNL     1       5.513  -5.493   1.376  0.00  0.00    +0.294 HD
ENDBRANCH   2  20
BRANCH   1  22
ATOM     22  O   UNL     1       3.635  -2.033  -0.091  0.00  0.00    -0.426 OA
BRANCH  22  23
ATOM     23  C   UNL     1       3.523  -0.692  -0.135  0.00  0.00    +0.341 C 
ATOM     24  O   UNL     1       4.521   0.001  -0.155  0.00  0.00    -0.245 OA
BRANCH  23  28
ATOM     25  C   UNL     1      -0.318   1.118  -0.206  0.00  0.00    +0.000 A 
ATOM     26  C   UNL     1       0.817   1.910  -0.228  0.00  0.00    +0.001 A 
ATOM     27  C   UNL     1       2.067   1.329  -0.205  0.00  0.00    +0.015 A 
ATOM     28  C   UNL     1       2.187  -0.062  -0.159  0.00  0.00    +0.059 A 
ATOM     29  C   UNL     1       1.038  -0.855  -0.138  0.00  0.00    +0.015 A 
ATOM     30  C   UNL     1      -0.207  -0.260  -0.161  0.00  0.00    +0.001 A 
ENDBRANCH  23  28
ENDBRANCH  22  23
ENDBRANCH   1  22
TORSDOF 5
