REMARK  Name = ZINC42028130
REMARK  4 active torsions:
REMARK  status: ('A' for Active; 'I' for Inactive)
REMARK    1  A    between atoms: C_1  and  C_2
REMARK    2  A    between atoms: C_5  and  N_9
REMARK    3  A    between atoms: C_10  and  C_14
REMARK    4  A    between atoms: C_16  and  N_21
REMARK                            x       y       z     vdW  Elec       q    Type
REMARK                         _______ _______ _______ _____ _____    ______ ____
ROOT
ATOM      1  N   UNL     1       0.016  -4.174  -0.020  0.00  0.00    -0.191 N 
ATOM      2  C   UNL     1       0.162  -5.008   1.050  0.00  0.00    +0.188 A 
ATOM      3  N   UNL     1       0.177  -6.237   0.578  0.00  0.00    -0.108 NA
ATOM      4  N   UNL     1       0.052  -6.230  -0.700  0.00  0.00    -0.022 NA
ATOM      5  N   UNL     1      -0.057  -5.023  -1.138  0.00  0.00    -0.039 NA
ENDROOT
BRANCH   1  10
ATOM      6  C   UNL     1      -0.261   1.495   0.033  0.00  0.00    +0.044 C 
ATOM      7  C   UNL     1      -0.188  -0.010   0.019  0.00  0.00    -0.049 A 
ATOM      8  C   UNL     1       0.816  -0.659   0.715  0.00  0.00    +0.005 A 
ATOM      9  C   UNL     1       0.886  -2.038   0.704  0.00  0.00    +0.029 A 
ATOM     10  C   UNL     1      -0.053  -2.774  -0.006  0.00  0.00    +0.088 A 
ATOM     11  C   UNL     1      -1.061  -2.120  -0.704  0.00  0.00    +0.067 A 
ATOM     12  C   UNL     1      -1.128  -0.739  -0.684  0.00  0.00    +0.025 A 
ATOM     13 CL   UNL     1      -2.237  -3.035  -1.594  0.00  0.00    -0.081 Cl
ENDBRANCH   1  10
BRANCH   2  14
ATOM     14  C   UNL     1       0.282  -4.607   2.469  0.00  0.00    +0.041 A 
ATOM     15  C   UNL     1      -0.613  -3.688   3.015  0.00  0.00    +0.035 A 
ATOM     16  C   UNL     1      -0.495  -3.318   4.345  0.00  0.00    +0.025 A 
ATOM     17  C   UNL     1       0.513  -3.863   5.132  0.00  0.00    +0.024 A 
ATOM     18  C   UNL     1       1.401  -4.774   4.592  0.00  0.00    +0.022 A 
ATOM     19  C   UNL     1       1.288  -5.154   3.269  0.00  0.00    +0.052 A 
ATOM     20 CL   UNL     1       2.402  -6.304   2.598  0.00  0.00    -0.083 Cl
BRANCH  16  21
ATOM     21  N   UNL     1      -1.390  -2.396   4.896  0.00  0.00    -0.358 N 
ATOM     22  H   UNL     1      -2.094  -2.016   4.347  0.00  0.00    +0.142 HD
ATOM     23  H   UNL     1      -1.308  -2.137   5.827  0.00  0.00    +0.142 HD
ENDBRANCH  16  21
ENDBRANCH   2  14
TORSDOF 3
