REMARK  Name = ZINC40594509
REMARK  11 active torsions:
REMARK  status: ('A' for Active; 'I' for Inactive)
REMARK    1  A    between atoms: C_1  and  C_2
REMARK    2  A    between atoms: C_2  and  C_3
REMARK    3  A    between atoms: C_2  and  C_4
REMARK    4  A    between atoms: C_7  and  N_10
REMARK    5  A    between atoms: C_12  and  N_28
REMARK    6  A    between atoms: C_13  and  N_17
REMARK    7  A    between atoms: N_17  and  C_18
REMARK    8  A    between atoms: C_20  and  C_26
REMARK    9  A    between atoms: C_20  and  C_27
REMARK   10  A    between atoms: C_22  and  C_24
REMARK   11  A    between atoms: C_22  and  C_25
REMARK                            x       y       z     vdW  Elec       q    Type
REMARK                         _______ _______ _______ _____ _____    ______ ____
ROOT
ATOM      1  N   UNL     1      -5.138  -2.602  -0.537  0.00  0.00    -0.297 N 
ATOM      2  C   UNL     1      -5.724  -3.225  -1.629  0.00  0.00    +0.159 A 
ATOM      3  C   UNL     1      -7.076  -3.554  -1.613  0.00  0.00    +0.205 A 
ATOM      4  C   UNL     1      -7.615  -4.178  -2.734  0.00  0.00    +0.155 A 
ATOM      5  N   UNL     1      -6.824  -4.436  -3.774  0.00  0.00    -0.218 NA
ATOM      6  C   UNL     1      -5.549  -4.108  -3.751  0.00  0.00    +0.225 A 
ATOM      7  N   UNL     1      -5.002  -3.512  -2.711  0.00  0.00    -0.218 NA
ATOM      8  H   UNL     1      -5.686  -2.322   0.213  0.00  0.00    +0.154 HD
ENDROOT
BRANCH   1  12
ATOM      9  C   UNL     1      -1.027  -1.938  -0.475  0.00  0.00    -0.045 A 
ATOM     10  C   UNL     1      -1.880  -1.043   0.144  0.00  0.00    +0.006 A 
ATOM     11  C   UNL     1      -3.243  -1.260   0.125  0.00  0.00    +0.023 A 
ATOM     12  C   UNL     1      -3.758  -2.379  -0.516  0.00  0.00    +0.032 A 
ATOM     13  C   UNL     1      -2.899  -3.277  -1.137  0.00  0.00    +0.023 A 
ATOM     14  C   UNL     1      -1.536  -3.051  -1.119  0.00  0.00    +0.006 A 
BRANCH   9  16
ATOM     15  C   UNL     1       0.771  -0.358  -1.124  0.00  0.00    +0.012 C 
ATOM     16  C   UNL     1       0.461  -1.698  -0.453  0.00  0.00    +0.013 C 
ATOM     17  C   UNL     1       0.951  -1.668   0.996  0.00  0.00    +0.012 C 
ENDBRANCH   9  16
ENDBRANCH   1  12
BRANCH   3  18
ATOM     18  N   UNL     1      -7.918  -3.250  -0.434  0.00  0.00    +0.063 N 
ATOM     19  O   UNL     1      -8.494  -2.190  -0.361  0.00  0.00    -0.126 OA
ATOM     20  O   UNL     1      -8.028  -4.061   0.455  0.00  0.00    -0.126 OA
ENDBRANCH   3  18
BRANCH   4  21
ATOM     21  N   UNL     1      -8.957  -4.527  -2.767  0.00  0.00    -0.324 N 
ATOM     22  H   UNL     1      -9.526  -4.337  -2.005  0.00  0.00    +0.148 HD
BRANCH  21  23
ATOM     23  C   UNL     1      -9.515  -5.185  -3.955  0.00  0.00    +0.069 C 
ATOM     24  C   UNL     1      -9.954  -4.118  -4.960  0.00  0.00    +0.009 C 
ATOM     25  C   UNL     1     -10.549  -4.787  -6.199  0.00  0.00    -0.072 C 
ATOM     26  N   UNL     1     -11.623  -5.710  -5.861  0.00  0.00    +0.386 N 
ATOM     27  C   UNL     1     -11.392  -6.644  -4.770  0.00  0.00    -0.072 C 
ATOM     28  C   UNL     1     -10.745  -5.997  -3.550  0.00  0.00    +0.009 C 
ATOM     29  C   UNL     1     -10.562  -7.849  -5.223  0.00  0.00    -0.010 C 
ATOM     30  C   UNL     1     -12.770  -7.188  -4.324  0.00  0.00    -0.010 C 
ATOM     31  C   UNL     1      -9.448  -5.460  -7.017  0.00  0.00    -0.010 C 
ATOM     32  C   UNL     1     -11.155  -3.668  -7.077  0.00  0.00    -0.010 C 
ATOM     33  H   UNL     1     -12.460  -5.163  -5.644  0.00  0.00    -0.084 HD
ATOM     34  H   UNL     1     -11.862  -6.246  -6.699  0.00  0.00    -0.084 HD
ENDBRANCH  21  23
ENDBRANCH   4  21
TORSDOF 5
