REMARK  Name = ZINC39164362
REMARK  6 active torsions:
REMARK  status: ('A' for Active; 'I' for Inactive)
REMARK    1  A    between atoms: C_1  and  C_2
REMARK    2  A    between atoms: C_6  and  S_8
REMARK    3  A    between atoms: S_8  and  C_9
REMARK    4  A    between atoms: C_10  and  C_16
REMARK    5  A    between atoms: C_13  and  O_15
REMARK    6  A    between atoms: C_18  and  C_21
REMARK                            x       y       z     vdW  Elec       q    Type
REMARK                         _______ _______ _______ _____ _____    ______ ____
ROOT
ATOM      1  C   UNL     1       0.425   2.193   0.387  0.00  0.00    +0.088 C 
ATOM      2  C   UNL     1       0.302   0.710   0.151  0.00  0.00    +0.128 A 
ATOM      3  N   UNL     1       0.179   0.255  -1.083  0.00  0.00    -0.226 NA
ATOM      4  C   UNL     1       0.073  -1.042  -1.316  0.00  0.00    +0.105 A 
ATOM      5  C   UNL     1       0.099  -1.967  -0.272  0.00  0.00    +0.018 A 
ATOM      6  C   UNL     1       0.221  -1.429   1.019  0.00  0.00    +0.109 A 
ATOM      7  N   UNL     1       0.323  -0.115   1.178  0.00  0.00    -0.225 NA
ATOM      8  C   UNL     1       0.011  -3.419  -0.660  0.00  0.00    +0.054 C 
ATOM      9  C   UNL     1      -0.591  -3.599  -2.073  0.00  0.00    +0.054 C 
ATOM     10  S   UNL     1      -0.124  -1.979  -2.814  0.00  0.00    -0.102 S 
ATOM     11  C   UNL     1       0.066  -4.763  -2.816  0.00  0.00    +0.020 C 
ENDROOT
BRANCH   6  12
ATOM     12  S   UNL     1       0.246  -2.494   2.422  0.00  0.00    -0.067 S 
BRANCH  12  13
ATOM     13  C   UNL     1       0.257  -1.390   3.795  0.00  0.00    +0.066 C 
ATOM     14  C   UNL     1       1.236  -1.203   4.712  0.00  0.00    +0.074 C 
ATOM     15  N   UNL     1       0.875  -0.277   5.604  0.00  0.00    -0.155 NA
ATOM     16  N   UNL     1      -0.242   0.211   5.425  0.00  0.00    -0.150 NA
ATOM     17  C   UNL     1      -0.827  -0.418   4.228  0.00  0.00    +0.294 C 
ATOM     18  C   UNL     1       2.551  -1.939   4.723  0.00  0.00    +0.068 C 
BRANCH  17  19
ATOM     19  O   UNL     1      -2.029  -1.115   4.561  0.00  0.00    -0.365 OA
ATOM     20  H   UNL     1      -2.753  -0.539   4.844  0.00  0.00    +0.212 HD
ENDBRANCH  17  19
ENDBRANCH  12  13
ENDBRANCH   6  12
TORSDOF 3
