REMARK  Name = ZINC09505468
REMARK  14 active torsions:
REMARK  status: ('A' for Active; 'I' for Inactive)
REMARK    1  A    between atoms: C_1  and  C_2
REMARK    2  A    between atoms: C_5  and  C_38
REMARK    3  A    between atoms: C_6  and  C_8
REMARK    4  A    between atoms: C_8  and  S_9
REMARK    5  A    between atoms: S_9  and  C_10
REMARK    6  A    between atoms: C_10  and  C_11
REMARK    7  A    between atoms: C_18  and  C_23
REMARK    8  A    between atoms: N_25  and  C_26
REMARK    9  A    between atoms: C_26  and  C_27
REMARK   10  A    between atoms: C_27  and  C_28
REMARK   11  A    between atoms: C_31  and  O_36
REMARK   12  A    between atoms: C_32  and  O_34
REMARK   13  A    between atoms: O_34  and  C_35
REMARK   14  A    between atoms: O_36  and  C_37
REMARK                            x       y       z     vdW  Elec       q    Type
REMARK                         _______ _______ _______ _____ _____    ______ ____
ROOT
ATOM      1  C   UNL     1       3.011  -4.349   5.111  0.00  0.00    +0.167 C 
ATOM      2  C   UNL     1       2.886  -5.112   6.406  0.00  0.00    +0.238 C 
ATOM      3  O   UNL     1       2.844  -4.508   7.457  0.00  0.00    -0.273 OA
ATOM      4  N   UNL     1       2.820  -6.456   6.406  0.00  0.00    -0.282 N 
ATOM      5  C   UNL     1       3.006  -7.183   5.224  0.00  0.00    +0.055 A 
ATOM      6  C   UNL     1       2.738  -8.537   5.185  0.00  0.00    +0.038 A 
ATOM      7  C   UNL     1       2.920  -9.247   3.995  0.00  0.00    +0.039 A 
ATOM      8  C   UNL     1       3.372  -8.587   2.848  0.00  0.00    +0.015 A 
ATOM      9  C   UNL     1       3.641  -7.236   2.892  0.00  0.00    +0.025 A 
ATOM     10  C   UNL     1       3.464  -6.532   4.074  0.00  0.00    +0.049 A 
ATOM     11  N   UNL     1       3.753  -5.166   4.141  0.00  0.00    -0.331 N 
ATOM     12  H   UNL     1       2.641  -6.926   7.235  0.00  0.00    +0.155 HD
ATOM     13  H   UNL     1       4.425  -4.768   3.564  0.00  0.00    +0.147 HD
ENDROOT
BRANCH   7  14
ATOM     14  C   UNL     1       2.636 -10.694   3.948  0.00  0.00    +0.244 C 
ATOM     15  O   UNL     1       2.244 -11.269   4.945  0.00  0.00    -0.270 OA
ATOM     16  N   UNL     1       2.812 -11.379   2.801  0.00  0.00    -0.311 N 
ATOM     17  H   UNL     1       3.125 -10.921   2.005  0.00  0.00    +0.149 HD
BRANCH  16  18
ATOM     18  C   UNL     1       2.530 -12.816   2.755  0.00  0.00    +0.109 C 
BRANCH  18  19
ATOM     19  C   UNL     1       2.809 -13.346   1.347  0.00  0.00    +0.054 C 
BRANCH  19  20
ATOM     20  C   UNL     1       2.519 -14.824   1.299  0.00  0.00    -0.042 A 
ATOM     21  C   UNL     1       3.519 -15.732   1.595  0.00  0.00    +0.007 A 
ATOM     22  C   UNL     1       3.258 -17.089   1.553  0.00  0.00    +0.049 A 
ATOM     23  C   UNL     1       1.992 -17.541   1.214  0.00  0.00    +0.161 A 
ATOM     24  C   UNL     1       0.987 -16.627   0.917  0.00  0.00    +0.162 A 
ATOM     25  C   UNL     1       1.254 -15.268   0.966  0.00  0.00    +0.053 A 
BRANCH  24  26
ATOM     26  O   UNL     1      -0.257 -17.066   0.584  0.00  0.00    -0.491 OA
ATOM     27  C   UNL     1      -1.239 -16.070   0.291  0.00  0.00    +0.277 C 
ENDBRANCH  24  26
BRANCH  23  28
ATOM     28  O   UNL     1       1.734 -18.876   1.172  0.00  0.00    -0.491 OA
ATOM     29  C   UNL     1       2.815 -19.756   1.489  0.00  0.00    +0.277 C 
ENDBRANCH  23  28
ENDBRANCH  19  20
ENDBRANCH  18  19
ENDBRANCH  16  18
ENDBRANCH   7  14
BRANCH   1  30
ATOM     30  C   UNL     1       1.617  -4.041   4.561  0.00  0.00    +0.101 C 
BRANCH  30  31
ATOM     31  S   UNL     1       1.770  -3.127   3.002  0.00  0.00    -0.154 S 
BRANCH  31  32
ATOM     32  C   UNL     1       0.054  -2.845   2.489  0.00  0.00    +0.104 C 
BRANCH  32  38
ATOM     33  C   UNL     1      -0.018   1.503   0.010  0.00  0.00    +0.044 C 
ATOM     34  C   UNL     1       0.002  -0.004   0.002  0.00  0.00    -0.050 A 
ATOM     35  C   UNL     1       0.006  -0.689  -1.199  0.00  0.00    +0.003 A 
ATOM     36  C   UNL     1       0.025  -2.071  -1.207  0.00  0.00    +0.004 A 
ATOM     37  C   UNL     1       0.040  -2.768  -0.013  0.00  0.00    -0.046 A 
ATOM     38  C   UNL     1       0.037  -2.084   1.188  0.00  0.00    -0.034 A 
ATOM     39  C   UNL     1       0.023  -0.702   1.195  0.00  0.00    +0.008 A 
ATOM     40  C   UNL     1       0.059  -4.275  -0.021  0.00  0.00    +0.044 C 
ENDBRANCH  32  38
ENDBRANCH  31  32
ENDBRANCH  30  31
ENDBRANCH   1  30
TORSDOF 10
