REMARK  Name = ZINC36585072
REMARK  12 active torsions:
REMARK  status: ('A' for Active; 'I' for Inactive)
REMARK    1  A    between atoms: C_1  and  C_2
REMARK    2  A    between atoms: C_5  and  S_8
REMARK    3  A    between atoms: S_8  and  C_11
REMARK    4  A    between atoms: C_11  and  N_12
REMARK    5  A    between atoms: C_13  and  C_15
REMARK    6  A    between atoms: C_15  and  C_17
REMARK    7  A    between atoms: C_15  and  N_23
REMARK    8  A    between atoms: N_23  and  C_33
REMARK    9  A    between atoms: C_24  and  C_26
REMARK   10  A    between atoms: C_33  and  C_34
REMARK   11  A    between atoms: C_33  and  C_35
REMARK   12  A    between atoms: C_33  and  C_36
REMARK                            x       y       z     vdW  Elec       q    Type
REMARK                         _______ _______ _______ _____ _____    ______ ____
ROOT
ATOM      1  C   UNL     1       2.154  -6.670   4.644  0.00  0.00    +0.166 C 
ENDROOT
BRANCH   1   2
ATOM      2  C   UNL     1       2.028  -5.145   4.681  0.00  0.00    +0.019 C 
ATOM      3  C   UNL     1       2.551  -4.622   6.020  0.00  0.00    +0.006 C 
ATOM      4  C   UNL     1       2.425  -3.098   6.056  0.00  0.00    +0.000 C 
ATOM      5  C   UNL     1       0.956  -2.703   5.893  0.00  0.00    +0.000 C 
ATOM      6  C   UNL     1       0.433  -3.226   4.554  0.00  0.00    +0.000 C 
ATOM      7  C   UNL     1       0.559  -4.751   4.517  0.00  0.00    +0.006 C 
ENDBRANCH   1   2
BRANCH   1   9
ATOM      8  N   UNL     1       0.648  -7.064   2.721  0.00  0.00    -0.295 N 
ATOM      9  C   UNL     1       1.886  -7.163   3.246  0.00  0.00    +0.235 C 
ATOM     10  O   UNL     1       2.785  -7.649   2.592  0.00  0.00    -0.274 OA
ATOM     11  H   UNL     1      -0.076  -6.700   3.254  0.00  0.00    +0.150 HD
BRANCH   8  12
ATOM     12  C   UNL     1       0.398  -7.504   1.347  0.00  0.00    +0.278 C 
BRANCH  12  13
ATOM     13  S   UNL     1      -0.215  -9.211   1.361  0.00  0.00    +0.013 S 
ATOM     14  O   UNL     1       0.596 -10.015   2.207  0.00  0.00    -0.168 OA
ATOM     15  O   UNL     1      -0.523  -9.632   0.039  0.00  0.00    -0.168 OA
BRANCH  13  20
ATOM     16  C   UNL     1      -5.549  -8.924   4.166  0.00  0.00    +0.044 C 
ATOM     17  C   UNL     1      -4.217  -8.995   3.465  0.00  0.00    -0.050 A 
ATOM     18  C   UNL     1      -4.148  -8.842   2.093  0.00  0.00    +0.005 A 
ATOM     19  C   UNL     1      -2.926  -8.908   1.451  0.00  0.00    +0.027 A 
ATOM     20  C   UNL     1      -1.773  -9.127   2.180  0.00  0.00    +0.090 A 
ATOM     21  C   UNL     1      -1.841  -9.279   3.553  0.00  0.00    +0.027 A 
ATOM     22  C   UNL     1      -3.063  -9.209   4.196  0.00  0.00    +0.005 A 
ENDBRANCH  13  20
ENDBRANCH  12  13
ENDBRANCH   8  12
ENDBRANCH   1   9
BRANCH   1  23
ATOM     23  N   UNL     1       3.507  -7.058   5.048  0.00  0.00    -0.281 N 
ATOM     24  C   UNL     1       3.703  -7.706   6.214  0.00  0.00    +0.248 C 
ATOM     25  O   UNL     1       2.781  -7.847   6.993  0.00  0.00    -0.270 OA
BRANCH  24  26
ATOM     26  C   UNL     1       5.039  -8.245   6.545  0.00  0.00    +0.038 A 
ATOM     27  C   UNL     1       6.051  -8.248   5.583  0.00  0.00    +0.013 A 
ATOM     28  C   UNL     1       7.296  -8.752   5.898  0.00  0.00    +0.002 A 
ATOM     29  C   UNL     1       7.544  -9.253   7.164  0.00  0.00    +0.020 A 
ATOM     30  C   UNL     1       6.545  -9.252   8.123  0.00  0.00    +0.042 A 
ATOM     31  C   UNL     1       5.296  -8.746   7.822  0.00  0.00    +0.033 A 
ATOM     32 CL   UNL     1       6.865  -9.883   9.708  0.00  0.00    -0.084 Cl
ENDBRANCH  24  26
BRANCH  23  33
ATOM     33  C   UNL     1       4.648  -6.742   4.186  0.00  0.00    +0.030 C 
ATOM     34  C   UNL     1       4.280  -5.582   3.258  0.00  0.00    +0.031 C 
ATOM     35  C   UNL     1       5.846  -6.343   5.050  0.00  0.00    +0.031 C 
ATOM     36  C   UNL     1       5.010  -7.970   3.348  0.00  0.00    +0.031 C 
ENDBRANCH  23  33
ENDBRANCH   1  23
TORSDOF 8
