REMARK  Name = ZINC19456147
REMARK  9 active torsions:
REMARK  status: ('A' for Active; 'I' for Inactive)
REMARK    1  A    between atoms: C_1  and  C_2
REMARK    2  A    between atoms: C_2  and  C_4
REMARK    3  A    between atoms: C_2  and  N_12
REMARK    4  A    between atoms: C_4  and  N_5
REMARK    5  A    between atoms: C_13  and  C_15
REMARK    6  A    between atoms: C_22  and  O_27
REMARK    7  A    between atoms: C_24  and  O_25
REMARK    8  A    between atoms: O_25  and  C_26
REMARK    9  A    between atoms: O_27  and  C_28
REMARK                            x       y       z     vdW  Elec       q    Type
REMARK                         _______ _______ _______ _____ _____    ______ ____
ROOT
ATOM      1  N   UNL     1      -4.640   3.108   6.414  0.00  0.00    -0.309 N 
ATOM      2  C   UNL     1      -3.461   3.082   5.762  0.00  0.00    +0.261 C 
ATOM      3  O   UNL     1      -2.519   3.727   6.182  0.00  0.00    -0.269 OA
ATOM      4  H   UNL     1      -5.492   2.524   6.035  0.00  0.00    +0.149 HD
ENDROOT
BRANCH   2   5
ATOM      5  C   UNL     1      -3.314   2.274   4.545  0.00  0.00    +0.103 A 
ATOM      6  C   UNL     1      -2.180   2.167   3.802  0.00  0.00    +0.044 A 
ATOM      7  C   UNL     1      -2.453   1.300   2.720  0.00  0.00    +0.042 A 
ATOM      8  C   UNL     1      -3.796   0.893   2.845  0.00  0.00    +0.054 A 
ATOM      9  N   UNL     1      -4.307   1.500   3.969  0.00  0.00    -0.350 N 
ATOM     10  H   UNL     1      -5.305   1.456   4.428  0.00  0.00    +0.166 HD
ATOM     11  C   UNL     1      -4.343   0.026   1.905  0.00  0.00    +0.072 A 
ATOM     12  C   UNL     1      -3.569  -0.432   0.854  0.00  0.00    +0.126 A 
ATOM     13  C   UNL     1      -2.243  -0.028   0.722  0.00  0.00    +0.092 A 
ATOM     14  C   UNL     1      -1.679   0.826   1.645  0.00  0.00    +0.133 A 
BRANCH  14  15
ATOM     15  O   UNL     1      -0.384   1.213   1.516  0.00  0.00    -0.494 OA
ATOM     16  C   UNL     1       0.341   0.691   0.400  0.00  0.00    +0.277 C 
ENDBRANCH  14  15
BRANCH  12  17
ATOM     17  O   UNL     1      -4.109  -1.279  -0.060  0.00  0.00    -0.495 OA
ATOM     18  C   UNL     1      -3.258  -1.717  -1.121  0.00  0.00    +0.277 C 
ENDBRANCH  12  17
ENDBRANCH   2   5
BRANCH   1  20
ATOM     19  C   UNL     1      -5.067   5.368   7.246  0.00  0.00    +0.026 C 
ATOM     20  C   UNL     1      -4.787   3.913   7.629  0.00  0.00    +0.054 C 
BRANCH  20  21
ATOM     21  C   UNL     1      -5.952   3.373   8.462  0.00  0.00    -0.057 C 
BRANCH  21  22
ATOM     22  N   UNL     1      -5.736   1.946   8.736  0.00  0.00    +0.381 N 
ATOM     23  C   UNL     1      -7.018   1.259   9.009  0.00  0.00    -0.079 C 
ATOM     24  C   UNL     1      -6.831  -0.129   9.558  0.00  0.00    -0.019 C 
ATOM     25  C   UNL     1      -6.865  -0.054  11.099  0.00  0.00    -0.002 C 
ATOM     26  C   UNL     1      -5.603   0.422  11.655  0.00  0.00    -0.002 C 
ATOM     27  C   UNL     1      -5.255   1.847  11.174  0.00  0.00    -0.019 C 
ATOM     28  C   UNL     1      -4.702   1.757   9.778  0.00  0.00    -0.079 C 
ATOM     29  H   UNL     1      -5.333   1.467   7.832  0.00  0.00    -0.082 HD
ENDBRANCH  21  22
ENDBRANCH  20  21
ENDBRANCH   1  20
TORSDOF 6
