REMARK  Name = ZINC36633056
REMARK  11 active torsions:
REMARK  status: ('A' for Active; 'I' for Inactive)
REMARK    1  A    between atoms: C_1  and  C_2
REMARK    2  A    between atoms: C_2  and  C_3
REMARK    3  A    between atoms: C_2  and  N_4
REMARK    4  A    between atoms: N_4  and  C_5
REMARK    5  A    between atoms: N_4  and  S_12
REMARK    6  A    between atoms: C_5  and  C_6
REMARK    7  A    between atoms: S_12  and  C_15
REMARK    8  A    between atoms: C_18  and  C_21
REMARK    9  A    between atoms: N_23  and  C_24
REMARK   10  A    between atoms: C_25  and  C_34
REMARK   11  A    between atoms: N_30  and  C_33
REMARK                            x       y       z     vdW  Elec       q    Type
REMARK                         _______ _______ _______ _____ _____    ______ ____
ROOT
ATOM      1  C   UNL     1      -1.510  -3.264  -0.270  0.00  0.00    +0.106 A 
ATOM      2  C   UNL     1      -0.309  -3.819  -0.673  0.00  0.00    +0.029 A 
ATOM      3  C   UNL     1       0.088  -5.045  -0.180  0.00  0.00    +0.015 A 
ATOM      4  C   UNL     1      -0.727  -5.726   0.727  0.00  0.00    +0.037 A 
ATOM      5  C   UNL     1      -1.938  -5.160   1.129  0.00  0.00    +0.015 A 
ATOM      6  C   UNL     1      -2.319  -3.930   0.633  0.00  0.00    +0.029 A 
ENDROOT
BRANCH   4   7
ATOM      7  C   UNL     1      -0.309  -7.040   1.259  0.00  0.00    +0.249 C 
ATOM      8  O   UNL     1       0.746  -7.531   0.906  0.00  0.00    -0.270 OA
ATOM      9  N   UNL     1      -1.097  -7.694   2.134  0.00  0.00    -0.275 N 
ATOM     10  H   UNL     1      -1.939  -7.303   2.416  0.00  0.00    +0.156 HD
BRANCH   9  11
ATOM     11  C   UNL     1      -0.706  -8.926   2.632  0.00  0.00    +0.085 A 
ATOM     12  C   UNL     1      -1.385  -9.739   3.529  0.00  0.00    +0.068 A 
ATOM     13  C   UNL     1      -0.754 -10.992   3.894  0.00  0.00    -0.027 A 
ATOM     14  C   UNL     1       0.442 -11.206   3.299  0.00  0.00    -0.021 A 
ATOM     15  S   UNL     1       0.698  -9.782   2.284  0.00  0.00    -0.079 S 
ATOM     16  C   UNL     1       1.320 -12.403   3.488  0.00  0.00    -0.036 C 
ATOM     17  N   UNL     1       0.870 -13.121   4.695  0.00  0.00    +0.381 N 
ATOM     18  C   UNL     1      -0.580 -13.344   4.625  0.00  0.00    -0.074 C 
ATOM     19  C   UNL     1      -1.328 -12.026   4.852  0.00  0.00    +0.018 C 
ATOM     20  C   UNL     1       1.560 -14.415   4.779  0.00  0.00    -0.096 C 
ATOM     21  H   UNL     1       1.087 -12.572   5.513  0.00  0.00    -0.082 HD
BRANCH  12  22
ATOM     22  C   UNL     1      -2.685  -9.347   4.083  0.00  0.00    +0.244 C 
ATOM     23  O   UNL     1      -3.711  -9.664   3.510  0.00  0.00    -0.270 OA
ATOM     24  N   UNL     1      -2.743  -8.636   5.227  0.00  0.00    -0.325 N 
ATOM     25  H   UNL     1      -1.925  -8.384   5.683  0.00  0.00    +0.145 HD
ATOM     26  H   UNL     1      -3.603  -8.377   5.593  0.00  0.00    +0.145 HD
ENDBRANCH  12  22
ENDBRANCH   9  11
ENDBRANCH   4   7
BRANCH   1  27
ATOM     27  S   UNL     1      -2.009  -1.698  -0.905  0.00  0.00    +0.061 S 
ATOM     28  O   UNL     1      -3.424  -1.644  -0.788  0.00  0.00    -0.153 OA
ATOM     29  O   UNL     1      -1.340  -1.532  -2.147  0.00  0.00    -0.153 OA
BRANCH  27  30
ATOM     30  N   UNL     1      -1.406  -0.541   0.116  0.00  0.00    -0.170 NA
BRANCH  30  32
ATOM     31  C   UNL     1      -0.214   1.507  -0.490  0.00  0.00    +0.025 C 
ATOM     32  C   UNL     1      -0.077   0.027  -0.125  0.00  0.00    +0.074 C 
ATOM     33  C   UNL     1       0.773  -0.110   1.139  0.00  0.00    +0.025 C 
ENDBRANCH  30  32
BRANCH  30  34
ATOM     34  C   UNL     1      -2.200  -0.087   1.260  0.00  0.00    +0.144 C 
BRANCH  34  35
ATOM     35  C   UNL     1      -2.966   1.153   0.878  0.00  0.00    -0.032 A 
ATOM     36  C   UNL     1      -2.465   2.401   1.200  0.00  0.00    +0.005 A 
ATOM     37  C   UNL     1      -3.167   3.539   0.850  0.00  0.00    +0.000 A 
ATOM     38  C   UNL     1      -4.371   3.429   0.179  0.00  0.00    +0.000 A 
ATOM     39  C   UNL     1      -4.871   2.182  -0.143  0.00  0.00    +0.000 A 
ATOM     40  C   UNL     1      -4.167   1.044   0.202  0.00  0.00    +0.005 A 
ENDBRANCH  34  35
ENDBRANCH  30  34
ENDBRANCH  27  30
ENDBRANCH   1  27
TORSDOF 8
