REMARK  Name = ZINC14880403
REMARK  7 active torsions:
REMARK  status: ('A' for Active; 'I' for Inactive)
REMARK    1  A    between atoms: C_8  and  C_11
REMARK    2  A    between atoms: C_11  and  N_65
REMARK    3  A    between atoms: C_12  and  N_65
REMARK    4  A    between atoms: N_15  and  C_18
REMARK    5  A    between atoms: C_21  and  C_24
REMARK    6  A    between atoms: N_26  and  C_27
REMARK    7  A    between atoms: C_27  and  C_28
REMARK                            x       y       z     vdW  Elec       q    Type
REMARK                         _______ _______ _______ _____ _____    ______ ____
ROOT
ATOM      1  C   UNL     1       2.189   7.632   9.640  0.00  0.00    -0.068 C 
ATOM      2  C   UNL     1       1.040   6.664   9.346  0.00  0.00    +0.003 C 
ATOM      3  C   UNL     1       1.181   6.131   7.918  0.00  0.00    +0.103 C 
ATOM      4  N   UNL     1       1.155   7.253   6.971  0.00  0.00    -0.330 N 
ATOM      5  C   UNL     1       2.277   8.171   7.204  0.00  0.00    +0.103 C 
ATOM      6  C   UNL     1       2.168   8.764   8.611  0.00  0.00    +0.003 C 
ENDROOT
BRANCH   4   7
ATOM      7  C   UNL     1       1.150   6.796   5.657  0.00  0.00    +0.030 A 
ATOM      8  C   UNL     1       1.126   7.707   4.605  0.00  0.00    +0.024 A 
ATOM      9  C   UNL     1       1.122   7.258   3.304  0.00  0.00    +0.015 A 
ATOM     10  C   UNL     1       1.140   5.886   3.040  0.00  0.00    +0.037 A 
ATOM     11  C   UNL     1       1.158   4.973   4.099  0.00  0.00    +0.015 A 
ATOM     12  C   UNL     1       1.169   5.428   5.398  0.00  0.00    +0.024 A 
BRANCH  10  13
ATOM     13  C   UNL     1       1.135   5.401   1.647  0.00  0.00    +0.244 C 
ATOM     14  O   UNL     1       1.114   6.196   0.727  0.00  0.00    -0.270 OA
ATOM     15  N   UNL     1       1.153   4.077   1.394  0.00  0.00    -0.307 N 
ATOM     16  H   UNL     1       1.169   3.443   2.128  0.00  0.00    +0.149 HD
BRANCH  15  17
ATOM     17  C   UNL     1       1.147   3.596   0.010  0.00  0.00    +0.140 C 
BRANCH  17  18
ATOM     18  C   UNL     1       1.171   2.089   0.002  0.00  0.00    -0.027 A 
ATOM     19  C   UNL     1       2.379   1.418  -0.011  0.00  0.00    +0.009 A 
ATOM     20  C   UNL     1       2.405   0.036  -0.020  0.00  0.00    +0.050 A 
ATOM     21  C   UNL     1       1.220  -0.680  -0.013  0.00  0.00    +0.166 A 
ATOM     22  C   UNL     1       0.002  -0.004   0.002  0.00  0.00    +0.167 A 
ATOM     23  C   UNL     1      -0.017   1.381   0.010  0.00  0.00    +0.054 A 
ATOM     24  O   UNL     1      -1.007  -0.923   0.006  0.00  0.00    -0.453 OA
ATOM     25  C   UNL     1      -0.404  -2.159  -0.418  0.00  0.00    +0.466 C 
ATOM     26  O   UNL     1       0.973  -2.023  -0.018  0.00  0.00    -0.453 OA
ENDBRANCH  17  18
ENDBRANCH  15  17
ENDBRANCH  10  13
ENDBRANCH   4   7
BRANCH   1  27
ATOM     27  N   UNL     1       2.017   8.191  10.995  0.00  0.00    +0.385 N 
ATOM     28  H   UNL     1       1.386   8.999  10.950  0.00  0.00    -0.085 HD
ATOM     29  H   UNL     1       1.612   7.474  11.608  0.00  0.00    -0.085 HD
BRANCH  27  30
ATOM     30  C   UNL     1       3.319   8.619  11.540  0.00  0.00    -0.028 C 
BRANCH  30  38
ATOM     31  C   UNL     1       2.615  10.387  17.321  0.00  0.00    +0.001 A 
ATOM     32  C   UNL     1       2.316  11.607  16.730  0.00  0.00    +0.002 A 
ATOM     33  C   UNL     1       2.335  11.747  15.360  0.00  0.00    +0.026 A 
ATOM     34  C   UNL     1       2.657  10.656  14.558  0.00  0.00    +0.047 A 
ATOM     35  C   UNL     1       2.959   9.422  15.162  0.00  0.00    -0.000 A 
ATOM     36  C   UNL     1       2.934   9.303  16.553  0.00  0.00    +0.010 A 
ATOM     37  C   UNL     1       3.249   8.495  14.065  0.00  0.00    +0.029 A 
ATOM     38  C   UNL     1       3.113   9.185  12.922  0.00  0.00    -0.000 A 
ATOM     39  N   UNL     1       2.765  10.480  13.197  0.00  0.00    -0.360 N 
ATOM     40  H   UNL     1       2.614  11.169  12.532  0.00  0.00    +0.166 HD
ENDBRANCH  30  38
ENDBRANCH  27  30
ENDBRANCH   1  27
TORSDOF 7
