REMARK  Name = ZINC08833147
REMARK  9 active torsions:
REMARK  status: ('A' for Active; 'I' for Inactive)
REMARK    1  A    between atoms: C_1  and  C_2
REMARK    2  A    between atoms: C_2  and  C_3
REMARK    3  A    between atoms: C_6  and  S_25
REMARK    4  A    between atoms: N_7  and  N_8
REMARK    5  A    between atoms: N_8  and  C_9
REMARK    6  A    between atoms: C_9  and  N_11
REMARK    7  A    between atoms: C_12  and  C_14
REMARK    8  A    between atoms: S_25  and  C_26
REMARK    9  A    between atoms: C_26  and  C_27
REMARK                            x       y       z     vdW  Elec       q    Type
REMARK                         _______ _______ _______ _____ _____    ______ ____
ROOT
ATOM      1  N   UNL     1       6.442  -2.211  -3.836  0.00  0.00    -0.231 N 
ATOM      2  H   UNL     1       7.022  -2.718  -4.425  0.00  0.00    +0.175 HD
ENDROOT
BRANCH   1   7
ATOM      3  C   UNL     1       7.817  -2.264  -1.774  0.00  0.00    +0.151 A 
ATOM      4  N   UNL     1       7.542  -2.339  -0.502  0.00  0.00    -0.132 NA
ATOM      5  N   UNL     1       6.270  -2.386  -0.328  0.00  0.00    -0.121 NA
ATOM      6  C   UNL     1       5.659  -2.343  -1.490  0.00  0.00    +0.209 A 
ATOM      7  N   UNL     1       6.628  -2.270  -2.449  0.00  0.00    -0.220 N 
BRANCH   3   9
ATOM      8  C   UNL     1       9.699  -3.607  -2.671  0.00  0.00    +0.012 C 
ATOM      9  C   UNL     1       9.192  -2.192  -2.387  0.00  0.00    +0.074 C 
ENDBRANCH   3   9
BRANCH   6  10
ATOM     10  S   UNL     1       3.918  -2.381  -1.760  0.00  0.00    -0.080 S 
BRANCH  10  11
ATOM     11  C   UNL     1       3.337  -2.486  -0.049  0.00  0.00    +0.112 C 
BRANCH  11  12
ATOM     12  C   UNL     1       1.831  -2.532  -0.032  0.00  0.00    -0.037 A 
ATOM     13  C   UNL     1       1.175  -3.748  -0.086  0.00  0.00    +0.004 A 
ATOM     14  C   UNL     1      -0.207  -3.789  -0.071  0.00  0.00    +0.000 A 
ATOM     15  C   UNL     1      -0.933  -2.615  -0.002  0.00  0.00    +0.000 A 
ATOM     16  C   UNL     1      -0.277  -1.399   0.053  0.00  0.00    +0.000 A 
ATOM     17  C   UNL     1       1.104  -1.357   0.038  0.00  0.00    +0.004 A 
ENDBRANCH  11  12
ENDBRANCH  10  11
ENDBRANCH   6  10
ENDBRANCH   1   7
BRANCH   1  18
ATOM     18  C   UNL     1       5.457  -1.448  -4.352  0.00  0.00    +0.155 C 
ATOM     19  S   UNL     1       4.490  -0.484  -3.319  0.00  0.00    -0.017 S 
BRANCH  18  20
ATOM     20  N   UNL     1       5.234  -1.445  -5.681  0.00  0.00    -0.263 N 
ATOM     21  C   UNL     1       4.249  -0.683  -6.197  0.00  0.00    +0.250 C 
ATOM     22  O   UNL     1       3.562   0.002  -5.463  0.00  0.00    -0.270 OA
ATOM     23  H   UNL     1       5.781  -1.991  -6.266  0.00  0.00    +0.157 HD
BRANCH  21  24
ATOM     24  C   UNL     1       4.005  -0.679  -7.650  0.00  0.00    +0.045 A 
ATOM     25  C   UNL     1       4.698  -1.544  -8.488  0.00  0.00    +0.014 A 
ATOM     26  C   UNL     1       4.461  -1.542  -9.855  0.00  0.00    +0.001 A 
ATOM     27  C   UNL     1       3.561  -0.696 -10.427  0.00  0.00    +0.010 A 
ATOM     28  C   UNL     1       2.828   0.209  -9.642  0.00  0.00    +0.001 A 
ATOM     29  C   UNL     1       3.033   0.238  -8.240  0.00  0.00    -0.004 A 
ATOM     30  C   UNL     1       2.305   1.139  -7.454  0.00  0.00    +0.009 A 
ATOM     31  C   UNL     1       1.408   1.979  -8.045  0.00  0.00    +0.002 A 
ATOM     32  C   UNL     1       1.204   1.954  -9.422  0.00  0.00    +0.020 A 
ATOM     33  C   UNL     1       1.894   1.089 -10.218  0.00  0.00    +0.049 A 
ATOM     34 CL   UNL     1       1.623   1.075 -11.932  0.00  0.00    -0.083 Cl
ENDBRANCH  21  24
ENDBRANCH  18  20
ENDBRANCH   1  18
TORSDOF 8
