REMARK  Name = ZINC39606945
REMARK  8 active torsions:
REMARK  status: ('A' for Active; 'I' for Inactive)
REMARK    1  A    between atoms: C_1  and  C_2
REMARK    2  A    between atoms: C_9  and  C_14
REMARK    3  A    between atoms: C_14  and  O_16
REMARK    4  A    between atoms: O_16  and  C_17
REMARK    5  A    between atoms: C_17  and  C_19
REMARK    6  A    between atoms: C_17  and  C_20
REMARK    7  A    between atoms: N_22  and  C_23
REMARK    8  A    between atoms: C_26  and  N_29
REMARK                            x       y       z     vdW  Elec       q    Type
REMARK                         _______ _______ _______ _____ _____    ______ ____
ROOT
ATOM      1  C   UNL     1      -0.462  -8.651   2.203  0.00  0.00    +0.259 C 
ATOM      2  C   UNL     1      -1.194  -8.912   3.521  0.00  0.00    +0.062 C 
ENDROOT
BRANCH   1   3
ATOM      3  C   UNL     1       0.714  -9.586   2.087  0.00  0.00    +0.258 C 
ATOM      4  O   UNL     1       1.843  -9.143   2.081  0.00  0.00    -0.271 OA
ATOM      5  N   UNL     1       0.511 -10.915   1.990  0.00  0.00    -0.282 N 
ATOM      6  H   UNL     1      -0.387 -11.275   2.059  0.00  0.00    +0.155 HD
BRANCH   5   7
ATOM      7  C   UNL     1       1.598 -11.777   1.789  0.00  0.00    +0.034 A 
ATOM      8  C   UNL     1       1.449 -12.909   0.999  0.00  0.00    +0.025 A 
ATOM      9  C   UNL     1       2.520 -13.758   0.801  0.00  0.00    +0.025 A 
ATOM     10  C   UNL     1       3.746 -13.479   1.391  0.00  0.00    +0.030 A 
ATOM     11  C   UNL     1       3.894 -12.346   2.180  0.00  0.00    +0.025 A 
ATOM     12  C   UNL     1       2.825 -11.495   2.374  0.00  0.00    +0.025 A 
BRANCH  10  13
ATOM     13  N   UNL     1       4.831 -14.339   1.190  0.00  0.00    -0.330 N 
ATOM     14  C   UNL     1       6.095 -14.129   1.908  0.00  0.00    +0.105 C 
ATOM     15  C   UNL     1       6.477 -15.428   2.625  0.00  0.00    +0.019 C 
ATOM     16  C   UNL     1       6.512 -16.574   1.611  0.00  0.00    +0.003 C 
ATOM     17  C   UNL     1       5.124 -16.753   0.993  0.00  0.00    +0.019 C 
ATOM     18  C   UNL     1       4.725 -15.473   0.262  0.00  0.00    +0.105 C 
ENDBRANCH  10  13
ENDBRANCH   5   7
ENDBRANCH   1   3
BRANCH   1  19
ATOM     19  O   UNL     1      -0.001  -7.299   2.175  0.00  0.00    -0.449 OA
BRANCH  19  20
ATOM     20  C   UNL     1      -0.837  -6.377   1.657  0.00  0.00    +0.340 C 
ATOM     21  O   UNL     1      -1.928  -6.713   1.240  0.00  0.00    -0.245 OA
BRANCH  20  29
ATOM     22  C   UNL     1      -0.086   1.508  -0.082  0.00  0.00    +0.029 C 
ATOM     23  C   UNL     1      -0.061  -0.022  -0.078  0.00  0.00    +0.134 C 
ATOM     24  C   UNL     1      -1.470  -0.549  -0.032  0.00  0.00    +0.230 C 
ATOM     25  O   UNL     1      -2.358   0.151  -0.471  0.00  0.00    -0.274 OA
ATOM     26  N   UNL     1      -1.795  -1.740   0.464  0.00  0.00    -0.284 N 
ATOM     27  C   UNL     1      -0.915  -2.678   0.998  0.00  0.00    +0.048 A 
ATOM     28  C   UNL     1      -1.296  -4.009   1.058  0.00  0.00    +0.039 A 
ATOM     29  C   UNL     1      -0.428  -4.963   1.595  0.00  0.00    +0.061 A 
ATOM     30  C   UNL     1       0.829  -4.578   2.075  0.00  0.00    +0.016 A 
ATOM     31  C   UNL     1       1.208  -3.256   2.014  0.00  0.00    +0.017 A 
ATOM     32  C   UNL     1       0.346  -2.308   1.478  0.00  0.00    +0.030 A 
ATOM     33  S   UNL     1       0.838  -0.614   1.387  0.00  0.00    -0.111 S 
ATOM     34  H   UNL     1      -2.735  -1.977   0.452  0.00  0.00    +0.155 HD
ENDBRANCH  20  29
ENDBRANCH  19  20
ENDBRANCH   1  19
TORSDOF 6
