REMARK  Name = ZINC04965600
REMARK  4 active torsions:
REMARK  status: ('A' for Active; 'I' for Inactive)
REMARK    1  A    between atoms: C_1  and  C_2
REMARK    2  A    between atoms: C_8  and  N_10
REMARK    3  A    between atoms: C_11  and  C_13
REMARK    4  A    between atoms: N_22  and  C_23
REMARK                            x       y       z     vdW  Elec       q    Type
REMARK                         _______ _______ _______ _____ _____    ______ ____
ROOT
ATOM      1  C   UNL     1      -0.944   1.179  -1.383  0.00  0.00    +0.092 C 
ATOM      2  C   UNL     1      -0.102   0.901  -0.136  0.00  0.00    +0.016 C 
ATOM      3  C   UNL     1      -0.725   1.608   1.071  0.00  0.00    +0.020 C 
ATOM      4  C   UNL     1      -2.135   1.059   1.307  0.00  0.00    +0.109 C 
ATOM      5  N   UNL     1      -2.908   1.192   0.065  0.00  0.00    -0.285 N 
ATOM      6  C   UNL     1      -2.357   0.626  -1.174  0.00  0.00    +0.122 C 
ATOM      7  C   UNL     1      -4.101   1.820   0.062  0.00  0.00    +0.306 C 
ATOM      8  O   UNL     1      -4.686   2.008  -0.987  0.00  0.00    -0.252 OA
ATOM      9  N   UNL     1      -4.644   2.241   1.222  0.00  0.00    -0.269 N 
ATOM     10  H   UNL     1      -4.148   2.150   2.050  0.00  0.00    +0.156 HD
ENDROOT
BRANCH   9  11
ATOM     11  C   UNL     1      -5.924   2.809   1.230  0.00  0.00    +0.035 A 
ATOM     12  C   UNL     1      -6.338   3.606   0.172  0.00  0.00    +0.026 A 
ATOM     13  C   UNL     1      -7.603   4.160   0.179  0.00  0.00    +0.040 A 
ATOM     14  C   UNL     1      -8.454   3.931   1.247  0.00  0.00    +0.124 A 
ATOM     15  C   UNL     1      -8.041   3.141   2.306  0.00  0.00    +0.040 A 
ATOM     16  C   UNL     1      -6.779   2.580   2.300  0.00  0.00    +0.026 A 
ATOM     17  F   UNL     1      -9.689   4.479   1.255  0.00  0.00    -0.205 F 
ENDBRANCH   9  11
BRANCH   1  19
ATOM     18  N   UNL     1      -0.884   0.620  -3.791  0.00  0.00    -0.312 N 
ATOM     19  C   UNL     1      -0.312   0.510  -2.576  0.00  0.00    +0.218 C 
ATOM     20  O   UNL     1       0.711  -0.127  -2.443  0.00  0.00    -0.275 OA
ATOM     21  H   UNL     1      -1.703   1.129  -3.898  0.00  0.00    +0.149 HD
BRANCH  18  28
ATOM     22  C   UNL     1      -2.418  -1.216  -5.424  0.00  0.00    +0.009 C 
ATOM     23  C   UNL     1      -1.341  -0.302  -6.010  0.00  0.00    +0.006 C 
ATOM     24  C   UNL     1      -1.976   1.021  -6.444  0.00  0.00    +0.005 C 
ATOM     25  C   UNL     1      -0.899   1.935  -7.031  0.00  0.00    +0.000 C 
ATOM     26  C   UNL     1       0.172   2.207  -5.972  0.00  0.00    +0.002 C 
ATOM     27  C   UNL     1       0.807   0.884  -5.538  0.00  0.00    +0.022 C 
ATOM     28  C   UNL     1      -0.270  -0.031  -4.952  0.00  0.00    +0.076 C 
ENDBRANCH  18  28
ENDBRANCH   1  19
TORSDOF 3
