REMARK  Name = ZINC36497866
REMARK  12 active torsions:
REMARK  status: ('A' for Active; 'I' for Inactive)
REMARK    1  A    between atoms: C_1  and  C_2
REMARK    2  A    between atoms: C_2  and  C_3
REMARK    3  A    between atoms: C_2  and  C_4
REMARK    4  A    between atoms: C_2  and  N_5
REMARK    5  A    between atoms: C_6  and  C_8
REMARK    6  A    between atoms: C_8  and  C_10
REMARK    7  A    between atoms: C_8  and  N_17
REMARK    8  A    between atoms: C_15  and  O_16
REMARK    9  A    between atoms: N_17  and  C_18
REMARK   10  A    between atoms: C_18  and  C_19
REMARK   11  A    between atoms: C_24  and  C_26
REMARK   12  A    between atoms: C_31  and  O_32
REMARK                            x       y       z     vdW  Elec       q    Type
REMARK                         _______ _______ _______ _____ _____    ______ ____
ROOT
ATOM      1  C   UNL     1       3.350   0.960  -3.751  0.00  0.00    +0.196 C 
ENDROOT
BRANCH   1   2
ATOM      2  C   UNL     1       2.630  -0.359  -3.636  0.00  0.00    +0.023 A 
ATOM      3  C   UNL     1       2.863  -1.182  -2.551  0.00  0.00    +0.009 A 
ATOM      4  C   UNL     1       2.203  -2.392  -2.446  0.00  0.00    +0.001 A 
ATOM      5  C   UNL     1       1.308  -2.782  -3.425  0.00  0.00    +0.004 A 
ATOM      6  C   UNL     1       1.071  -1.963  -4.511  0.00  0.00    +0.046 A 
ATOM      7  C   UNL     1       1.728  -0.745  -4.617  0.00  0.00    +0.122 A 
BRANCH   7   8
ATOM      8  O   UNL     1       1.493   0.065  -5.682  0.00  0.00    -0.506 OA
ATOM      9  H   UNL     1       2.078  -0.095  -6.435  0.00  0.00    +0.292 HD
ENDBRANCH   7   8
ENDBRANCH   1   2
BRANCH   1  11
ATOM     10  N   UNL     1       1.345   2.241  -4.426  0.00  0.00    -0.309 N 
ATOM     11  C   UNL     1       2.368   2.087  -3.562  0.00  0.00    +0.239 C 
ATOM     12  O   UNL     1       2.498   2.855  -2.633  0.00  0.00    -0.273 OA
ATOM     13  H   UNL     1       1.204   1.590  -5.131  0.00  0.00    +0.149 HD
BRANCH  10  15
ATOM     14  C   UNL     1       1.265   4.684  -4.345  0.00  0.00    +0.031 C 
ATOM     15  C   UNL     1       0.447   3.391  -4.301  0.00  0.00    +0.026 C 
ATOM     16  C   UNL     1      -0.304   3.309  -2.970  0.00  0.00    +0.031 C 
ATOM     17  C   UNL     1      -0.557   3.383  -5.455  0.00  0.00    +0.031 C 
ENDBRANCH  10  15
ENDBRANCH   1  11
BRANCH   1  18
ATOM     18  N   UNL     1       4.389   1.040  -2.721  0.00  0.00    -0.274 N 
ATOM     19  C   UNL     1       5.601   0.491  -2.941  0.00  0.00    +0.251 C 
ATOM     20  O   UNL     1       6.344   0.263  -2.007  0.00  0.00    -0.270 OA
BRANCH  19  21
ATOM     21  C   UNL     1       6.024   0.168  -4.317  0.00  0.00    +0.078 A 
ATOM     22  C   UNL     1       5.134  -0.448  -5.200  0.00  0.00    +0.017 A 
ATOM     23  C   UNL     1       5.536  -0.746  -6.484  0.00  0.00    +0.001 A 
ATOM     24  C   UNL     1       6.820  -0.439  -6.904  0.00  0.00    +0.004 A 
ATOM     25  C   UNL     1       7.710   0.169  -6.041  0.00  0.00    +0.046 A 
ATOM     26  C   UNL     1       7.321   0.482  -4.747  0.00  0.00    +0.129 A 
BRANCH  26  27
ATOM     27  O   UNL     1       8.193   1.084  -3.900  0.00  0.00    -0.506 OA
ATOM     28  H   UNL     1       8.727   0.467  -3.382  0.00  0.00    +0.292 HD
ENDBRANCH  26  27
ENDBRANCH  19  21
BRANCH  18  29
ATOM     29  C   UNL     1       4.111   1.716  -1.451  0.00  0.00    +0.183 C 
BRANCH  29  30
ATOM     30  C   UNL     1       4.659   3.119  -1.499  0.00  0.00    +0.122 A 
ATOM     31  C   UNL     1       3.932   4.249  -1.453  0.00  0.00    +0.046 A 
ATOM     32  C   UNL     1       4.844   5.327  -1.525  0.00  0.00    +0.041 A 
ATOM     33  C   UNL     1       6.075   4.790  -1.611  0.00  0.00    +0.195 A 
ATOM     34  O   UNL     1       5.957   3.453  -1.589  0.00  0.00    -0.466 OA
ENDBRANCH  29  30
ENDBRANCH  18  29
ENDBRANCH   1  18
TORSDOF 9
