REMARK  Name = ZINC32655187
REMARK  6 active torsions:
REMARK  status: ('A' for Active; 'I' for Inactive)
REMARK    1  A    between atoms: C_1  and  C_2
REMARK    2  A    between atoms: C_2  and  C_36
REMARK    3  A    between atoms: C_6  and  C_26
REMARK    4  A    between atoms: C_13  and  S_17
REMARK    5  A    between atoms: S_17  and  C_18
REMARK    6  A    between atoms: C_18  and  C_19
REMARK                            x       y       z     vdW  Elec       q    Type
REMARK                         _______ _______ _______ _____ _____    ______ ____
ROOT
ATOM      1  C   UNL     1       2.511  -2.865   0.987  0.00  0.00    +0.011 C 
ATOM      2  C   UNL     1       2.244  -2.895  -0.519  0.00  0.00    -0.023 C 
ATOM      3  C   UNL     1       0.959  -2.123  -0.829  0.00  0.00    +0.058 C 
ATOM      4  C   UNL     1       1.118  -0.683  -0.406  0.00  0.00    +0.017 C 
ATOM      5  C   UNL     1       2.325  -0.080  -0.433  0.00  0.00    +0.024 C 
ATOM      6  C   UNL     1       2.491   1.357  -0.008  0.00  0.00    +0.092 C 
ATOM      7  C   UNL     1       1.177   2.078   0.002  0.00  0.00    +0.069 A 
ATOM      8  C   UNL     1       1.137   3.477   0.006  0.00  0.00    +0.258 A 
ATOM      9  O   UNL     1       2.170   4.128  -0.002  0.00  0.00    -0.267 OA
ATOM     10  N   UNL     1      -0.064   4.093   0.019  0.00  0.00    -0.302 N 
ATOM     11  H   UNL     1      -0.119   5.192   0.022  0.00  0.00    +0.171 HD
ATOM     12  C   UNL     1      -1.210   3.357   0.028  0.00  0.00    +0.171 A 
ATOM     13  N   UNL     1      -1.178   2.039   0.019  0.00  0.00    -0.208 NA
ATOM     14  C   UNL     1      -0.017   1.377   0.010  0.00  0.00    +0.135 A 
ATOM     15  N   UNL     1       0.002  -0.004   0.002  0.00  0.00    -0.302 N 
ATOM     16  C   UNL     1       3.472  -0.776  -0.854  0.00  0.00    +0.162 C 
ATOM     17  O   UNL     1       4.541  -0.199  -0.888  0.00  0.00    -0.292 OA
ATOM     18  C   UNL     1       3.403  -2.222  -1.262  0.00  0.00    +0.086 C 
ATOM     19  C   UNL     1       2.101  -4.344  -0.988  0.00  0.00    +0.011 C 
ATOM     20  H   UNL     1      -0.890  -0.558   0.328  0.00  0.00    +0.153 HD
ENDROOT
BRANCH   6  21
ATOM     21  C   UNL     1       3.086   1.396   1.376  0.00  0.00    -0.035 A 
ATOM     22  C   UNL     1       2.415   0.809   2.433  0.00  0.00    +0.007 A 
ATOM     23  C   UNL     1       2.963   0.840   3.702  0.00  0.00    +0.038 A 
ATOM     24  C   UNL     1       4.177   1.469   3.916  0.00  0.00    +0.123 A 
ATOM     25  C   UNL     1       4.845   2.061   2.858  0.00  0.00    +0.038 A 
ATOM     26  C   UNL     1       4.299   2.024   1.589  0.00  0.00    +0.007 A 
ATOM     27  F   UNL     1       4.710   1.505   5.157  0.00  0.00    -0.205 F 
ENDBRANCH   6  21
BRANCH  12  28
ATOM     28  S   UNL     1      -2.766   4.182   0.047  0.00  0.00    -0.083 S 
BRANCH  28  29
ATOM     29  C   UNL     1      -3.879   2.755   0.054  0.00  0.00    +0.114 C 
BRANCH  29  30
ATOM     30  C   UNL     1      -5.308   3.233   0.070  0.00  0.00    -0.019 A 
ATOM     31  C   UNL     1      -5.954   3.442   1.274  0.00  0.00    +0.006 A 
ATOM     32  C   UNL     1      -7.263   3.885   1.289  0.00  0.00    +0.000 A 
ATOM     33  C   UNL     1      -7.931   4.108   0.100  0.00  0.00    +0.001 A 
ATOM     34  C   UNL     1      -7.289   3.894  -1.105  0.00  0.00    +0.020 A 
ATOM     35  C   UNL     1      -5.977   3.456  -1.121  0.00  0.00    +0.045 A 
ATOM     36 CL   UNL     1      -5.170   3.186  -2.634  0.00  0.00    -0.083 Cl
ENDBRANCH  29  30
ENDBRANCH  28  29
ENDBRANCH  12  28
TORSDOF 4
