REMARK  Name = ZINC33812474
REMARK  10 active torsions:
REMARK  status: ('A' for Active; 'I' for Inactive)
REMARK    1  A    between atoms: C_1  and  C_2
REMARK    2  A    between atoms: C_3  and  C_25
REMARK    3  A    between atoms: C_4  and  N_12
REMARK    4  A    between atoms: N_5  and  C_11
REMARK    5  A    between atoms: C_8  and  C_9
REMARK    6  A    between atoms: N_15  and  C_18
REMARK    7  A    between atoms: N_29  and  C_33
REMARK    8  A    between atoms: C_33  and  C_34
REMARK    9  A    between atoms: C_34  and  C_35
REMARK   10  A    between atoms: C_34  and  C_36
REMARK                            x       y       z     vdW  Elec       q    Type
REMARK                         _______ _______ _______ _____ _____    ______ ____
ROOT
ATOM      1  C   UNL     1       2.434   4.318  -0.995  0.00  0.00    +0.046 C 
ATOM      2  C   UNL     1       1.315   3.408  -0.557  0.00  0.00    -0.017 A 
ATOM      3  C   UNL     1       0.080   3.940  -0.150  0.00  0.00    +0.019 A 
ATOM      4  C   UNL     1      -0.947   3.071   0.253  0.00  0.00    +0.112 A 
ATOM      5  N   UNL     1      -0.756   1.726   0.244  0.00  0.00    -0.298 N 
ATOM      6  C   UNL     1       0.419   1.193  -0.136  0.00  0.00    +0.270 A 
ATOM      7  O   UNL     1       0.564  -0.017  -0.129  0.00  0.00    -0.266 OA
ATOM      8  C   UNL     1       1.488   2.027  -0.552  0.00  0.00    +0.120 A 
ATOM      9  C   UNL     1      -1.846   0.842   0.663  0.00  0.00    +0.154 C 
ENDROOT
BRANCH   3  10
ATOM     10  C   UNL     1      -0.134   5.388  -0.143  0.00  0.00    +0.032 C 
ATOM     11  C   UNL     1       0.569   6.176   0.715  0.00  0.00    +0.077 C 
ATOM     12  C   UNL     1       0.556   7.597   0.861  0.00  0.00    +0.258 C 
ATOM     13  O   UNL     1      -0.155   8.293   0.160  0.00  0.00    -0.269 OA
ATOM     14  N   UNL     1       1.340   8.133   1.781  0.00  0.00    -0.255 N 
ATOM     15  C   UNL     1       2.130   7.360   2.558  0.00  0.00    +0.121 C 
ATOM     16  S   UNL     1       3.212   7.835   3.796  0.00  0.00    -0.027 S 
ATOM     17  S   UNL     1       1.754   5.715   1.971  0.00  0.00    -0.061 S 
BRANCH  14  18
ATOM     18  C   UNL     1       1.353   9.587   1.959  0.00  0.00    +0.118 C 
BRANCH  18  19
ATOM     19  C   UNL     1       0.295   9.984   2.991  0.00  0.00    +0.001 C 
ATOM     20  C   UNL     1       0.672   9.405   4.356  0.00  0.00    +0.009 C 
ATOM     21  C   UNL     1       0.222  11.509   3.086  0.00  0.00    +0.009 C 
ENDBRANCH  18  19
ENDBRANCH  14  18
ENDBRANCH   3  10
BRANCH   4  22
ATOM     22  N   UNL     1      -2.148   3.580   0.650  0.00  0.00    -0.313 N 
ATOM     23  C   UNL     1      -2.833   4.247  -0.467  0.00  0.00    +0.125 C 
ATOM     24  C   UNL     1      -4.207   4.734  -0.002  0.00  0.00    +0.124 C 
ATOM     25  N   UNL     1      -4.040   5.653   1.133  0.00  0.00    -0.327 N 
ATOM     26  C   UNL     1      -3.356   4.987   2.250  0.00  0.00    +0.124 C 
ATOM     27  C   UNL     1      -1.981   4.499   1.785  0.00  0.00    +0.125 C 
BRANCH  25  28
ATOM     28  C   UNL     1      -5.271   6.176   1.540  0.00  0.00    +0.030 A 
ATOM     29  C   UNL     1      -5.693   6.019   2.854  0.00  0.00    +0.026 A 
ATOM     30  C   UNL     1      -6.907   6.541   3.255  0.00  0.00    +0.040 A 
ATOM     31  C   UNL     1      -7.709   7.210   2.345  0.00  0.00    +0.124 A 
ATOM     32  C   UNL     1      -7.293   7.362   1.034  0.00  0.00    +0.040 A 
ATOM     33  C   UNL     1      -6.077   6.846   0.629  0.00  0.00    +0.026 A 
ATOM     34  F   UNL     1      -8.899   7.715   2.739  0.00  0.00    -0.205 F 
ENDBRANCH  25  28
ENDBRANCH   4  22
BRANCH   8  35
ATOM     35  C   UNL     1       2.735   1.453  -0.961  0.00  0.00    +0.105 C 
ATOM     36  N   UNL     1       3.724   0.998  -1.286  0.00  0.00    -0.191 NA
ENDBRANCH   8  35
TORSDOF 6
