REMARK  Name = ZINC63511488
REMARK  8 active torsions:
REMARK  status: ('A' for Active; 'I' for Inactive)
REMARK    1  A    between atoms: C_1  and  C_2
REMARK    2  A    between atoms: C_4  and  C_7
REMARK    3  A    between atoms: C_7  and  N_12
REMARK    4  A    between atoms: N_12  and  C_13
REMARK    5  A    between atoms: C_13  and  C_14
REMARK    6  A    between atoms: N_16  and  C_17
REMARK    7  A    between atoms: C_17  and  C_18
REMARK    8  A    between atoms: C_17  and  C_19
REMARK                            x       y       z     vdW  Elec       q    Type
REMARK                         _______ _______ _______ _____ _____    ______ ____
ROOT
ATOM      1  C   UNL     1      -3.256  -1.963  -1.150  0.00  0.00    +0.016 C 
ENDROOT
BRANCH   1   2
ATOM      2  C   UNL     1      -4.161  -1.911  -2.354  0.00  0.00    +0.196 C 
ATOM      3  O   UNL     1      -4.152  -2.818  -3.159  0.00  0.00    -0.278 OA
ATOM      4  N   UNL     1      -4.980  -0.856  -2.536  0.00  0.00    -0.310 N 
ATOM      5  H   UNL     1      -4.987  -0.131  -1.892  0.00  0.00    +0.149 HD
BRANCH   4   6
ATOM      6  C   UNL     1      -5.860  -0.806  -3.707  0.00  0.00    +0.101 C 
ATOM      7  C   UNL     1      -5.092  -0.228  -4.897  0.00  0.00    +0.033 C 
BRANCH   6   8
ATOM      8  C   UNL     1      -7.049   0.069  -3.404  0.00  0.00    -0.009 A 
ATOM      9  C   UNL     1      -6.952   1.060  -2.445  0.00  0.00    +0.008 A 
ATOM     10  C   UNL     1      -8.042   1.862  -2.167  0.00  0.00    +0.020 A 
ATOM     11  C   UNL     1      -9.231   1.675  -2.848  0.00  0.00    +0.042 A 
ATOM     12  C   UNL     1      -9.329   0.684  -3.808  0.00  0.00    +0.040 A 
ATOM     13  C   UNL     1      -8.236  -0.116  -4.090  0.00  0.00    +0.047 A 
ATOM     14 CL   UNL     1      -8.356  -1.356  -5.299  0.00  0.00    -0.083 Cl
ATOM     15 CL   UNL     1     -10.601   2.682  -2.498  0.00  0.00    -0.083 Cl
ENDBRANCH   6   8
ENDBRANCH   4   6
ENDBRANCH   1   2
BRANCH   1  16
ATOM     16  N   UNL     1      -2.470  -3.204  -1.181  0.00  0.00    +0.393 N 
ATOM     17  H   UNL     1      -1.913  -3.228  -2.022  0.00  0.00    -0.084 HD
ATOM     18  H   UNL     1      -3.093  -3.997  -1.168  0.00  0.00    -0.084 HD
BRANCH  16  19
ATOM     19  C   UNL     1      -1.588  -3.254  -0.008  0.00  0.00    -0.003 C 
ATOM     20  C   UNL     1      -2.428  -3.272   1.286  0.00  0.00    -0.005 C 
ATOM     21  C   UNL     1      -2.542  -4.775   1.644  0.00  0.00    -0.001 C 
ATOM     22  C   UNL     1      -1.142  -5.322   1.268  0.00  0.00    -0.001 C 
ATOM     23  C   UNL     1      -0.770  -4.558  -0.019  0.00  0.00    -0.005 C 
BRANCH  19  27
ATOM     24  C   UNL     1      -0.018   1.503   0.010  0.00  0.00    +0.112 C 
ATOM     25  C   UNL     1       0.002  -0.004   0.002  0.00  0.00    +0.224 A 
ATOM     26  N   UNL     1      -1.044  -0.783   0.003  0.00  0.00    -0.198 NA
ATOM     27  C   UNL     1      -0.663  -2.065  -0.006  0.00  0.00    +0.161 A 
ATOM     28  N   UNL     1       0.638  -2.118  -0.012  0.00  0.00    -0.063 NA
ATOM     29  O   UNL     1       1.097  -0.774  -0.013  0.00  0.00    -0.338 OA
ENDBRANCH  19  27
ENDBRANCH  16  19
ENDBRANCH   1  16
TORSDOF 6
