REMARK  Name = ZINC08949007
REMARK  13 active torsions:
REMARK  status: ('A' for Active; 'I' for Inactive)
REMARK    1  A    between atoms: C_1  and  C_2
REMARK    2  A    between atoms: C_2  and  S_3
REMARK    3  A    between atoms: S_3  and  C_4
REMARK    4  A    between atoms: N_10  and  C_13
REMARK    5  A    between atoms: C_13  and  C_14
REMARK    6  A    between atoms: C_14  and  N_15
REMARK    7  A    between atoms: C_16  and  C_18
REMARK    8  A    between atoms: C_21  and  S_24
REMARK    9  A    between atoms: S_24  and  N_27
REMARK   10  A    between atoms: N_32  and  C_33
REMARK   11  A    between atoms: C_33  and  C_34
REMARK   12  A    between atoms: C_34  and  C_35
REMARK   13  A    between atoms: C_34  and  C_36
REMARK                            x       y       z     vdW  Elec       q    Type
REMARK                         _______ _______ _______ _____ _____    ______ ____
ROOT
ATOM      1  C   UNL     1      -1.832   3.151   0.045  0.00  0.00    +0.164 C 
ENDROOT
BRANCH   1   8
ATOM      2  C   UNL     1       2.289   1.409  -0.013  0.00  0.00    +0.192 A 
ATOM      3  N   UNL     1       2.353   0.082  -0.021  0.00  0.00    -0.206 NA
ATOM      4  C   UNL     1       1.251  -0.658  -0.014  0.00  0.00    +0.134 A 
ATOM      5  C   UNL     1       0.002  -0.004   0.002  0.00  0.00    +0.078 A 
ATOM      6  C   UNL     1      -1.342  -0.436   0.013  0.00  0.00    +0.148 A 
ATOM      7  N   UNL     1      -2.113   0.614   0.026  0.00  0.00    -0.177 NA
ATOM      8  N   UNL     1      -1.329   1.775   0.030  0.00  0.00    -0.245 N 
ATOM      9  C   UNL     1      -0.017   1.404   0.010  0.00  0.00    +0.164 A 
ATOM     10  N   UNL     1       1.140   2.064   0.002  0.00  0.00    -0.202 NA
ATOM     11  N   UNL     1       1.326  -2.037  -0.021  0.00  0.00    -0.328 N 
ATOM     12  H   UNL     1       0.514  -2.567  -0.016  0.00  0.00    +0.147 HD
BRANCH   2  13
ATOM     13  S   UNL     1       3.791   2.331  -0.024  0.00  0.00    -0.086 S 
BRANCH  13  15
ATOM     14  C   UNL     1       6.409   1.550  -0.055  0.00  0.00    +0.016 C 
ATOM     15  C   UNL     1       4.991   0.976  -0.043  0.00  0.00    +0.074 C 
ENDBRANCH  13  15
ENDBRANCH   2  13
BRANCH  11  16
ATOM     16  C   UNL     1       2.633  -2.699  -0.038  0.00  0.00    +0.106 C 
BRANCH  16  17
ATOM     17  C   UNL     1       2.435  -4.216  -0.044  0.00  0.00    -0.000 C 
ATOM     18  C   UNL     1       3.793  -4.906  -0.187  0.00  0.00    +0.009 C 
ATOM     19  C   UNL     1       1.778  -4.650   1.268  0.00  0.00    +0.009 C 
ENDBRANCH  16  17
ENDBRANCH  11  16
ENDBRANCH   1   8
BRANCH   1  20
ATOM     20  C   UNL     1      -2.026   3.638  -1.393  0.00  0.00    +0.128 C 
BRANCH  20  21
ATOM     21  N   UNL     1      -2.530   5.014  -1.378  0.00  0.00    -0.310 N 
ATOM     22  C   UNL     1      -2.777   5.654  -2.538  0.00  0.00    +0.244 C 
ATOM     23  O   UNL     1      -2.582   5.089  -3.597  0.00  0.00    -0.270 OA
ATOM     24  H   UNL     1      -2.685   5.465  -0.533  0.00  0.00    +0.149 HD
BRANCH  22  25
ATOM     25  C   UNL     1      -3.284   7.042  -2.523  0.00  0.00    +0.037 A 
ATOM     26  C   UNL     1      -3.514   7.691  -1.309  0.00  0.00    +0.015 A 
ATOM     27  C   UNL     1      -3.983   8.989  -1.302  0.00  0.00    +0.029 A 
ATOM     28  C   UNL     1      -4.236   9.643  -2.495  0.00  0.00    +0.106 A 
ATOM     29  C   UNL     1      -4.016   9.003  -3.701  0.00  0.00    +0.029 A 
ATOM     30  C   UNL     1      -3.541   7.708  -3.723  0.00  0.00    +0.015 A 
BRANCH  28  31
ATOM     31  S   UNL     1      -4.841  11.297  -2.477  0.00  0.00    +0.061 S 
ATOM     32  O   UNL     1      -4.447  11.861  -1.233  0.00  0.00    -0.153 OA
ATOM     33  O   UNL     1      -4.481  11.875  -3.724  0.00  0.00    -0.153 OA
BRANCH  31  34
ATOM     34  N   UNL     1      -6.495  11.213  -2.454  0.00  0.00    -0.177 NA
ATOM     35  C   UNL     1      -7.367  11.183  -3.638  0.00  0.00    +0.109 C 
ATOM     36  C   UNL     1      -8.824  11.128  -3.131  0.00  0.00    +0.018 C 
ATOM     37  C   UNL     1      -8.714  11.709  -1.697  0.00  0.00    +0.018 C 
ATOM     38  C   UNL     1      -7.337  11.162  -1.245  0.00  0.00    +0.109 C 
ENDBRANCH  31  34
ENDBRANCH  28  31
ENDBRANCH  22  25
ENDBRANCH  20  21
ENDBRANCH   1  20
TORSDOF 10
