REMARK  Name = ZINC59933297
REMARK  6 active torsions:
REMARK  status: ('A' for Active; 'I' for Inactive)
REMARK    1  A    between atoms: C_4  and  N_7
REMARK    2  A    between atoms: N_7  and  C_8
REMARK    3  A    between atoms: C_9  and  C_26
REMARK    4  A    between atoms: C_12  and  C_15
REMARK    5  A    between atoms: N_17  and  C_18
REMARK    6  A    between atoms: C_23  and  C_24
REMARK                            x       y       z     vdW  Elec       q    Type
REMARK                         _______ _______ _______ _____ _____    ______ ____
ROOT
ATOM      1  C   UNL     1       3.519  -1.999  -0.034  0.00  0.00    +0.078 C 
ATOM      2  C   UNL     1       4.662  -2.773   0.133  0.00  0.00    +0.057 C 
ATOM      3  C   UNL     1       4.567  -4.156   0.276  0.00  0.00    +0.067 C 
ATOM      4  N   UNL     1       5.612  -4.916   0.435  0.00  0.00    -0.302 NA
ATOM      5  C   UNL     1       3.155  -4.710   0.232  0.00  0.00    +0.187 C 
ATOM      6  S   UNL     1       2.176  -3.172   0.001  0.00  0.00    -0.090 S 
ATOM      7  H   UNL     1       6.502  -4.535   0.380  0.00  0.00    +0.186 HD
ENDROOT
BRANCH   2   8
ATOM      8  C   UNL     1       5.982  -2.127   0.160  0.00  0.00    +0.113 A 
ATOM      9  N   UNL     1       7.176  -2.686   0.195  0.00  0.00    -0.239 NA
ATOM     10  C   UNL     1       8.313  -1.960   0.216  0.00  0.00    +0.079 A 
ATOM     11  C   UNL     1       9.647  -2.429   0.255  0.00  0.00    +0.029 A 
ATOM     12  C   UNL     1      10.698  -1.550   0.272  0.00  0.00    +0.002 A 
ATOM     13  C   UNL     1      10.496  -0.177   0.253  0.00  0.00    +0.001 A 
ATOM     14  C   UNL     1       9.204   0.317   0.214  0.00  0.00    +0.017 A 
ATOM     15  C   UNL     1       8.145  -0.556   0.197  0.00  0.00    +0.040 A 
ATOM     16  S   UNL     1       6.378  -0.384   0.143  0.00  0.00    -0.067 S 
ENDBRANCH   2   8
BRANCH   5  17
ATOM     17  C   UNL     1       2.797  -5.386   1.531  0.00  0.00    +0.236 C 
ATOM     18  O   UNL     1       3.221  -4.947   2.579  0.00  0.00    -0.274 OA
ATOM     19  N   UNL     1       2.006  -6.477   1.527  0.00  0.00    -0.283 N 
ATOM     20  H   UNL     1       1.719  -6.865   0.686  0.00  0.00    +0.155 HD
BRANCH  19  21
ATOM     21  C   UNL     1       1.600  -7.048   2.733  0.00  0.00    +0.051 A 
ATOM     22  C   UNL     1       2.386  -6.910   3.869  0.00  0.00    +0.024 A 
ATOM     23  C   UNL     1       1.982  -7.476   5.061  0.00  0.00    +0.002 A 
ATOM     24  C   UNL     1       0.793  -8.184   5.135  0.00  0.00    +0.001 A 
ATOM     25  C   UNL     1       0.000  -8.331   4.017  0.00  0.00    +0.021 A 
ATOM     26  C   UNL     1       0.393  -7.758   2.805  0.00  0.00    +0.073 A 
BRANCH  26  27
ATOM     27  C   UNL     1      -0.430  -7.902   1.641  0.00  0.00    +0.101 C 
ATOM     28  N   UNL     1      -1.082  -8.015   0.718  0.00  0.00    -0.191 NA
ENDBRANCH  26  27
ENDBRANCH  19  21
ENDBRANCH   5  17
BRANCH   1  29
ATOM     29  N   UNL     1       3.442  -0.639  -0.186  0.00  0.00    -0.309 N 
ATOM     30  H   UNL     1       4.253  -0.113  -0.263  0.00  0.00    +0.153 HD
BRANCH  29  34
ATOM     31  C   UNL     1      -0.276   1.234  -0.317  0.00  0.00    +0.000 A 
ATOM     32  C   UNL     1      -0.092   0.121   0.483  0.00  0.00    +0.002 A 
ATOM     33  C   UNL     1       1.140  -0.502   0.529  0.00  0.00    +0.023 A 
ATOM     34  C   UNL     1       2.194  -0.011  -0.231  0.00  0.00    +0.032 A 
ATOM     35  C   UNL     1       2.005   1.106  -1.034  0.00  0.00    +0.023 A 
ATOM     36  C   UNL     1       0.772   1.725  -1.075  0.00  0.00    +0.002 A 
ENDBRANCH  29  34
ENDBRANCH   1  29
TORSDOF 6
