REMARK  Name = ZINC39851852
REMARK  5 active torsions:
REMARK  status: ('A' for Active; 'I' for Inactive)
REMARK    1  A    between atoms: C_1  and  C_2
REMARK    2  A    between atoms: C_8  and  C_10
REMARK    3  A    between atoms: C_11  and  C_22
REMARK    4  A    between atoms: C_16  and  C_20
REMARK    5  A    between atoms: C_16  and  C_21
REMARK                            x       y       z     vdW  Elec       q    Type
REMARK                         _______ _______ _______ _____ _____    ______ ____
ROOT
ATOM      1  C   UNL     1       0.086  -5.147   3.111  0.00  0.00    +0.193 A 
ATOM      2  C   UNL     1       0.110  -6.509   3.027  0.00  0.00    +0.011 A 
ATOM      3  C   UNL     1       0.120  -6.983   4.347  0.00  0.00    +0.062 A 
ATOM      4  C   UNL     1       0.099  -5.872   5.182  0.00  0.00    +0.117 A 
ATOM      5  O   UNL     1       0.088  -4.789   4.416  0.00  0.00    -0.454 OA
ATOM      6  C   UNL     1       0.095  -5.979   6.686  0.00  0.00    +0.082 C 
ATOM      7  C   UNL     1      -0.389  -7.374   7.092  0.00  0.00    -0.021 C 
ATOM      8  C   UNL     1       0.422  -8.458   6.375  0.00  0.00    +0.086 C 
ATOM      9  C   UNL     1       0.148  -8.353   4.882  0.00  0.00    +0.167 C 
ATOM     10  O   UNL     1      -0.034  -9.329   4.183  0.00  0.00    -0.292 OA
ATOM     11  C   UNL     1      -1.866  -7.522   6.723  0.00  0.00    +0.012 C 
ATOM     12  C   UNL     1      -0.229  -7.542   8.604  0.00  0.00    +0.012 C 
ATOM     13  C   UNL     1       0.122  -7.338   1.768  0.00  0.00    +0.048 C 
ENDROOT
BRANCH   1  21
ATOM     14  C   UNL     1      -0.018   1.503   0.010  0.00  0.00    +0.066 C 
ATOM     15  C   UNL     1       0.002  -0.004   0.002  0.00  0.00    +0.047 A 
ATOM     16  C   UNL     1       0.006  -0.706  -1.158  0.00  0.00    +0.071 A 
ATOM     17  S   UNL     1       0.032  -2.379  -0.535  0.00  0.00    -0.060 S 
ATOM     18  C   UNL     1       0.035  -2.015   1.108  0.00  0.00    +0.165 A 
ATOM     19  N   UNL     1       0.023  -0.700   1.124  0.00  0.00    -0.230 NA
ATOM     20  N   UNL     1       0.052  -2.891   2.186  0.00  0.00    -0.258 N 
ATOM     21  C   UNL     1       0.069  -4.222   1.973  0.00  0.00    +0.285 C 
ATOM     22  O   UNL     1       0.069  -4.656   0.836  0.00  0.00    -0.266 OA
ATOM     23  H   UNL     1       0.051  -2.545   3.092  0.00  0.00    +0.157 HD
ENDBRANCH   1  21
TORSDOF 1
