REMARK  Name = ZINC42958998
REMARK  7 active torsions:
REMARK  status: ('A' for Active; 'I' for Inactive)
REMARK    1  A    between atoms: C_1  and  C_2
REMARK    2  A    between atoms: C_2  and  C_4
REMARK    3  A    between atoms: C_2  and  N_22
REMARK    4  A    between atoms: C_4  and  C_6
REMARK    5  A    between atoms: C_4  and  S_13
REMARK    6  A    between atoms: S_13  and  C_14
REMARK    7  A    between atoms: N_18  and  C_19
REMARK                            x       y       z     vdW  Elec       q    Type
REMARK                         _______ _______ _______ _____ _____    ______ ____
ROOT
ATOM      1  C   UNL     1       0.843  -0.498   1.181  0.00  0.00    +0.069 C 
ENDROOT
BRANCH   1   2
ATOM      2  C   UNL     1       0.937  -1.980   0.926  0.00  0.00    -0.036 A 
ATOM      3  C   UNL     1       1.450  -2.445  -0.271  0.00  0.00    +0.006 A 
ATOM      4  C   UNL     1       1.538  -3.804  -0.505  0.00  0.00    +0.015 A 
ATOM      5  C   UNL     1       1.111  -4.700   0.459  0.00  0.00    +0.018 A 
ATOM      6  C   UNL     1       0.598  -4.235   1.656  0.00  0.00    +0.015 A 
ATOM      7  C   UNL     1       0.516  -2.876   1.891  0.00  0.00    +0.006 A 
ATOM      8 BR   UNL     1       1.229  -6.560   0.139  0.00  0.00    -0.050 Br
ENDBRANCH   1   2
BRANCH   1  10
ATOM      9  C   UNL     1      -0.213   1.637   0.426  0.00  0.00    -0.013 C 
ATOM     10  C   UNL     1      -0.058   0.145   0.124  0.00  0.00    -0.060 C 
BRANCH  10  11
ATOM     11  N   UNL     1      -1.377  -0.500   0.148  0.00  0.00    +0.381 N 
ATOM     12  H   UNL     1      -1.971  -0.076  -0.549  0.00  0.00    -0.090 HD
ATOM     13  H   UNL     1      -1.275  -1.484  -0.051  0.00  0.00    -0.090 HD
ATOM     14  H   UNL     1      -1.793  -0.383   1.060  0.00  0.00    -0.090 HD
ENDBRANCH  10  11
ENDBRANCH   1  10
BRANCH   1  15
ATOM     15  S   UNL     1       2.499   0.237   1.092  0.00  0.00    -0.078 S 
BRANCH  15  16
ATOM     16  C   UNL     1       3.339  -0.435   2.488  0.00  0.00    +0.210 A 
ATOM     17  N   UNL     1       2.820  -1.214   3.412  0.00  0.00    -0.101 NA
ATOM     18  N   UNL     1       3.706  -1.524   4.288  0.00  0.00    -0.022 NA
ATOM     19  N   UNL     1       4.836  -0.977   3.996  0.00  0.00    -0.043 NA
ATOM     20  N   UNL     1       4.641  -0.251   2.808  0.00  0.00    -0.217 N 
BRANCH  20  21
ATOM     21  C   UNL     1       5.635   0.538   2.075  0.00  0.00    +0.112 C 
ATOM     22  C   UNL     1       7.093   0.431   2.525  0.00  0.00    +0.029 C 
ATOM     23  C   UNL     1       6.295   1.704   2.814  0.00  0.00    +0.029 C 
ENDBRANCH  20  21
ENDBRANCH  15  16
ENDBRANCH   1  15
TORSDOF 6
