REMARK  Name = ZINC09823604
REMARK  8 active torsions:
REMARK  status: ('A' for Active; 'I' for Inactive)
REMARK    1  A    between atoms: C_1  and  C_2
REMARK    2  A    between atoms: C_2  and  C_25
REMARK    3  A    between atoms: N_5  and  C_9
REMARK    4  A    between atoms: C_9  and  C_10
REMARK    5  A    between atoms: N_12  and  C_13
REMARK    6  A    between atoms: C_13  and  C_14
REMARK    7  A    between atoms: C_14  and  C_16
REMARK    8  A    between atoms: C_14  and  N_62
REMARK                            x       y       z     vdW  Elec       q    Type
REMARK                         _______ _______ _______ _____ _____    ______ ____
ROOT
ATOM      1  C   UNL     1       0.759   8.040  -1.309  0.00  0.00    +0.047 C 
ATOM      2  C   UNL     1       1.000   7.444   0.080  0.00  0.00    +0.135 C 
ATOM      3  C   UNL     1       2.262   8.016   0.694  0.00  0.00    +0.251 C 
ATOM      4  O   UNL     1       3.392   7.926   0.264  0.00  0.00    -0.272 OA
ATOM      5  N   UNL     1       1.867   8.647   1.817  0.00  0.00    -0.215 N 
ATOM      6  C   UNL     1       0.544   8.554   1.996  0.00  0.00    +0.310 C 
ATOM      7  O   UNL     1      -0.047   9.044   2.939  0.00  0.00    -0.252 OA
ATOM      8  N   UNL     1      -0.059   7.857   1.016  0.00  0.00    -0.281 N 
ATOM      9  H   UNL     1      -1.007   7.665   0.940  0.00  0.00    +0.152 HD
ENDROOT
BRANCH   2  10
ATOM     10  C   UNL     1       1.082   5.941   0.003  0.00  0.00    -0.015 A 
ATOM     11  C   UNL     1       2.325   5.329  -0.149  0.00  0.00    +0.007 A 
ATOM     12  C   UNL     1       2.434   3.974  -0.222  0.00  0.00    +0.009 A 
ATOM     13  C   UNL     1       1.279   3.178  -0.143  0.00  0.00    -0.018 A 
ATOM     14  C   UNL     1       1.352   1.776  -0.215  0.00  0.00    +0.008 A 
ATOM     15  C   UNL     1       0.212   1.038  -0.136  0.00  0.00    +0.001 A 
ATOM     16  C   UNL     1      -1.032   1.650   0.010  0.00  0.00    +0.001 A 
ATOM     17  C   UNL     1      -1.140   3.005   0.089  0.00  0.00    +0.008 A 
ATOM     18  C   UNL     1       0.015   3.801   0.011  0.00  0.00    -0.018 A 
ATOM     19  C   UNL     1      -0.058   5.202   0.083  0.00  0.00    +0.014 A 
ENDBRANCH   2  10
BRANCH   5  20
ATOM     20  C   UNL     1       2.773   9.348   2.730  0.00  0.00    +0.213 C 
BRANCH  20  21
ATOM     21  C   UNL     1       2.900  10.788   2.305  0.00  0.00    +0.231 C 
ATOM     22  O   UNL     1       2.293  11.190   1.334  0.00  0.00    -0.274 OA
ATOM     23  N   UNL     1       3.688  11.630   3.002  0.00  0.00    -0.315 N 
ATOM     24  H   UNL     1       4.174  11.309   3.778  0.00  0.00    +0.149 HD
BRANCH  23  25
ATOM     25  C   UNL     1       3.812  13.030   2.589  0.00  0.00    +0.096 C 
BRANCH  25  26
ATOM     26  C   UNL     1       4.663  13.790   3.608  0.00  0.00    +0.016 C 
BRANCH  26  31
ATOM     27  C   UNL     1       3.307  15.781   3.262  0.00  0.00    -0.078 C 
ATOM     28  C   UNL     1       3.548  17.304   3.414  0.00  0.00    -0.020 C 
ATOM     29  C   UNL     1       4.747  17.369   4.387  0.00  0.00    -0.020 C 
ATOM     30  C   UNL     1       5.435  15.996   4.271  0.00  0.00    -0.078 C 
ATOM     31  N   UNL     1       4.677  15.244   3.269  0.00  0.00    +0.387 N 
ATOM     32  H   UNL     1       5.104  15.371   2.344  0.00  0.00    -0.081 HD
ENDBRANCH  26  31
BRANCH  26  33
ATOM     33  C   UNL     1       6.071  13.251   3.588  0.00  0.00    +0.093 A 
ATOM     34  C   UNL     1       6.590  12.376   4.468  0.00  0.00    +0.043 A 
ATOM     35  C   UNL     1       7.930  12.148   4.076  0.00  0.00    +0.041 A 
ATOM     36  C   UNL     1       8.148  12.897   2.980  0.00  0.00    +0.195 A 
ATOM     37  O   UNL     1       7.017  13.558   2.686  0.00  0.00    -0.469 OA
ENDBRANCH  26  33
ENDBRANCH  25  26
ENDBRANCH  23  25
ENDBRANCH  20  21
ENDBRANCH   5  20
TORSDOF 7
