REMARK  Name = ZINC06411649
REMARK  5 active torsions:
REMARK  status: ('A' for Active; 'I' for Inactive)
REMARK    1  A    between atoms: C_1  and  S_2
REMARK    2  A    between atoms: S_2  and  C_3
REMARK    3  A    between atoms: C_4  and  C_20
REMARK    4  A    between atoms: C_5  and  C_11
REMARK    5  A    between atoms: C_16  and  N_17
REMARK                            x       y       z     vdW  Elec       q    Type
REMARK                         _______ _______ _______ _____ _____    ______ ____
ROOT
ATOM      1  C   UNL     1       1.679   5.790  -2.055  0.00  0.00    +0.081 C 
ATOM      2  C   UNL     1       2.240   4.551  -1.980  0.00  0.00    +0.065 C 
ATOM      3  C   UNL     1       2.400   3.874  -0.643  0.00  0.00    +0.073 C 
ATOM      4  C   UNL     1       2.684   4.926   0.430  0.00  0.00    +0.109 C 
ATOM      5  C   UNL     1       1.701   6.060   0.298  0.00  0.00    +0.218 C 
ATOM      6  O   UNL     1       1.311   6.638   1.290  0.00  0.00    -0.275 OA
ATOM      7  N   UNL     1       1.253   6.437  -0.914  0.00  0.00    -0.279 N 
ATOM      8  H   UNL     1       0.540   7.270  -0.989  0.00  0.00    +0.155 HD
ENDROOT
BRANCH   3   9
ATOM      9  C   UNL     1       1.132   3.135  -0.300  0.00  0.00    -0.009 A 
ATOM     10  C   UNL     1      -0.081   3.798  -0.320  0.00  0.00    +0.006 A 
ATOM     11  C   UNL     1      -1.244   3.121  -0.005  0.00  0.00    +0.000 A 
ATOM     12  C   UNL     1      -1.195   1.779   0.325  0.00  0.00    +0.002 A 
ATOM     13  C   UNL     1       0.019   1.118   0.350  0.00  0.00    +0.033 A 
ATOM     14  C   UNL     1       1.182   1.796   0.035  0.00  0.00    +0.130 A 
BRANCH  14  15
ATOM     15  N   UNL     1       2.481   1.086   0.057  0.00  0.00    +0.057 N 
ATOM     16  O   UNL     1       2.557  -0.057  -0.357  0.00  0.00    -0.126 OA
ATOM     17  O   UNL     1       3.473   1.645   0.488  0.00  0.00    -0.126 OA
ENDBRANCH  14  15
ENDBRANCH   3   9
BRANCH   1  19
ATOM     18  C   UNL     1       0.725   8.127  -3.111  0.00  0.00    +0.091 C 
ATOM     19  S   UNL     1       1.497   6.572  -3.623  0.00  0.00    -0.113 S 
ENDBRANCH   1  19
BRANCH   2  20
ATOM     20  C   UNL     1       2.679   3.892  -3.172  0.00  0.00    +0.098 C 
ATOM     21  N   UNL     1       3.028   3.368  -4.118  0.00  0.00    -0.191 NA
ENDBRANCH   2  20
TORSDOF 4
