REMARK  Name = ZINC42535730
REMARK  6 active torsions:
REMARK  status: ('A' for Active; 'I' for Inactive)
REMARK    1  A    between atoms: C_1  and  C_2
REMARK    2  A    between atoms: C_5  and  N_8
REMARK    3  A    between atoms: C_9  and  C_11
REMARK    4  A    between atoms: C_11  and  C_13
REMARK    5  A    between atoms: C_11  and  N_14
REMARK    6  A    between atoms: C_17  and  N_20
REMARK                            x       y       z     vdW  Elec       q    Type
REMARK                         _______ _______ _______ _____ _____    ______ ____
ROOT
ATOM      1  N   UNL     1       3.703  -6.647   1.293  0.00  0.00    +0.387 N 
ATOM      2  C   UNL     1       4.883  -6.035   0.671  0.00  0.00    -0.076 C 
ATOM      3  C   UNL     1       6.143  -6.465   1.425  0.00  0.00    +0.006 C 
ATOM      4  C   UNL     1       6.269  -7.990   1.370  0.00  0.00    +0.089 C 
ATOM      5  C   UNL     1       5.000  -8.618   1.954  0.00  0.00    +0.006 C 
ATOM      6  C   UNL     1       3.783  -8.108   1.180  0.00  0.00    -0.076 C 
ATOM      7  H   UNL     1       3.667  -6.388   2.267  0.00  0.00    -0.081 HD
ENDROOT
BRANCH   4   8
ATOM      8  N   UNL     1       7.431  -8.415   2.154  0.00  0.00    -0.289 N 
ATOM      9  C   UNL     1       8.535  -9.109   1.665  0.00  0.00    +0.070 A 
ATOM     10  C   UNL     1       8.879  -9.587   0.410  0.00  0.00    +0.028 A 
ATOM     11  C   UNL     1      10.074 -10.256   0.232  0.00  0.00    +0.002 A 
ATOM     12  C   UNL     1      10.930 -10.452   1.302  0.00  0.00    +0.002 A 
ATOM     13  C   UNL     1      10.596  -9.981   2.557  0.00  0.00    +0.028 A 
ATOM     14  C   UNL     1       9.398  -9.307   2.745  0.00  0.00    +0.067 A 
ATOM     15  N   UNL     1       8.793  -8.726   3.856  0.00  0.00    -0.306 N 
ATOM     16  H   UNL     1       9.157  -8.705   4.755  0.00  0.00    +0.170 HD
ATOM     17  C   UNL     1       7.618  -8.194   3.469  0.00  0.00    +0.328 A 
ATOM     18  O   UNL     1       6.840  -7.607   4.199  0.00  0.00    -0.247 OA
ENDBRANCH   4   8
BRANCH   1  19
ATOM     19  C   UNL     1       2.491  -6.170   0.615  0.00  0.00    +0.016 C 
ATOM     20  C   UNL     1       1.259  -6.796   1.272  0.00  0.00    -0.004 C 
BRANCH  19  22
ATOM     21  N   UNL     1       1.786  -3.956  -0.233  0.00  0.00    -0.314 N 
ATOM     22  C   UNL     1       2.411  -4.669   0.724  0.00  0.00    +0.199 C 
ATOM     23  O   UNL     1       2.910  -4.104   1.674  0.00  0.00    -0.278 OA
ATOM     24  H   UNL     1       1.387  -4.409  -0.992  0.00  0.00    +0.149 HD
BRANCH  21  29
ATOM     25  C   UNL     1       0.183   1.541  -0.433  0.00  0.00    +0.007 C 
ATOM     26  C   UNL     1       0.264   0.018  -0.544  0.00  0.00    -0.014 C 
ATOM     27  C   UNL     1       1.465  -0.367  -1.410  0.00  0.00    +0.005 C 
ATOM     28  C   UNL     1       1.546  -1.891  -1.522  0.00  0.00    +0.022 C 
ATOM     29  C   UNL     1       1.708  -2.497  -0.126  0.00  0.00    +0.073 C 
ATOM     30  C   UNL     1       0.507  -2.112   0.740  0.00  0.00    +0.022 C 
ATOM     31  C   UNL     1       0.427  -0.588   0.852  0.00  0.00    +0.005 C 
ENDBRANCH  21  29
ENDBRANCH  19  22
ENDBRANCH   1  19
TORSDOF 4
