REMARK  Name = ZINC66398317
REMARK  7 active torsions:
REMARK  status: ('A' for Active; 'I' for Inactive)
REMARK    1  A    between atoms: C_1  and  C_2
REMARK    2  A    between atoms: C_7  and  C_8
REMARK    3  A    between atoms: C_8  and  C_10
REMARK    4  A    between atoms: C_8  and  N_12
REMARK    5  A    between atoms: C_13  and  C_15
REMARK    6  A    between atoms: N_17  and  N_18
REMARK    7  A    between atoms: N_18  and  C_19
REMARK                            x       y       z     vdW  Elec       q    Type
REMARK                         _______ _______ _______ _____ _____    ______ ____
ROOT
ATOM      1  N   UNL     1      -0.537  -0.808   3.554  0.00  0.00    -0.288 N 
ATOM      2  C   UNL     1      -1.190  -0.255   4.595  0.00  0.00    +0.302 C 
ATOM      3  O   UNL     1      -1.312   0.951   4.663  0.00  0.00    -0.265 OA
ATOM      4  H   UNL     1      -0.440  -1.772   3.500  0.00  0.00    +0.151 HD
ENDROOT
BRANCH   2   5
ATOM      5  C   UNL     1      -1.763  -1.125   5.666  0.00  0.00    +0.315 C 
ATOM      6  O   UNL     1      -1.641  -2.331   5.598  0.00  0.00    -0.264 OA
ATOM      7  N   UNL     1      -2.416  -0.572   6.707  0.00  0.00    -0.229 N 
ATOM      8  H   UNL     1      -2.514   0.392   6.761  0.00  0.00    +0.173 HD
BRANCH   7   9
ATOM      9  N   UNL     1      -2.954  -1.388   7.711  0.00  0.00    -0.263 N 
ATOM     10  H   UNL     1      -2.856  -2.351   7.657  0.00  0.00    +0.170 HD
BRANCH   9  11
ATOM     11  C   UNL     1      -3.631  -0.813   8.791  0.00  0.00    +0.063 A 
ATOM     12  C   UNL     1      -3.776   0.566   8.867  0.00  0.00    +0.027 A 
ATOM     13  C   UNL     1      -4.446   1.131   9.935  0.00  0.00    +0.022 A 
ATOM     14  C   UNL     1      -4.971   0.324  10.929  0.00  0.00    +0.042 A 
ATOM     15  C   UNL     1      -4.828  -1.050  10.857  0.00  0.00    +0.042 A 
ATOM     16  C   UNL     1      -4.165  -1.621   9.787  0.00  0.00    +0.065 A 
ATOM     17 CL   UNL     1      -3.993  -3.346   9.693  0.00  0.00    -0.082 Cl
ATOM     18 CL   UNL     1      -5.811   1.038  12.270  0.00  0.00    -0.083 Cl
ENDBRANCH   9  11
ENDBRANCH   7   9
ENDBRANCH   2   5
BRANCH   1  19
ATOM     19  C   UNL     1       0.025   0.045   2.504  0.00  0.00    +0.207 C 
BRANCH  19  26
ATOM     20  C   UNL     1      -0.096   1.486   0.003  0.00  0.00    +0.044 C 
ATOM     21  C   UNL     1      -0.017  -0.019   0.003  0.00  0.00    -0.045 A 
ATOM     22  C   UNL     1       0.003  -0.710  -1.195  0.00  0.00    +0.004 A 
ATOM     23  C   UNL     1       0.076  -2.090  -1.195  0.00  0.00    +0.000 A 
ATOM     24  C   UNL     1       0.129  -2.780   0.002  0.00  0.00    +0.000 A 
ATOM     25  C   UNL     1       0.110  -2.089   1.199  0.00  0.00    +0.007 A 
ATOM     26  C   UNL     1       0.041  -0.709   1.199  0.00  0.00    -0.010 A 
ENDBRANCH  19  26
BRANCH  19  27
ATOM     27  C   UNL     1       1.400   0.428   2.867  0.00  0.00    +0.090 C 
ATOM     28  N   UNL     1       2.460   0.723   3.147  0.00  0.00    -0.194 NA
ENDBRANCH  19  27
ENDBRANCH   1  19
TORSDOF 6
