REMARK  Name = ZINC05949277
REMARK  4 active torsions:
REMARK  status: ('A' for Active; 'I' for Inactive)
REMARK    1  A    between atoms: N_9  and  C_10
REMARK    2  A    between atoms: C_10  and  C_12
REMARK    3  A    between atoms: C_10  and  N_17
REMARK    4  A    between atoms: C_18  and  C_19
REMARK                            x       y       z     vdW  Elec       q    Type
REMARK                         _______ _______ _______ _____ _____    ______ ____
ROOT
ATOM      1  C   UNL     1       3.574   3.909  -0.011  0.00  0.00    +0.261 C 
ENDROOT
BRANCH   1  10
ATOM      2  C   UNL     1      -1.228   1.748   0.017  0.00  0.00    +0.002 A 
ATOM      3  C   UNL     1      -0.013   1.076   0.008  0.00  0.00    +0.002 A 
ATOM      4  C   UNL     1       1.165   1.769   0.000  0.00  0.00    +0.030 A 
ATOM      5  C   UNL     1       1.149   3.160   0.008  0.00  0.00    +0.092 A 
ATOM      6  C   UNL     1      -0.078   3.846   0.022  0.00  0.00    +0.113 A 
ATOM      7  C   UNL     1      -1.272   3.111   0.030  0.00  0.00    +0.032 A 
ATOM      8  N   UNL     1       0.191   5.167   0.027  0.00  0.00    -0.129 NA
ATOM      9  N   UNL     1       1.463   5.363   0.016  0.00  0.00    -0.062 NA
ATOM     10  N   UNL     1       2.126   4.127   0.003  0.00  0.00    -0.215 N 
ENDBRANCH   1  10
BRANCH   1  11
ATOM     11  C   UNL     1       4.139   4.191   1.357  0.00  0.00    +0.036 A 
ATOM     12  C   UNL     1       4.479   3.318   2.337  0.00  0.00    +0.015 A 
ATOM     13  C   UNL     1       4.985   3.809   3.526  0.00  0.00    +0.008 A 
ATOM     14  C   UNL     1       5.125   5.148   3.678  0.00  0.00    +0.045 A 
ATOM     15  S   UNL     1       4.539   5.761   2.107  0.00  0.00    -0.098 S 
ENDBRANCH   1  11
BRANCH   1  16
ATOM     16  N   UNL     1       4.193   4.807  -0.989  0.00  0.00    -0.259 NA
ATOM     17  C   UNL     1       4.864   4.317  -1.987  0.00  0.00    +0.122 C 
BRANCH  17  18
ATOM     18  C   UNL     1       5.483   5.215  -2.965  0.00  0.00    +0.030 A 
ATOM     19  C   UNL     1       6.237   4.902  -4.085  0.00  0.00    +0.017 A 
ATOM     20  C   UNL     1       6.700   5.951  -4.841  0.00  0.00    +0.008 A 
ATOM     21  C   UNL     1       6.412   7.222  -4.458  0.00  0.00    +0.046 A 
ATOM     22  S   UNL     1       5.470   6.998  -3.020  0.00  0.00    -0.096 S 
ENDBRANCH  17  18
ENDBRANCH   1  16
TORSDOF 4
