REMARK  Name = ZINC03058088
REMARK  5 active torsions:
REMARK  status: ('A' for Active; 'I' for Inactive)
REMARK    1  A    between atoms: N_7  and  C_21
REMARK    2  A    between atoms: C_11  and  C_12
REMARK    3  A    between atoms: C_21  and  C_22
REMARK    4  A    between atoms: N_24  and  C_25
REMARK    5  A    between atoms: C_25  and  C_26
REMARK                            x       y       z     vdW  Elec       q    Type
REMARK                         _______ _______ _______ _____ _____    ______ ____
ROOT
ATOM      1  C   UNL     1      -0.609  12.946   3.583  0.00  0.00    +0.002 A 
ATOM      2  C   UNL     1      -0.780  14.223   3.080  0.00  0.00    +0.004 A 
ATOM      3  C   UNL     1      -0.252  14.562   1.848  0.00  0.00    +0.048 A 
ATOM      4  C   UNL     1       0.451  13.620   1.115  0.00  0.00    +0.150 A 
ATOM      5  C   UNL     1       0.625  12.333   1.621  0.00  0.00    +0.080 A 
ATOM      6  C   UNL     1       0.091  12.001   2.858  0.00  0.00    +0.027 A 
ATOM      7  N   UNL     1       1.336  11.376   0.884  0.00  0.00    -0.253 N 
ATOM      8  C   UNL     1       2.076  11.785  -0.174  0.00  0.00    +0.287 C 
ATOM      9  O   UNL     1       2.724  10.995  -0.834  0.00  0.00    -0.266 OA
ATOM     10  C   UNL     1       2.064  13.226  -0.498  0.00  0.00    +0.191 C 
ATOM     11  C   UNL     1       3.092  13.808  -1.157  0.00  0.00    +0.063 C 
ATOM     12  O   UNL     1       0.971  13.947  -0.101  0.00  0.00    -0.449 OA
ENDROOT
BRANCH  11  13
ATOM     13  C   UNL     1       3.051  15.246  -1.460  0.00  0.00    +0.032 A 
ATOM     14  C   UNL     1       4.142  16.065  -1.141  0.00  0.00    +0.132 A 
ATOM     15  C   UNL     1       4.094  17.415  -1.431  0.00  0.00    +0.039 A 
ATOM     16  C   UNL     1       2.973  17.958  -2.033  0.00  0.00    +0.004 A 
ATOM     17  C   UNL     1       1.891  17.156  -2.351  0.00  0.00    +0.021 A 
ATOM     18  C   UNL     1       1.924  15.804  -2.075  0.00  0.00    +0.051 A 
ATOM     19 CL   UNL     1       0.567  14.800  -2.481  0.00  0.00    -0.083 Cl
ATOM     20  F   UNL     1       5.237  15.536  -0.553  0.00  0.00    -0.205 F 
ENDBRANCH  11  13
BRANCH   7  21
ATOM     21  C   UNL     1       1.284   9.960   1.256  0.00  0.00    +0.209 C 
BRANCH  21  22
ATOM     22  C   UNL     1       0.142   9.293   0.533  0.00  0.00    +0.231 C 
ATOM     23  O   UNL     1      -0.559   9.937  -0.217  0.00  0.00    -0.274 OA
ATOM     24  N   UNL     1      -0.099   7.980   0.722  0.00  0.00    -0.310 N 
ATOM     25  H   UNL     1       0.537   7.396   1.403  0.00  0.00    +0.149 HD
BRANCH  24  26
ATOM     26  C   UNL     1      -1.209   7.332   0.019  0.00  0.00    +0.152 C 
BRANCH  26  27
ATOM     27  C   UNL     1      -1.263   5.852   0.407  0.00  0.00    +0.228 C 
ATOM     28  C   UNL     1      -2.424   5.167  -0.326  0.00  0.00    +0.275 C 
ATOM     29  O   UNL     1      -2.437   3.785   0.048  0.00  0.00    -0.485 OA
ATOM     30  C   UNL     1      -1.241   3.136   0.030  0.00  0.00    +0.162 A 
ATOM     31  C   UNL     1      -1.219   1.749   0.017  0.00  0.00    +0.049 A 
ATOM     32  C   UNL     1      -0.013   1.076   0.008  0.00  0.00    +0.004 A 
ATOM     33  C   UNL     1       1.176   1.782   0.000  0.00  0.00    +0.004 A 
ATOM     34  C   UNL     1       1.161   3.164   0.007  0.00  0.00    +0.049 A 
ATOM     35  C   UNL     1      -0.046   3.846   0.020  0.00  0.00    +0.163 A 
ATOM     36  O   UNL     1      -0.045   5.207   0.019  0.00  0.00    -0.480 OA
ENDBRANCH  26  27
ENDBRANCH  24  26
ENDBRANCH  21  22
ENDBRANCH   7  21
TORSDOF 5
