REMARK  Name = ZINC08826029
REMARK  12 active torsions:
REMARK  status: ('A' for Active; 'I' for Inactive)
REMARK    1  A    between atoms: C_1  and  O_2
REMARK    2  A    between atoms: O_2  and  C_3
REMARK    3  A    between atoms: C_6  and  C_9
REMARK    4  A    between atoms: C_14  and  N_18
REMARK    5  A    between atoms: N_18  and  C_19
REMARK    6  A    between atoms: C_19  and  C_20
REMARK    7  A    between atoms: C_20  and  C_21
REMARK    8  A    between atoms: C_21  and  C_22
REMARK    9  A    between atoms: C_22  and  C_23
REMARK   10  A    between atoms: C_23  and  C_24
REMARK   11  A    between atoms: C_25  and  C_31
REMARK   12  A    between atoms: C_26  and  N_30
REMARK                            x       y       z     vdW  Elec       q    Type
REMARK                         _______ _______ _______ _____ _____    ______ ____
ROOT
ATOM      1  N   UNL     1       8.141   1.100  -4.340  0.00  0.00    -0.328 N 
ATOM      2  H   UNL     1       7.515   0.904  -5.054  0.00  0.00    +0.147 HD
ENDROOT
BRANCH   1   8
ATOM      3  C   UNL     1       9.227   0.921  -7.186  0.00  0.00    +0.002 A 
ATOM      4  C   UNL     1       9.912   0.863  -8.352  0.00  0.00    +0.056 A 
ATOM      5  S   UNL     1      11.614   1.012  -7.843  0.00  0.00    -0.076 S 
ATOM      6  C   UNL     1      11.373   1.147  -6.092  0.00  0.00    +0.114 A 
ATOM      7  C   UNL     1       9.973   1.068  -5.941  0.00  0.00    +0.055 A 
ATOM      8  C   UNL     1       9.497   1.160  -4.605  0.00  0.00    +0.131 A 
ATOM      9  N   UNL     1      10.368   1.299  -3.618  0.00  0.00    -0.220 NA
ATOM     10  C   UNL     1      11.669   1.361  -3.832  0.00  0.00    +0.224 A 
ATOM     11  N   UNL     1      12.170   1.286  -5.050  0.00  0.00    -0.228 NA
BRANCH   3  15
ATOM     12  C   UNL     1       4.982   0.665  -7.154  0.00  0.00    +0.120 A 
ATOM     13  C   UNL     1       5.612   1.790  -6.641  0.00  0.00    +0.046 A 
ATOM     14  C   UNL     1       6.989   1.877  -6.650  0.00  0.00    +0.012 A 
ATOM     15  C   UNL     1       7.748   0.832  -7.175  0.00  0.00    -0.016 A 
ATOM     16  C   UNL     1       7.112  -0.296  -7.694  0.00  0.00    +0.012 A 
ATOM     17  C   UNL     1       5.735  -0.378  -7.677  0.00  0.00    +0.046 A 
BRANCH  12  19
ATOM     18  C   UNL     1       3.043  -0.604  -7.687  0.00  0.00    +0.277 C 
ATOM     19  O   UNL     1       3.626   0.583  -7.144  0.00  0.00    -0.495 OA
ENDBRANCH  12  19
ENDBRANCH   3  15
ENDBRANCH   1   8
BRANCH   1  20
ATOM     20  C   UNL     1       7.650   1.330  -2.979  0.00  0.00    +0.103 C 
BRANCH  20  21
ATOM     21  C   UNL     1       6.125   1.206  -2.959  0.00  0.00    +0.019 C 
BRANCH  21  22
ATOM     22  C   UNL     1       5.613   1.447  -1.537  0.00  0.00    +0.002 C 
BRANCH  22  23
ATOM     23  C   UNL     1       4.088   1.324  -1.517  0.00  0.00    +0.006 C 
BRANCH  23  24
ATOM     24  C   UNL     1       3.575   1.565  -0.096  0.00  0.00    +0.058 C 
BRANCH  24  25
ATOM     25  C   UNL     1       2.073   1.442  -0.076  0.00  0.00    +0.082 A 
ATOM     26  C   UNL     1       1.341   0.256   0.158  0.00  0.00    +0.113 A 
ATOM     27  C   UNL     1      -0.009   0.590   0.087  0.00  0.00    +0.129 A 
ATOM     28  N   UNL     1      -0.078   1.911  -0.177  0.00  0.00    -0.263 N 
ATOM     29  H   UNL     1      -0.918   2.443  -0.286  0.00  0.00    +0.190 HD
ATOM     30  N   UNL     1       1.225   2.413  -0.273  0.00  0.00    -0.176 NA
BRANCH  27  31
ATOM     31  N   UNL     1      -1.077  -0.270   0.255  0.00  0.00    -0.342 N 
ATOM     32  H   UNL     1      -1.985   0.065   0.184  0.00  0.00    +0.144 HD
ATOM     33  H   UNL     1      -0.920  -1.208   0.443  0.00  0.00    +0.144 HD
ENDBRANCH  27  31
BRANCH  26  34
ATOM     34  C   UNL     1       1.884  -1.043   0.419  0.00  0.00    +0.104 C 
ATOM     35  N   UNL     1       2.315  -2.074   0.626  0.00  0.00    -0.191 NA
ENDBRANCH  26  34
ENDBRANCH  24  25
ENDBRANCH  23  24
ENDBRANCH  22  23
ENDBRANCH  21  22
ENDBRANCH  20  21
ENDBRANCH   1  20
TORSDOF 11
