REMARK  Name = ZINC19202188
REMARK  10 active torsions:
REMARK  status: ('A' for Active; 'I' for Inactive)
REMARK    1  A    between atoms: C_1  and  C_2
REMARK    2  A    between atoms: C_2  and  C_3
REMARK    3  A    between atoms: C_3  and  C_4
REMARK    4  A    between atoms: C_4  and  N_5
REMARK    5  A    between atoms: C_6  and  N_30
REMARK    6  A    between atoms: C_7  and  N_14
REMARK    7  A    between atoms: N_14  and  C_15
REMARK    8  A    between atoms: C_16  and  C_18
REMARK    9  A    between atoms: C_19  and  C_29
REMARK   10  A    between atoms: C_21  and  C_23
REMARK                            x       y       z     vdW  Elec       q    Type
REMARK                         _______ _______ _______ _____ _____    ______ ____
ROOT
ATOM      1  N   UNL     1      -0.910   2.382  -1.027  0.00  0.00    -0.280 N 
ATOM      2  C   UNL     1       0.268   3.089  -1.089  0.00  0.00    +0.127 A 
ATOM      3  C   UNL     1       1.100   3.112   0.012  0.00  0.00    +0.140 A 
ATOM      4  C   UNL     1       0.715   2.408   1.168  0.00  0.00    +0.277 A 
ATOM      5  O   UNL     1       1.431   2.410   2.155  0.00  0.00    -0.266 OA
ATOM      6  N   UNL     1      -0.450   1.730   1.177  0.00  0.00    -0.273 N 
ATOM      7  H   UNL     1      -0.759   1.181   2.079  0.00  0.00    +0.173 HD
ATOM      8  C   UNL     1      -1.245   1.715   0.093  0.00  0.00    +0.331 A 
ATOM      9  O   UNL     1      -2.288   1.092   0.127  0.00  0.00    -0.246 OA
ENDROOT
BRANCH   3  10
ATOM     10  N   UNL     1       2.314   3.828  -0.021  0.00  0.00    -0.263 N 
ATOM     11  C   UNL     1       2.300   5.289  -0.130  0.00  0.00    +0.139 C 
ATOM     12  C   UNL     1       3.488   3.169   0.048  0.00  0.00    +0.259 C 
ATOM     13  O   UNL     1       3.500   1.966   0.232  0.00  0.00    -0.269 OA
BRANCH  12  14
ATOM     14  C   UNL     1       4.750   3.902  -0.098  0.00  0.00    +0.097 A 
ATOM     15  C   UNL     1       6.053   3.423  -0.153  0.00  0.00    +0.058 A 
ATOM     16  N   UNL     1       7.016   4.294  -0.289  0.00  0.00    -0.242 NA
ATOM     17  C   UNL     1       6.771   5.594  -0.372  0.00  0.00    +0.127 A 
ATOM     18  S   UNL     1       5.039   5.658  -0.262  0.00  0.00    -0.061 S 
ATOM     19  C   UNL     1       6.345   1.948  -0.060  0.00  0.00    +0.067 C 
BRANCH  17  20
ATOM     20  C   UNL     1       7.730   6.708  -0.526  0.00  0.00    +0.096 A 
ATOM     21  C   UNL     1       9.097   6.440  -0.596  0.00  0.00    +0.030 A 
ATOM     22  C   UNL     1       9.982   7.493  -0.747  0.00  0.00    +0.004 A 
ATOM     23  C   UNL     1       9.473   8.782  -0.811  0.00  0.00    +0.020 A 
ATOM     24  C   UNL     1       8.105   8.977  -0.729  0.00  0.00    +0.111 A 
ATOM     25  N   UNL     1       7.284   7.957  -0.591  0.00  0.00    -0.253 NA
ENDBRANCH  17  20
ENDBRANCH  12  14
ENDBRANCH   3  10
BRANCH   2  26
ATOM     26  N   UNL     1       0.613   3.766  -2.235  0.00  0.00    -0.343 N 
ATOM     27  H   UNL     1       1.556   4.330  -2.278  0.00  0.00    +0.144 HD
ATOM     28  H   UNL     1      -0.055   3.744  -3.108  0.00  0.00    +0.144 HD
ENDBRANCH   2  26
BRANCH   1  29
ATOM     29  C   UNL     1      -1.802   2.349  -2.188  0.00  0.00    +0.128 C 
BRANCH  29  30
ATOM     30  C   UNL     1      -1.433   1.162  -3.081  0.00  0.00    +0.021 C 
BRANCH  30  32
ATOM     31  C   UNL     1      -1.995  -0.058  -5.187  0.00  0.00    +0.004 C 
ATOM     32  C   UNL     1      -2.365   1.128  -4.294  0.00  0.00    -0.002 C 
ENDBRANCH  30  32
ENDBRANCH  29  30
ENDBRANCH   1  29
TORSDOF 7
