REMARK  Name = ZINC05361456
REMARK  7 active torsions:
REMARK  status: ('A' for Active; 'I' for Inactive)
REMARK    1  A    between atoms: C_1  and  C_2
REMARK    2  A    between atoms: C_5  and  N_8
REMARK    3  A    between atoms: C_11  and  C_14
REMARK    4  A    between atoms: C_14  and  S_15
REMARK    5  A    between atoms: S_15  and  C_16
REMARK    6  A    between atoms: C_19  and  C_22
REMARK    7  A    between atoms: N_20  and  N_21
REMARK                            x       y       z     vdW  Elec       q    Type
REMARK                         _______ _______ _______ _____ _____    ______ ____
ROOT
ATOM      1  S   UNL     1       3.291   7.236  -0.377  0.00  0.00    -0.078 S 
ENDROOT
BRANCH   1   2
ATOM      2  C   UNL     1       2.616   5.617  -0.209  0.00  0.00    +0.209 A 
ATOM      3  N   UNL     1       1.359   5.317   0.029  0.00  0.00    -0.121 NA
ATOM      4  N   UNL     1       1.213   4.042   0.090  0.00  0.00    -0.127 NA
ATOM      5  C   UNL     1       2.368   3.449  -0.104  0.00  0.00    +0.182 A 
ATOM      6  N   UNL     1       3.303   4.440  -0.296  0.00  0.00    -0.224 N 
BRANCH   5   7
ATOM      7  C   UNL     1       2.618   1.992  -0.110  0.00  0.00    +0.023 A 
ATOM      8  C   UNL     1       1.551   1.098  -0.208  0.00  0.00    +0.012 A 
ATOM      9  C   UNL     1       1.790  -0.261  -0.213  0.00  0.00    +0.003 A 
ATOM     10  C   UNL     1       3.084  -0.739  -0.121  0.00  0.00    +0.038 A 
ATOM     11  C   UNL     1       4.149   0.142  -0.024  0.00  0.00    +0.124 A 
ATOM     12  C   UNL     1       3.922   1.505  -0.017  0.00  0.00    +0.050 A 
ATOM     13  F   UNL     1       5.411  -0.333   0.066  0.00  0.00    -0.205 F 
ENDBRANCH   5   7
BRANCH   6  14
ATOM     14  N   UNL     1       4.640   4.280  -0.528  0.00  0.00    -0.295 N 
ATOM     15  H   UNL     1       4.830   4.212  -1.517  0.00  0.00    +0.163 HD
ATOM     16  H   UNL     1       5.172   5.027  -0.108  0.00  0.00    +0.163 HD
ENDBRANCH   6  14
ENDBRANCH   1   2
BRANCH   1  17
ATOM     17  C   UNL     1       1.796   8.226  -0.131  0.00  0.00    +0.133 C 
BRANCH  17  21
ATOM     18  N   UNL     1       2.392  12.407  -2.619  0.00  0.00    -0.294 N 
ATOM     19  C   UNL     1       2.390  11.596  -1.493  0.00  0.00    +0.163 A 
ATOM     20  N   UNL     1       2.091  10.315  -1.394  0.00  0.00    -0.229 NA
ATOM     21  C   UNL     1       2.140   9.690  -0.233  0.00  0.00    +0.061 A 
ATOM     22  C   UNL     1       2.503  10.395   0.865  0.00  0.00    +0.072 A 
ATOM     23  S   UNL     1       2.781  12.008   0.148  0.00  0.00    -0.060 S 
ATOM     24  H   UNL     1       2.063  12.063  -3.464  0.00  0.00    +0.154 HD
BRANCH  18  29
ATOM     25  C   UNL     1       4.319  17.730  -2.279  0.00  0.00    +0.044 C 
ATOM     26  C   UNL     1       3.807  16.315  -2.369  0.00  0.00    -0.050 A 
ATOM     27  C   UNL     1       4.376  15.325  -1.590  0.00  0.00    +0.005 A 
ATOM     28  C   UNL     1       3.909  14.027  -1.670  0.00  0.00    +0.023 A 
ATOM     29  C   UNL     1       2.867  13.718  -2.535  0.00  0.00    +0.033 A 
ATOM     30  C   UNL     1       2.301  14.715  -3.320  0.00  0.00    +0.023 A 
ATOM     31  C   UNL     1       2.769  16.011  -3.231  0.00  0.00    +0.005 A 
ENDBRANCH  18  29
ENDBRANCH  17  21
ENDBRANCH   1  17
TORSDOF 6
