REMARK  Name = ZINC39973117
REMARK  6 active torsions:
REMARK  status: ('A' for Active; 'I' for Inactive)
REMARK    1  A    between atoms: C_1  and  C_2
REMARK    2  A    between atoms: C_2  and  N_3
REMARK    3  A    between atoms: C_4  and  C_24
REMARK    4  A    between atoms: C_8  and  S_10
REMARK    5  A    between atoms: S_10  and  C_11
REMARK    6  A    between atoms: C_11  and  C_12
REMARK                            x       y       z     vdW  Elec       q    Type
REMARK                         _______ _______ _______ _____ _____    ______ ____
ROOT
ATOM      1  N   UNL     1       0.713  -0.491   1.192  0.00  0.00    +0.412 N 
ATOM      2  C   UNL     1       0.672  -1.967   1.239  0.00  0.00    +0.086 C 
ATOM      3  N   UNL     1       2.078  -2.429   1.190  0.00  0.00    -0.264 NA
ATOM      4  N   UNL     1       2.858  -1.287   1.691  0.00  0.00    -0.261 NA
ATOM      5  C   UNL     1       2.144  -0.116   1.119  0.00  0.00    +0.077 C 
ATOM      6  H   UNL     1       2.212  -3.242   1.772  0.00  0.00    +0.139 HD
ATOM      7  H   UNL     1       2.849  -1.258   2.700  0.00  0.00    +0.140 HD
ATOM      8  H   UNL     1       0.296  -0.105   2.026  0.00  0.00    -0.075 HD
ENDROOT
BRANCH   2   9
ATOM      9  C   UNL     1       0.021  -2.426   2.518  0.00  0.00    +0.108 A 
ATOM     10  C   UNL     1       0.305  -3.568   3.157  0.00  0.00    +0.053 A 
ATOM     11  C   UNL     1      -0.560  -3.601   4.343  0.00  0.00    +0.021 A 
ATOM     12  C   UNL     1      -0.743  -4.502   5.391  0.00  0.00    +0.027 A 
ATOM     13  C   UNL     1      -1.665  -4.222   6.375  0.00  0.00    +0.019 A 
ATOM     14  C   UNL     1      -2.409  -3.051   6.324  0.00  0.00    +0.019 A 
ATOM     15  C   UNL     1      -2.237  -2.153   5.293  0.00  0.00    +0.048 A 
ATOM     16  C   UNL     1      -1.312  -2.416   4.291  0.00  0.00    +0.135 A 
ATOM     17  O   UNL     1      -0.926  -1.745   3.187  0.00  0.00    -0.460 OA
ATOM     18 BR   UNL     1      -1.920  -5.438   7.801  0.00  0.00    -0.050 Br
ENDBRANCH   2   9
BRANCH   1  20
ATOM     19  C   UNL     1      -0.019   1.526   0.010  0.00  0.00    -0.017 C 
ATOM     20  C   UNL     1       0.002  -0.004   0.002  0.00  0.00    -0.076 C 
ENDBRANCH   1  20
BRANCH   5  21
ATOM     21  S   UNL     1       2.462   1.369   2.111  0.00  0.00    -0.152 S 
BRANCH  21  22
ATOM     22  C   UNL     1       1.981   0.886   3.792  0.00  0.00    +0.143 C 
BRANCH  22  23
ATOM     23  C   UNL     1       2.199   2.045   4.730  0.00  0.00    +0.120 A 
ATOM     24  N   UNL     1       1.899   1.876   6.044  0.00  0.00    -0.310 N 
ATOM     25  H   UNL     1       1.555   1.023   6.352  0.00  0.00    +0.170 HD
ATOM     26  C   UNL     1       2.078   2.886   6.927  0.00  0.00    +0.259 A 
ATOM     27  O   UNL     1       1.814   2.747   8.107  0.00  0.00    -0.267 OA
ATOM     28  C   UNL     1       2.603   4.156   6.405  0.00  0.00    +0.065 A 
ATOM     29  C   UNL     1       2.822   5.258   7.230  0.00  0.00    +0.015 A 
ATOM     30  C   UNL     1       3.315   6.424   6.688  0.00  0.00    +0.001 A 
ATOM     31  C   UNL     1       3.593   6.510   5.330  0.00  0.00    +0.002 A 
ATOM     32  C   UNL     1       3.383   5.433   4.498  0.00  0.00    +0.028 A 
ATOM     33  C   UNL     1       2.885   4.239   5.024  0.00  0.00    +0.078 A 
ATOM     34  N   UNL     1       2.668   3.153   4.241  0.00  0.00    -0.233 NA
ENDBRANCH  22  23
ENDBRANCH  21  22
ENDBRANCH   5  21
TORSDOF 5
