REMARK  Name = ZINC15319053
REMARK  4 active torsions:
REMARK  status: ('A' for Active; 'I' for Inactive)
REMARK    1  A    between atoms: C_6  and  C_7
REMARK    2  A    between atoms: C_10  and  C_36
REMARK    3  A    between atoms: C_14  and  C_17
REMARK    4  A    between atoms: N_22  and  C_25
REMARK                            x       y       z     vdW  Elec       q    Type
REMARK                         _______ _______ _______ _____ _____    ______ ____
ROOT
ATOM      1  C   UNL     1      -0.146  -2.661   1.137  0.00  0.00    +0.104 C 
ATOM      2  C   UNL     1      -1.044  -3.188   2.262  0.00  0.00    +0.063 C 
ATOM      3  C   UNL     1      -2.514  -2.910   1.927  0.00  0.00    +0.215 C 
ATOM      4  N   UNL     1      -2.784  -3.370   0.561  0.00  0.00    -0.238 N 
ATOM      5  C   UNL     1      -1.817  -3.588  -0.362  0.00  0.00    +0.130 A 
ATOM      6  C   UNL     1      -2.436  -4.013  -1.523  0.00  0.00    +0.096 A 
ATOM      7  C   UNL     1      -3.828  -4.040  -1.257  0.00  0.00    +0.149 A 
ATOM      8  N   UNL     1      -4.016  -3.657  -0.023  0.00  0.00    -0.177 NA
ATOM      9  N   UNL     1      -0.471  -3.389  -0.106  0.00  0.00    -0.322 N 
ATOM     10  H   UNL     1       0.220  -3.711  -0.706  0.00  0.00    +0.148 HD
ENDROOT
BRANCH   6  11
ATOM     11  C   UNL     1      -1.779  -4.368  -2.786  0.00  0.00    +0.251 C 
ATOM     12  O   UNL     1      -0.936  -3.630  -3.262  0.00  0.00    -0.270 OA
ATOM     13  N   UNL     1      -2.108  -5.511  -3.420  0.00  0.00    -0.301 N 
ATOM     14  C   UNL     1      -3.193  -6.368  -2.917  0.00  0.00    +0.089 C 
ATOM     15  C   UNL     1      -2.671  -7.805  -2.819  0.00  0.00    -0.059 C 
ATOM     16  N   UNL     1      -2.126  -8.217  -4.118  0.00  0.00    +0.385 N 
ATOM     17  C   UNL     1      -0.957  -7.394  -4.454  0.00  0.00    -0.059 C 
ATOM     18  C   UNL     1      -1.398  -5.934  -4.636  0.00  0.00    +0.089 C 
ATOM     19  H   UNL     1      -2.832  -8.102  -4.830  0.00  0.00    -0.081 HD
BRANCH  16  20
ATOM     20  C   UNL     1      -1.726  -9.629  -4.054  0.00  0.00    -0.065 C 
ATOM     21  C   UNL     1      -0.659  -9.808  -2.972  0.00  0.00    -0.009 C 
ATOM     22  C   UNL     1      -0.243 -11.279  -2.905  0.00  0.00    -0.012 C 
ATOM     23  C   UNL     1       0.326 -11.710  -4.258  0.00  0.00    +0.007 C 
ATOM     24  C   UNL     1      -0.741 -11.531  -5.340  0.00  0.00    -0.012 C 
ATOM     25  C   UNL     1      -1.157 -10.060  -5.407  0.00  0.00    -0.009 C 
ATOM     26  C   UNL     1      -1.960 -12.391  -5.002  0.00  0.00    +0.007 C 
ATOM     27  C   UNL     1      -2.529 -11.960  -3.649  0.00  0.00    -0.012 C 
ATOM     28  C   UNL     1      -1.462 -12.139  -2.567  0.00  0.00    +0.007 C 
ATOM     29  C   UNL     1      -2.945 -10.489  -3.716  0.00  0.00    -0.009 C 
ENDBRANCH  16  20
ENDBRANCH   6  11
BRANCH   1  35
ATOM     30  C   UNL     1       2.059  -1.847   1.994  0.00  0.00    +0.008 A 
ATOM     31  C   UNL     1       3.386  -2.054   2.322  0.00  0.00    +0.038 A 
ATOM     32  C   UNL     1       3.954  -3.305   2.150  0.00  0.00    +0.123 A 
ATOM     33  C   UNL     1       3.192  -4.347   1.649  0.00  0.00    +0.038 A 
ATOM     34  C   UNL     1       1.866  -4.138   1.322  0.00  0.00    +0.008 A 
ATOM     35  C   UNL     1       1.300  -2.888   1.494  0.00  0.00    -0.027 A 
ATOM     36  F   UNL     1       5.250  -3.509   2.470  0.00  0.00    -0.205 F 
ENDBRANCH   1  35
BRANCH   3  37
ATOM     37  C   UNL     1      -3.415  -3.660   2.910  0.00  0.00    +0.412 C 
ATOM     38  F   UNL     1      -3.145  -3.228   4.213  0.00  0.00    -0.168 F 
ATOM     39  F   UNL     1      -4.755  -3.405   2.603  0.00  0.00    -0.168 F 
ATOM     40  F   UNL     1      -3.167  -5.034   2.814  0.00  0.00    -0.168 F 
ENDBRANCH   3  37
TORSDOF 4
