REMARK  Name = ZINC58183514
REMARK  8 active torsions:
REMARK  status: ('A' for Active; 'I' for Inactive)
REMARK    1  A    between atoms: C_1  and  C_2
REMARK    2  A    between atoms: C_2  and  N_3
REMARK    3  A    between atoms: C_7  and  C_9
REMARK    4  A    between atoms: C_9  and  N_10
REMARK    5  A    between atoms: N_10  and  C_11
REMARK    6  A    between atoms: C_11  and  C_12
REMARK    7  A    between atoms: C_15  and  O_18
REMARK    8  A    between atoms: C_25  and  C_27
REMARK                            x       y       z     vdW  Elec       q    Type
REMARK                         _______ _______ _______ _____ _____    ______ ____
ROOT
ATOM      1  N   UNL     1      -1.518  -1.834   2.562  0.00  0.00    -0.283 N 
ATOM      2  C   UNL     1      -0.485  -2.461   3.157  0.00  0.00    +0.308 C 
ATOM      3  O   UNL     1       0.026  -1.982   4.151  0.00  0.00    -0.252 OA
ATOM      4  N   UNL     1      -0.017  -3.619   2.651  0.00  0.00    -0.247 N 
ATOM      5  C   UNL     1       1.050  -4.266   3.266  0.00  0.00    +0.189 A 
ATOM      6  N   UNL     1       1.727  -3.915   4.342  0.00  0.00    -0.126 NA
ATOM      7  N   UNL     1       2.682  -4.613   4.787  0.00  0.00    -0.144 NA
ATOM      8  C   UNL     1       3.012  -5.724   4.158  0.00  0.00    +0.107 A 
ATOM      9  S   UNL     1       1.810  -5.708   2.835  0.00  0.00    -0.035 S 
ATOM     10  H   UNL     1      -0.424  -4.002   1.859  0.00  0.00    +0.158 HD
ENDROOT
BRANCH   8  11
ATOM     11  C   UNL     1       4.093  -6.726   4.470  0.00  0.00    +0.047 C 
ATOM     12  C   UNL     1       4.837  -6.572   5.798  0.00  0.00    +0.011 C 
ATOM     13  C   UNL     1       5.538  -6.224   4.484  0.00  0.00    +0.011 C 
ENDBRANCH   8  11
BRANCH   1  14
ATOM     14  C   UNL     1      -2.134  -2.412   1.364  0.00  0.00    +0.094 C 
BRANCH  14  19
ATOM     15  N   UNL     1      -1.260  -0.536   0.034  0.00  0.00    +0.382 N 
ATOM     16  C   UNL     1      -1.907  -0.117  -1.227  0.00  0.00    -0.078 C 
ATOM     17  C   UNL     1      -1.809  -1.355  -2.153  0.00  0.00    -0.020 C 
ATOM     18  C   UNL     1      -2.027  -2.516  -1.147  0.00  0.00    -0.016 C 
ATOM     19  C   UNL     1      -1.326  -2.006   0.130  0.00  0.00    -0.051 C 
ATOM     20  H   UNL     1      -1.745  -0.123   0.817  0.00  0.00    -0.081 HD
BRANCH  15  22
ATOM     21  C   UNL     1       0.206   1.425   0.064  0.00  0.00    -0.017 C 
ATOM     22  C   UNL     1       0.144  -0.103   0.037  0.00  0.00    -0.082 C 
ENDBRANCH  15  22
ENDBRANCH  14  19
ENDBRANCH   1  14
BRANCH   1  23
ATOM     23  C   UNL     1      -2.027  -0.575   3.111  0.00  0.00    +0.144 C 
BRANCH  23  24
ATOM     24  C   UNL     1      -3.015  -0.870   4.211  0.00  0.00    -0.030 A 
ATOM     25  C   UNL     1      -4.356  -1.019   3.911  0.00  0.00    +0.009 A 
ATOM     26  C   UNL     1      -5.264  -1.289   4.917  0.00  0.00    +0.046 A 
ATOM     27  C   UNL     1      -4.828  -1.410   6.229  0.00  0.00    +0.117 A 
ATOM     28  C   UNL     1      -3.482  -1.260   6.527  0.00  0.00    +0.046 A 
ATOM     29  C   UNL     1      -2.577  -0.996   5.516  0.00  0.00    +0.009 A 
BRANCH  27  30
ATOM     30  O   UNL     1      -5.719  -1.675   7.220  0.00  0.00    -0.507 OA
ATOM     31  H   UNL     1      -5.854  -2.618   7.386  0.00  0.00    +0.292 HD
ENDBRANCH  27  30
ENDBRANCH  23  24
ENDBRANCH   1  23
TORSDOF 7
