REMARK  Name = ZINC42246429
REMARK  5 active torsions:
REMARK  status: ('A' for Active; 'I' for Inactive)
REMARK    1  A    between atoms: C_1  and  N_2
REMARK    2  A    between atoms: N_6  and  C_9
REMARK    3  A    between atoms: C_9  and  C_10
REMARK    4  A    between atoms: C_10  and  C_12
REMARK    5  A    between atoms: C_10  and  O_22
REMARK                            x       y       z     vdW  Elec       q    Type
REMARK                         _______ _______ _______ _____ _____    ______ ____
ROOT
ATOM      1  C   UNL     1       2.105  -3.545  -1.471  0.00  0.00    +0.162 C 
ENDROOT
BRANCH   1   2
ATOM      2  C   UNL     1       3.025  -4.738  -1.484  0.00  0.00    -0.017 A 
ATOM      3  C   UNL     1       4.386  -4.559  -1.238  0.00  0.00    +0.007 A 
ATOM      4  C   UNL     1       5.244  -5.614  -1.243  0.00  0.00    +0.009 A 
ATOM      5  C   UNL     1       4.755  -6.907  -1.498  0.00  0.00    -0.018 A 
ATOM      6  C   UNL     1       5.610  -8.022  -1.510  0.00  0.00    +0.008 A 
ATOM      7  C   UNL     1       5.101  -9.259  -1.760  0.00  0.00    +0.001 A 
ATOM      8  C   UNL     1       3.741  -9.439  -2.005  0.00  0.00    +0.001 A 
ATOM      9  C   UNL     1       2.882  -8.383  -2.001  0.00  0.00    +0.008 A 
ATOM     10  C   UNL     1       3.372  -7.090  -1.746  0.00  0.00    -0.018 A 
ATOM     11  C   UNL     1       2.515  -5.976  -1.728  0.00  0.00    +0.014 A 
ENDBRANCH   1   2
BRANCH   1  12
ATOM     12  O   UNL     1       2.749  -2.440  -2.106  0.00  0.00    -0.386 OA
ATOM     13  H   UNL     1       3.574  -2.168  -1.681  0.00  0.00    +0.210 HD
ENDBRANCH   1  12
BRANCH   1  14
ATOM     14  C   UNL     1       1.768  -3.177  -0.025  0.00  0.00    +0.154 C 
BRANCH  14  20
ATOM     15  C   UNL     1      -0.018   1.461   0.010  0.00  0.00    +0.134 C 
ATOM     16  N   UNL     1       0.002  -0.004   0.002  0.00  0.00    -0.279 N 
ATOM     17  C   UNL     1      -1.167  -0.900   0.002  0.00  0.00    +0.205 C 
ATOM     18  C   UNL     1      -0.554  -2.286  -0.009  0.00  0.00    +0.240 C 
ATOM     19  O   UNL     1      -1.141  -3.347  -0.013  0.00  0.00    -0.273 OA
ATOM     20  N   UNL     1       0.780  -2.094  -0.014  0.00  0.00    -0.222 N 
ATOM     21  C   UNL     1       1.092  -0.793  -0.013  0.00  0.00    +0.311 C 
ATOM     22  O   UNL     1       2.231  -0.371  -0.022  0.00  0.00    -0.252 OA
ENDBRANCH  14  20
ENDBRANCH   1  14
TORSDOF 4
