REMARK  Name = ZINC39580434
REMARK  7 active torsions:
REMARK  status: ('A' for Active; 'I' for Inactive)
REMARK    1  A    between atoms: C_1  and  C_2
REMARK    2  A    between atoms: C_3  and  O_24
REMARK    3  A    between atoms: C_6  and  C_9
REMARK    4  A    between atoms: C_7  and  O_8
REMARK    5  A    between atoms: C_11  and  O_16
REMARK    6  A    between atoms: C_12  and  C_15
REMARK    7  A    between atoms: O_16  and  C_17
REMARK                            x       y       z     vdW  Elec       q    Type
REMARK                         _______ _______ _______ _____ _____    ______ ____
ROOT
ATOM      1  C   UNL     1       0.040  -2.472   2.256  0.00  0.00    +0.200 C 
ATOM      2  C   UNL     1      -1.308  -2.933   2.783  0.00  0.00    +0.156 C 
ATOM      3  C   UNL     1      -1.200  -4.277   2.801  0.00  0.00    +0.098 C 
ATOM      4  N   UNL     1       0.005  -4.661   2.365  0.00  0.00    -0.179 NA
ATOM      5  N   UNL     1       0.762  -3.738   2.042  0.00  0.00    -0.294 N 
ATOM      6  C   UNL     1      -2.288  -5.217   3.252  0.00  0.00    +0.071 C 
ATOM      7  H   UNL     1       1.668  -3.830   1.707  0.00  0.00    +0.184 HD
ENDROOT
BRANCH   1  13
ATOM      8  C   UNL     1      -0.775   1.813  -0.214  0.00  0.00    +0.051 C 
ATOM      9  C   UNL     1      -0.513   0.330  -0.225  0.00  0.00    +0.033 A 
ATOM     10  C   UNL     1      -0.421  -0.351  -1.429  0.00  0.00    +0.123 A 
ATOM     11  C   UNL     1      -0.179  -1.717  -1.437  0.00  0.00    +0.046 A 
ATOM     12  C   UNL     1      -0.030  -2.400  -0.244  0.00  0.00    +0.013 A 
ATOM     13  C   UNL     1      -0.122  -1.724   0.957  0.00  0.00    +0.026 A 
ATOM     14  C   UNL     1      -0.357  -0.356   0.970  0.00  0.00    +0.129 A 
BRANCH  14  15
ATOM     15  O   UNL     1      -0.440   0.309   2.152  0.00  0.00    -0.506 OA
ATOM     16  H   UNL     1      -1.334   0.347   2.519  0.00  0.00    +0.292 HD
ENDBRANCH  14  15
BRANCH  10  17
ATOM     17  O   UNL     1      -0.568   0.320  -2.602  0.00  0.00    -0.506 OA
ATOM     18  H   UNL     1       0.259   0.668  -2.962  0.00  0.00    +0.292 HD
ENDBRANCH  10  17
ENDBRANCH   1  13
BRANCH   2  19
ATOM     19  O   UNL     1      -2.364  -2.175   3.148  0.00  0.00    -0.456 OA
BRANCH  19  20
ATOM     20  C   UNL     1      -2.233  -1.384   4.245  0.00  0.00    +0.128 A 
ATOM     21  C   UNL     1      -1.082  -1.451   5.016  0.00  0.00    +0.047 A 
ATOM     22  C   UNL     1      -0.951  -0.646   6.131  0.00  0.00    +0.018 A 
ATOM     23  C   UNL     1      -1.967   0.227   6.478  0.00  0.00    +0.014 A 
ATOM     24  C   UNL     1      -3.116   0.295   5.711  0.00  0.00    +0.018 A 
ATOM     25  C   UNL     1      -3.248  -0.504   4.592  0.00  0.00    +0.047 A 
ATOM     26  I   UNL     1      -1.765   1.447   8.170  0.00  0.00    -0.044 I 
ENDBRANCH  19  20
ENDBRANCH   2  19
TORSDOF 5
