REMARK  Name = ZINC14747102
REMARK  9 active torsions:
REMARK  status: ('A' for Active; 'I' for Inactive)
REMARK    1  A    between atoms: C_1  and  N_2
REMARK    2  A    between atoms: C_5  and  C_7
REMARK    3  A    between atoms: N_9  and  C_10
REMARK    4  A    between atoms: N_9  and  C_11
REMARK    5  A    between atoms: C_11  and  C_12
REMARK    6  A    between atoms: C_18  and  N_60
REMARK    7  A    between atoms: C_22  and  C_23
REMARK    8  A    between atoms: C_22  and  N_60
REMARK    9  A    between atoms: C_23  and  O_29
REMARK                            x       y       z     vdW  Elec       q    Type
REMARK                         _______ _______ _______ _____ _____    ______ ____
ROOT
ATOM      1  C   UNL     1      -3.821   2.012   3.252  0.00  0.00    +0.172 C 
ATOM      2  N   UNL     1      -2.509   1.590   2.755  0.00  0.00    -0.270 N 
ATOM      3  C   UNL     1      -2.264   1.144   1.512  0.00  0.00    +0.043 A 
ATOM      4  C   UNL     1      -0.939   0.860   1.443  0.00  0.00    +0.004 A 
ATOM      5  C   UNL     1      -0.412   1.158   2.710  0.00  0.00    +0.151 A 
ATOM      6  N   UNL     1      -1.419   1.593   3.447  0.00  0.00    -0.166 NA
ATOM      7  C   UNL     1      -0.243   0.333   0.218  0.00  0.00    +0.023 C 
ATOM      8  C   UNL     1      -1.156   0.567  -0.993  0.00  0.00    -0.067 C 
ATOM      9  C   UNL     1      -2.564   0.055  -0.679  0.00  0.00    -0.009 C 
ATOM     10  C   UNL     1      -3.223   0.966   0.364  0.00  0.00    +0.054 C 
ENDROOT
BRANCH   5  11
ATOM     11  C   UNL     1       0.995   1.013   3.137  0.00  0.00    +0.267 C 
ATOM     12  O   UNL     1       1.810   0.512   2.386  0.00  0.00    -0.268 OA
ATOM     13  N   UNL     1       1.375   1.435   4.359  0.00  0.00    -0.292 N 
ATOM     14  C   UNL     1       0.383   1.982   5.287  0.00  0.00    +0.133 C 
BRANCH  13  15
ATOM     15  C   UNL     1       2.782   1.348   4.759  0.00  0.00    +0.182 C 
BRANCH  15  16
ATOM     16  C   UNL     1       3.494   2.620   4.375  0.00  0.00    +0.122 A 
ATOM     17  C   UNL     1       3.616   3.716   5.144  0.00  0.00    +0.046 A 
ATOM     18  C   UNL     1       4.352   4.663   4.395  0.00  0.00    +0.041 A 
ATOM     19  C   UNL     1       4.635   4.088   3.213  0.00  0.00    +0.195 A 
ATOM     20  O   UNL     1       4.118   2.849   3.208  0.00  0.00    -0.466 OA
ENDBRANCH  15  16
ENDBRANCH  13  15
ENDBRANCH   5  11
BRANCH   8  21
ATOM     21  N   UNL     1      -0.614  -0.163  -2.155  0.00  0.00    +0.383 N 
ATOM     22  H   UNL     1      -0.945  -1.134  -2.129  0.00  0.00    -0.085 HD
ATOM     23  H   UNL     1       0.412  -0.150  -2.115  0.00  0.00    -0.085 HD
BRANCH  21  24
ATOM     24  C   UNL     1      -1.060   0.470  -3.411  0.00  0.00    -0.047 C 
BRANCH  24  25
ATOM     25  C   UNL     1      -0.484  -0.307  -4.596  0.00  0.00    +0.051 C 
ATOM     26  C   UNL     1       1.037  -0.394  -4.458  0.00  0.00    +0.033 C 
ATOM     27  C   UNL     1       1.613  -1.171  -5.644  0.00  0.00    +0.003 C 
ATOM     28  C   UNL     1       1.259  -0.451  -6.946  0.00  0.00    +0.000 C 
ATOM     29  C   UNL     1      -0.262  -0.364  -7.084  0.00  0.00    +0.003 C 
ATOM     30  C   UNL     1      -0.838   0.413  -5.899  0.00  0.00    +0.033 C 
BRANCH  25  31
ATOM     31  O   UNL     1      -1.037  -1.625  -4.615  0.00  0.00    -0.390 OA
ATOM     32  H   UNL     1      -0.851  -2.141  -3.819  0.00  0.00    +0.210 HD
ENDBRANCH  25  31
ENDBRANCH  24  25
ENDBRANCH  21  24
ENDBRANCH   8  21
TORSDOF 7
