REMARK  Name = ZINC01084506
REMARK  4 active torsions:
REMARK  status: ('A' for Active; 'I' for Inactive)
REMARK    1  A    between atoms: C_7  and  C_12
REMARK    2  A    between atoms: C_12  and  S_13
REMARK    3  A    between atoms: S_13  and  C_14
REMARK    4  A    between atoms: N_24  and  N_25
REMARK                            x       y       z     vdW  Elec       q    Type
REMARK                         _______ _______ _______ _____ _____    ______ ____
ROOT
ATOM      1  C   UNL     1       0.122   0.990  -2.724  0.00  0.00    +0.190 A 
ATOM      2  N   UNL     1       1.162   0.276  -2.370  0.00  0.00    -0.222 NA
ATOM      3  C   UNL     1       1.978  -0.285  -3.285  0.00  0.00    +0.079 A 
ATOM      4  C   UNL     1       3.088  -1.047  -2.908  0.00  0.00    +0.028 A 
ATOM      5  C   UNL     1       3.888  -1.597  -3.869  0.00  0.00    +0.002 A 
ATOM      6  C   UNL     1       3.616  -1.412  -5.219  0.00  0.00    +0.001 A 
ATOM      7  C   UNL     1       2.537  -0.672  -5.619  0.00  0.00    +0.015 A 
ATOM      8  C   UNL     1       1.704  -0.099  -4.659  0.00  0.00    +0.066 A 
ATOM      9  C   UNL     1       0.532   0.706  -5.030  0.00  0.00    +0.279 A 
ATOM     10  O   UNL     1       0.244   0.902  -6.197  0.00  0.00    -0.265 OA
ATOM     11  N   UNL     1      -0.219   1.216  -4.027  0.00  0.00    -0.209 N 
ENDROOT
BRANCH  11  12
ATOM     12  N   UNL     1      -1.322   1.967  -4.319  0.00  0.00    -0.293 N 
ATOM     13  H   UNL     1      -1.450   2.049  -5.316  0.00  0.00    +0.163 HD
ATOM     14  H   UNL     1      -2.146   1.585  -3.879  0.00  0.00    +0.163 HD
ENDBRANCH  11  12
BRANCH   1  15
ATOM     15  S   UNL     1      -0.888   1.685  -1.458  0.00  0.00    -0.081 S 
BRANCH  15  16
ATOM     16  C   UNL     1      -0.013   1.086   0.008  0.00  0.00    +0.113 C 
BRANCH  16  23
ATOM     17  C   UNL     1       0.974   4.785   1.863  0.00  0.00    +0.001 A 
ATOM     18  C   UNL     1       0.311   5.219   3.010  0.00  0.00    +0.001 A 
ATOM     19  C   UNL     1      -0.675   4.470   3.574  0.00  0.00    +0.011 A 
ATOM     20  C   UNL     1      -1.034   3.241   2.994  0.00  0.00    +0.018 A 
ATOM     21  C   UNL     1      -0.356   2.798   1.831  0.00  0.00    -0.011 A 
ATOM     22  C   UNL     1       0.653   3.601   1.273  0.00  0.00    +0.009 A 
ATOM     23  C   UNL     1      -0.718   1.572   1.248  0.00  0.00    -0.029 A 
ATOM     24  C   UNL     1      -1.705   0.822   1.812  0.00  0.00    +0.008 A 
ATOM     25  C   UNL     1      -2.368   1.253   2.958  0.00  0.00    +0.039 A 
ATOM     26  C   UNL     1      -2.048   2.440   3.549  0.00  0.00    +0.131 A 
ATOM     27  F   UNL     1      -2.701   2.843   4.661  0.00  0.00    -0.205 F 
ENDBRANCH  16  23
ENDBRANCH  15  16
ENDBRANCH   1  15
TORSDOF 4
