REMARK  Name = ZINC38650802
REMARK  16 active torsions:
REMARK  status: ('A' for Active; 'I' for Inactive)
REMARK    1  A    between atoms: C_1  and  C_2
REMARK    2  A    between atoms: C_2  and  C_3
REMARK    3  A    between atoms: C_3  and  C_4
REMARK    4  A    between atoms: C_4  and  O_5
REMARK    5  A    between atoms: O_5  and  C_6
REMARK    6  A    between atoms: C_9  and  C_12
REMARK    7  A    between atoms: C_17  and  O_26
REMARK    8  A    between atoms: C_21  and  N_25
REMARK    9  A    between atoms: C_22  and  C_23
REMARK   10  A    between atoms: O_26  and  C_27
REMARK   11  A    between atoms: C_27  and  C_29
REMARK   12  A    between atoms: C_30  and  C_31
REMARK   13  A    between atoms: C_34  and  C_37
REMARK   14  A    between atoms: C_37  and  C_38
REMARK   15  A    between atoms: C_37  and  C_39
REMARK   16  A    between atoms: C_37  and  C_40
REMARK                            x       y       z     vdW  Elec       q    Type
REMARK                         _______ _______ _______ _____ _____    ______ ____
ROOT
ATOM      1  C   UNL     1      -3.360  -8.172   0.018  0.00  0.00    +0.098 C 
ATOM      2  C   UNL     1      -4.126  -8.584   1.247  0.00  0.00    +0.008 A 
ATOM      3  C   UNL     1      -3.459  -8.722   2.451  0.00  0.00    +0.012 A 
ATOM      4  C   UNL     1      -4.145  -9.099   3.588  0.00  0.00    +0.047 A 
ATOM      5  C   UNL     1      -5.510  -9.342   3.526  0.00  0.00    +0.135 A 
ATOM      6  C   UNL     1      -6.182  -9.204   2.322  0.00  0.00    +0.093 A 
ATOM      7  C   UNL     1      -5.489  -8.825   1.179  0.00  0.00    +0.138 A 
ATOM      8  O   UNL     1      -6.161  -8.695   0.008  0.00  0.00    -0.441 OA
ATOM      9  C   UNL     1      -5.489  -8.715  -1.155  0.00  0.00    +0.199 C 
ATOM     10  C   UNL     1      -4.161  -8.475  -1.216  0.00  0.00    +0.098 C 
ENDROOT
BRANCH   1  14
ATOM     11  C   UNL     1      -2.554  -3.979   0.191  0.00  0.00    +0.121 A 
ATOM     12  C   UNL     1      -1.506  -4.886   0.135  0.00  0.00    +0.046 A 
ATOM     13  C   UNL     1      -1.769  -6.241   0.080  0.00  0.00    +0.008 A 
ATOM     14  C   UNL     1      -3.075  -6.694   0.079  0.00  0.00    -0.034 A 
ATOM     15  C   UNL     1      -4.122  -5.792   0.134  0.00  0.00    +0.008 A 
ATOM     16  C   UNL     1      -3.864  -4.436   0.196  0.00  0.00    +0.046 A 
BRANCH  11  17
ATOM     17  O   UNL     1      -2.298  -2.646   0.246  0.00  0.00    -0.492 OA
BRANCH  17  18
ATOM     18  C   UNL     1      -0.926  -2.248   0.237  0.00  0.00    +0.229 C 
BRANCH  18  19
ATOM     19  C   UNL     1      -0.837  -0.722   0.304  0.00  0.00    +0.041 C 
BRANCH  19  21
ATOM     20  C   UNL     1       0.722   1.230   0.361  0.00  0.00    +0.004 C 
ATOM     21  C   UNL     1       0.633  -0.296   0.294  0.00  0.00    -0.000 C 
ENDBRANCH  19  21
ENDBRANCH  18  19
ENDBRANCH  17  18
ENDBRANCH  11  17
ENDBRANCH   1  14
BRANCH   9  22
ATOM     22  N   UNL     1      -6.173  -8.987  -2.314  0.00  0.00    -0.328 N 
ATOM     23  H   UNL     1      -7.127  -9.161  -2.285  0.00  0.00    +0.145 HD
ATOM     24  H   UNL     1      -5.702  -9.005  -3.162  0.00  0.00    +0.145 HD
ENDBRANCH   9  22
BRANCH  10  25
ATOM     25  C   UNL     1      -3.505  -8.509  -2.489  0.00  0.00    +0.101 C 
ATOM     26  N   UNL     1      -2.984  -8.537  -3.498  0.00  0.00    -0.191 NA
ENDBRANCH  10  25
BRANCH   5  27
ATOM     27  O   UNL     1      -6.187  -9.714   4.644  0.00  0.00    -0.423 OA
BRANCH  27  28
ATOM     28  C   UNL     1      -6.347  -8.799   5.622  0.00  0.00    +0.337 C 
ATOM     29  O   UNL     1      -5.984  -7.651   5.446  0.00  0.00    -0.245 OA
BRANCH  28  30
ATOM     30  C   UNL     1      -6.957  -9.186   6.893  0.00  0.00    +0.092 C 
ATOM     31  C   UNL     1      -7.116  -8.271   7.871  0.00  0.00    +0.015 C 
BRANCH  31  32
ATOM     32  C   UNL     1      -7.729  -8.660   9.151  0.00  0.00    -0.025 A 
ATOM     33  C   UNL     1      -8.143  -9.980   9.359  0.00  0.00    +0.008 A 
ATOM     34  C   UNL     1      -8.717 -10.338  10.561  0.00  0.00    +0.005 A 
ATOM     35  C   UNL     1      -8.884  -9.394  11.560  0.00  0.00    -0.042 A 
ATOM     36  C   UNL     1      -8.478  -8.086  11.361  0.00  0.00    +0.005 A 
ATOM     37  C   UNL     1      -7.897  -7.714  10.168  0.00  0.00    +0.008 A 
BRANCH  35  38
ATOM     38  C   UNL     1      -9.512  -9.793  12.870  0.00  0.00    -0.013 C 
ATOM     39  C   UNL     1      -8.668 -10.886  13.528  0.00  0.00    +0.015 C 
ATOM     40  C   UNL     1      -9.581  -8.576  13.795  0.00  0.00    +0.015 C 
ATOM     41  C   UNL     1     -10.925 -10.323  12.618  0.00  0.00    +0.015 C 
ENDBRANCH  35  38
ENDBRANCH  31  32
ENDBRANCH  28  30
ENDBRANCH  27  28
ENDBRANCH   5  27
TORSDOF 12
