REMARK  Name = ZINC03984863
REMARK  9 active torsions:
REMARK  status: ('A' for Active; 'I' for Inactive)
REMARK    1  A    between atoms: C_1  and  C_2
REMARK    2  A    between atoms: C_5  and  N_9
REMARK    3  A    between atoms: C_7  and  C_8
REMARK    4  A    between atoms: C_12  and  C_19
REMARK    5  A    between atoms: C_13  and  O_18
REMARK    6  A    between atoms: C_23  and  O_31
REMARK    7  A    between atoms: C_24  and  O_29
REMARK    8  A    between atoms: O_29  and  C_30
REMARK    9  A    between atoms: O_31  and  C_32
REMARK                            x       y       z     vdW  Elec       q    Type
REMARK                         _______ _______ _______ _____ _____    ______ ____
ROOT
ATOM      1  N   UNL     1       0.059  -4.172  -0.021  0.00  0.00    -0.229 N 
ATOM      2  C   UNL     1       0.182  -4.845   1.140  0.00  0.00    +0.267 A 
ATOM      3  O   UNL     1       0.276  -4.240   2.194  0.00  0.00    -0.267 OA
ATOM      4  C   UNL     1       0.200  -6.251   1.127  0.00  0.00    +0.067 A 
ATOM      5  C   UNL     1       0.093  -6.904  -0.065  0.00  0.00    +0.201 A 
ATOM      6  N   UNL     1      -0.030  -6.180  -1.223  0.00  0.00    -0.278 N 
ATOM      7  H   UNL     1      -0.105  -6.654  -2.100  0.00  0.00    +0.173 HD
ATOM      8  C   UNL     1      -0.050  -4.835  -1.187  0.00  0.00    +0.336 A 
ATOM      9  O   UNL     1      -0.165  -4.209  -2.223  0.00  0.00    -0.246 OA
ENDROOT
BRANCH   4  10
ATOM     10  C   UNL     1       0.337  -7.025   2.413  0.00  0.00    +0.001 C 
ATOM     11  C   UNL     1      -0.878  -6.783   3.271  0.00  0.00    -0.050 A 
ATOM     12  C   UNL     1      -2.124  -6.776   2.660  0.00  0.00    +0.052 A 
ATOM     13  C   UNL     1      -3.268  -6.561   3.407  0.00  0.00    +0.162 A 
ATOM     14  C   UNL     1      -3.167  -6.351   4.779  0.00  0.00    +0.162 A 
ATOM     15  C   UNL     1      -1.923  -6.358   5.383  0.00  0.00    +0.053 A 
ATOM     16  C   UNL     1      -0.778  -6.571   4.629  0.00  0.00    -0.044 A 
ATOM     17  C   UNL     1       0.555  -6.559   5.332  0.00  0.00    +0.016 C 
ATOM     18  C   UNL     1       1.619  -7.208   4.446  0.00  0.00    -0.077 C 
ATOM     19  N   UNL     1       1.556  -6.590   3.108  0.00  0.00    +0.387 N 
ATOM     20  H   UNL     1       1.546  -5.568   3.206  0.00  0.00    -0.085 HD
ATOM     21  H   UNL     1       2.378  -6.874   2.563  0.00  0.00    -0.085 HD
BRANCH  14  22
ATOM     22  O   UNL     1      -4.287  -6.141   5.523  0.00  0.00    -0.491 OA
ATOM     23  C   UNL     1      -4.105  -5.933   6.925  0.00  0.00    +0.277 C 
ENDBRANCH  14  22
BRANCH  13  24
ATOM     24  O   UNL     1      -4.487  -6.555   2.803  0.00  0.00    -0.491 OA
ATOM     25  C   UNL     1      -4.512  -6.777   1.392  0.00  0.00    +0.277 C 
ENDBRANCH  13  24
ENDBRANCH   4  10
BRANCH   1  30
ATOM     26  C   UNL     1      -0.020   1.503   0.012  0.00  0.00    +0.044 C 
ATOM     27  C   UNL     1       0.001  -0.004   0.003  0.00  0.00    -0.047 A 
ATOM     28  C   UNL     1      -1.182  -0.711   0.118  0.00  0.00    +0.005 A 
ATOM     29  C   UNL     1      -1.166  -2.092   0.110  0.00  0.00    +0.027 A 
ATOM     30  C   UNL     1       0.040  -2.771  -0.013  0.00  0.00    +0.055 A 
ATOM     31  C   UNL     1       1.225  -2.058  -0.128  0.00  0.00    +0.030 A 
ATOM     32  C   UNL     1       1.202  -0.677  -0.126  0.00  0.00    -0.046 A 
ATOM     33  C   UNL     1       2.488   0.098  -0.257  0.00  0.00    +0.044 C 
ENDBRANCH   1  30
BRANCH   5  34
ATOM     34  O   UNL     1       0.109  -8.254  -0.105  0.00  0.00    -0.493 OA
ATOM     35  H   UNL     1       0.027  -8.622  -0.995  0.00  0.00    +0.294 HD
ENDBRANCH   5  34
TORSDOF 5
