REMARK  Name = ZINC14748506
REMARK  10 active torsions:
REMARK  status: ('A' for Active; 'I' for Inactive)
REMARK    1  A    between atoms: C_1  and  C_2
REMARK    2  A    between atoms: C_7  and  C_8
REMARK    3  A    between atoms: C_10  and  C_32
REMARK    4  A    between atoms: C_17  and  C_19
REMARK    5  A    between atoms: C_21  and  C_25
REMARK    6  A    between atoms: C_28  and  N_31
REMARK    7  A    between atoms: C_32  and  C_33
REMARK    8  A    between atoms: C_33  and  C_34
REMARK    9  A    between atoms: C_34  and  C_35
REMARK   10  A    between atoms: C_34  and  C_36
REMARK                            x       y       z     vdW  Elec       q    Type
REMARK                         _______ _______ _______ _____ _____    ______ ____
ROOT
ATOM      1  C   UNL     1      -0.656   2.343   4.456  0.00  0.00    +0.142 A 
ATOM      2  N   UNL     1       0.340   2.357   3.594  0.00  0.00    -0.232 NA
ATOM      3  C   UNL     1       0.174   1.365   2.707  0.00  0.00    +0.064 A 
ATOM      4  C   UNL     1      -0.949   0.706   3.024  0.00  0.00    +0.059 A 
ATOM      5  N   UNL     1      -1.482   1.314   4.133  0.00  0.00    -0.324 N 
ATOM      6  C   UNL     1      -2.711   0.891   4.808  0.00  0.00    +0.142 C 
ATOM      7  C   UNL     1      -3.530   0.012   3.856  0.00  0.00    +0.130 C 
ATOM      8  N   UNL     1      -2.646  -0.976   3.221  0.00  0.00    -0.289 N 
ATOM      9  C   UNL     1      -1.574  -0.482   2.335  0.00  0.00    +0.163 C 
ATOM     10  C   UNL     1      -2.809  -2.296   3.442  0.00  0.00    +0.265 C 
ATOM     11  O   UNL     1      -3.616  -2.679   4.268  0.00  0.00    -0.268 OA
ENDROOT
BRANCH   1  18
ATOM     12  C   UNL     1       1.561   2.904   6.227  0.00  0.00    +0.044 C 
ATOM     13  C   UNL     1       0.222   3.560   6.444  0.00  0.00    -0.040 A 
ATOM     14  C   UNL     1       0.044   4.437   7.494  0.00  0.00    +0.004 A 
ATOM     15  C   UNL     1      -1.185   5.040   7.694  0.00  0.00    +0.000 A 
ATOM     16  C   UNL     1      -2.242   4.769   6.845  0.00  0.00    +0.001 A 
ATOM     17  C   UNL     1      -2.076   3.897   5.788  0.00  0.00    +0.012 A 
ATOM     18  C   UNL     1      -0.840   3.281   5.584  0.00  0.00    +0.020 A 
ENDBRANCH   1  18
BRANCH  10  19
ATOM     19  C   UNL     1      -2.012  -3.273   2.683  0.00  0.00    +0.121 A 
ATOM     20  C   UNL     1      -1.825  -4.607   2.993  0.00  0.00    +0.062 A 
ATOM     21  C   UNL     1      -0.995  -5.111   1.975  0.00  0.00    +0.093 A 
ATOM     22  N   UNL     1      -0.734  -4.121   1.148  0.00  0.00    -0.173 NA
ATOM     23  N   UNL     1      -1.316  -3.042   1.530  0.00  0.00    -0.272 N 
ATOM     24  H   UNL     1      -1.267  -2.164   1.055  0.00  0.00    +0.189 HD
BRANCH  21  25
ATOM     25  C   UNL     1      -0.502  -6.506   1.856  0.00  0.00    +0.002 A 
ATOM     26  C   UNL     1      -0.856  -7.455   2.814  0.00  0.00    +0.012 A 
ATOM     27  C   UNL     1      -0.403  -8.752   2.699  0.00  0.00    +0.023 A 
ATOM     28  C   UNL     1       0.416  -9.111   1.634  0.00  0.00    +0.025 A 
ATOM     29  C   UNL     1       0.775  -8.165   0.681  0.00  0.00    +0.023 A 
ATOM     30  C   UNL     1       0.319  -6.868   0.790  0.00  0.00    +0.012 A 
BRANCH  28  31
ATOM     31  N   UNL     1       0.879 -10.423   1.522  0.00  0.00    -0.358 N 
ATOM     32  H   UNL     1       1.451 -10.674   0.780  0.00  0.00    +0.142 HD
ATOM     33  H   UNL     1       0.629 -11.084   2.187  0.00  0.00    +0.142 HD
ENDBRANCH  28  31
ENDBRANCH  21  25
ENDBRANCH  10  19
BRANCH   3  34
ATOM     34  C   UNL     1       1.094   1.042   1.558  0.00  0.00    +0.057 C 
BRANCH  34  35
ATOM     35  C   UNL     1       0.647   1.814   0.315  0.00  0.00    +0.009 C 
BRANCH  35  36
ATOM     36  C   UNL     1       1.582   1.486  -0.852  0.00  0.00    -0.017 C 
ATOM     37  C   UNL     1       1.064   2.159  -2.124  0.00  0.00    +0.007 C 
ATOM     38  C   UNL     1       2.988   2.001  -0.539  0.00  0.00    +0.007 C 
ENDBRANCH  35  36
ENDBRANCH  34  35
ENDBRANCH   3  34
TORSDOF 7
