REMARK  Name = ZINC64697347
REMARK  7 active torsions:
REMARK  status: ('A' for Active; 'I' for Inactive)
REMARK    1  A    between atoms: C_1  and  C_2
REMARK    2  A    between atoms: C_2  and  C_4
REMARK    3  A    between atoms: C_2  and  N_17
REMARK    4  A    between atoms: N_17  and  C_18
REMARK    5  A    between atoms: C_18  and  C_19
REMARK    6  A    between atoms: C_19  and  C_21
REMARK    7  A    between atoms: C_19  and  C_27
REMARK                            x       y       z     vdW  Elec       q    Type
REMARK                         _______ _______ _______ _____ _____    ______ ____
ROOT
ATOM      1  N   UNL     1      -1.300  -0.700  -0.094  0.00  0.00    +0.387 N 
ATOM      2  H   UNL     1      -1.489  -1.649   0.191  0.00  0.00    -0.085 HD
ATOM      3  H   UNL     1      -1.660  -0.062   0.600  0.00  0.00    -0.085 HD
ENDROOT
BRANCH   1   5
ATOM      4  C   UNL     1       0.446   0.959  -0.538  0.00  0.00    -0.004 C 
ATOM      5  C   UNL     1       0.151  -0.510  -0.229  0.00  0.00    +0.013 C 
BRANCH   5   6
ATOM      6  C   UNL     1       0.830  -0.898   1.059  0.00  0.00    +0.206 C 
ATOM      7  O   UNL     1       0.171  -1.294   1.997  0.00  0.00    -0.277 OA
ATOM      8  N   UNL     1       2.170  -0.805   1.169  0.00  0.00    -0.262 N 
ATOM      9  C   UNL     1       2.991  -0.322   0.049  0.00  0.00    +0.209 C 
ATOM     10  C   UNL     1       4.228  -1.177  -0.058  0.00  0.00    +0.235 C 
ATOM     11  O   UNL     1       4.757  -1.331  -1.139  0.00  0.00    -0.274 OA
ATOM     12  N   UNL     1       4.752  -1.771   1.030  0.00  0.00    -0.283 N 
ATOM     13  C   UNL     1       4.134  -1.649   2.279  0.00  0.00    +0.055 A 
ATOM     14  C   UNL     1       2.826  -1.160   2.358  0.00  0.00    +0.058 A 
ATOM     15  C   UNL     1       2.199  -1.035   3.584  0.00  0.00    +0.025 A 
ATOM     16  C   UNL     1       2.874  -1.390   4.739  0.00  0.00    +0.002 A 
ATOM     17  C   UNL     1       4.169  -1.868   4.669  0.00  0.00    +0.002 A 
ATOM     18  C   UNL     1       4.803  -2.005   3.439  0.00  0.00    +0.025 A 
ATOM     19  H   UNL     1       5.568  -2.289   0.947  0.00  0.00    +0.155 HD
ENDBRANCH   5   6
ENDBRANCH   1   5
BRANCH   1  20
ATOM     20  C   UNL     1      -1.950  -0.437  -1.385  0.00  0.00    -0.073 C 
BRANCH  20  21
ATOM     21  C   UNL     1      -3.442  -0.760  -1.279  0.00  0.00    +0.014 C 
BRANCH  21  22
ATOM     22  C   UNL     1      -3.620  -2.238  -1.049  0.00  0.00    -0.039 C 
ATOM     23  C   UNL     1      -4.223  -2.830   0.008  0.00  0.00    -0.001 A 
ATOM     24  C   UNL     1      -4.866  -2.294   1.213  0.00  0.00    +0.010 A 
ATOM     25  C   UNL     1      -5.392  -3.156   2.114  0.00  0.00    +0.001 A 
ATOM     26  C   UNL     1      -5.337  -4.544   1.926  0.00  0.00    +0.002 A 
ATOM     27  C   UNL     1      -4.762  -5.110   0.844  0.00  0.00    +0.026 A 
ATOM     28  C   UNL     1      -4.178  -4.299  -0.168  0.00  0.00    +0.043 A 
ATOM     29  N   UNL     1      -3.572  -4.604  -1.290  0.00  0.00    -0.380 N 
ATOM     30  C   UNL     1      -3.168  -3.361  -1.956  0.00  0.00    +0.145 C 
ATOM     31  H   UNL     1      -3.420  -5.502  -1.625  0.00  0.00    +0.160 HD
ENDBRANCH  21  22
BRANCH  21  32
ATOM     32  C   UNL     1      -4.144  -0.357  -2.578  0.00  0.00    +0.060 C 
ATOM     33  C   UNL     1      -4.180   1.184  -2.751  0.00  0.00    +0.042 C 
ATOM     34  C   UNL     1      -5.485   1.621  -3.335  0.00  0.00    -0.019 C 
ATOM     35  C   UNL     1      -6.526   0.811  -3.294  0.00  0.00    +0.036 C 
ATOM     36  S   UNL     1      -5.956  -0.678  -2.494  0.00  0.00    -0.129 S 
ENDBRANCH  21  32
ENDBRANCH  20  21
ENDBRANCH   1  20
TORSDOF 6
