REMARK  Name = ZINC31687839
REMARK  2 active torsions:
REMARK  status: ('A' for Active; 'I' for Inactive)
REMARK    1  A    between atoms: C_3  and  C_6
REMARK    2  A    between atoms: C_14  and  C_16
REMARK                            x       y       z     vdW  Elec       q    Type
REMARK                         _______ _______ _______ _____ _____    ______ ____
ROOT
ATOM      1  C   UNL     1     -12.517  -0.048   1.530  0.00  0.00    +0.282 C 
ATOM      2  O   UNL     1     -12.654   0.240   2.704  0.00  0.00    -0.267 OA
ATOM      3  N   UNL     1     -11.338   0.176   0.914  0.00  0.00    -0.292 N 
ATOM      4  C   UNL     1     -11.190  -0.066  -0.528  0.00  0.00    +0.127 C 
ATOM      5  C   UNL     1     -10.018  -1.032  -0.744  0.00  0.00    +0.127 C 
ATOM      6  N   UNL     1      -8.859  -0.542   0.015  0.00  0.00    -0.295 N 
ATOM      7  C   UNL     1      -9.006  -0.305   1.458  0.00  0.00    +0.127 C 
ATOM      8  C   UNL     1     -10.179   0.666   1.673  0.00  0.00    +0.127 C 
ATOM      9  C   UNL     1      -7.681  -0.319  -0.600  0.00  0.00    +0.247 C 
ATOM     10  O   UNL     1      -7.597  -0.422  -1.809  0.00  0.00    -0.270 OA
ENDROOT
BRANCH   9  11
ATOM     11  C   UNL     1      -6.492   0.049   0.194  0.00  0.00    +0.038 A 
ATOM     12  C   UNL     1      -6.236  -0.624   1.393  0.00  0.00    +0.015 A 
ATOM     13  C   UNL     1      -5.152  -0.333   2.178  0.00  0.00    +0.027 A 
ATOM     14  C   UNL     1      -4.293   0.674   1.737  0.00  0.00    +0.047 A 
ATOM     15  C   UNL     1      -4.541   1.365   0.521  0.00  0.00    +0.004 A 
ATOM     16  C   UNL     1      -5.648   1.062  -0.272  0.00  0.00    +0.023 A 
ATOM     17  C   UNL     1      -3.465   2.325   0.380  0.00  0.00    -0.019 A 
ATOM     18  C   UNL     1      -2.660   2.178   1.454  0.00  0.00    +0.020 A 
ATOM     19  N   UNL     1      -3.151   1.193   2.271  0.00  0.00    -0.358 N 
ATOM     20  H   UNL     1      -2.764   0.805   3.224  0.00  0.00    +0.166 HD
ATOM     21  C   UNL     1      -1.411   2.996   1.685  0.00  0.00    +0.053 C 
ATOM     22  C   UNL     1      -1.010   3.658   0.362  0.00  0.00    +0.006 C 
ATOM     23  C   UNL     1      -2.225   4.368  -0.241  0.00  0.00    +0.005 C 
ATOM     24  C   UNL     1      -3.234   3.321  -0.728  0.00  0.00    +0.037 C 
ENDBRANCH   9  11
BRANCH   1  27
ATOM     25  C   UNL     1     -15.593  -1.534   0.244  0.00  0.00    +0.042 A 
ATOM     26  C   UNL     1     -14.831  -1.031   1.309  0.00  0.00    +0.054 A 
ATOM     27  C   UNL     1     -13.633  -0.638   0.784  0.00  0.00    +0.189 A 
ATOM     28  O   UNL     1     -13.659  -0.882  -0.543  0.00  0.00    -0.458 OA
ATOM     29  C   UNL     1     -14.837  -1.427  -0.871  0.00  0.00    +0.196 A 
ENDBRANCH   1  27
TORSDOF 2
