REMARK  Name = ZINC58609672
REMARK  7 active torsions:
REMARK  status: ('A' for Active; 'I' for Inactive)
REMARK    1  A    between atoms: C_1  and  C_2
REMARK    2  A    between atoms: C_3  and  O_28
REMARK    3  A    between atoms: C_12  and  C_13
REMARK    4  A    between atoms: C_13  and  N_14
REMARK    5  A    between atoms: N_14  and  C_15
REMARK    6  A    between atoms: C_15  and  C_16
REMARK    7  A    between atoms: C_16  and  N_22
REMARK                            x       y       z     vdW  Elec       q    Type
REMARK                         _______ _______ _______ _____ _____    ______ ____
ROOT
ATOM      1  N   UNL     1      -0.560  -7.112   1.170  0.00  0.00    +0.383 N 
ATOM      2  H   UNL     1      -0.974  -6.784   0.310  0.00  0.00    -0.085 HD
ATOM      3  H   UNL     1      -0.658  -8.115   1.229  0.00  0.00    -0.085 HD
ENDROOT
BRANCH   1   4
ATOM      4  C   UNL     1       0.865  -6.757   1.195  0.00  0.00    -0.046 C 
BRANCH   4  16
ATOM      5  C   UNL     1       3.866 -11.252  -2.136  0.00  0.00    +0.051 C 
ATOM      6  C   UNL     1       3.173 -10.638  -0.947  0.00  0.00    +0.034 A 
ATOM      7  C   UNL     1       3.003 -11.372   0.215  0.00  0.00    +0.123 A 
ATOM      8  C   UNL     1       2.363 -10.813   1.319  0.00  0.00    +0.046 A 
ATOM      9  C   UNL     1       1.894  -9.532   1.271  0.00  0.00    +0.015 A 
ATOM     10  C   UNL     1       2.057  -8.776   0.105  0.00  0.00    +0.019 A 
ATOM     11  C   UNL     1       2.708  -9.333  -1.012  0.00  0.00    +0.146 A 
ATOM     12  O   UNL     1       2.867  -8.598  -2.133  0.00  0.00    -0.422 OA
ATOM     13  C   UNL     1       2.422  -7.334  -2.211  0.00  0.00    +0.337 A 
ATOM     14  O   UNL     1       2.589  -6.710  -3.244  0.00  0.00    -0.245 OA
ATOM     15  C   UNL     1       1.767  -6.711  -1.129  0.00  0.00    +0.094 A 
ATOM     16  C   UNL     1       1.563  -7.399   0.024  0.00  0.00    -0.047 A 
BRANCH   7  17
ATOM     17  O   UNL     1       3.465 -12.647   0.279  0.00  0.00    -0.506 OA
ATOM     18  H   UNL     1       4.375 -12.721   0.598  0.00  0.00    +0.292 HD
ENDBRANCH   7  17
ENDBRANCH   4  16
ENDBRANCH   1   4
BRANCH   1  19
ATOM     19  C   UNL     1      -1.241  -6.487   2.312  0.00  0.00    -0.060 C 
BRANCH  19  20
ATOM     20  C   UNL     1      -2.745  -6.751   2.216  0.00  0.00    +0.007 C 
ATOM     21  C   UNL     1      -3.468  -5.992   3.331  0.00  0.00    +0.020 C 
ATOM     22  C   UNL     1      -2.952  -6.468   4.690  0.00  0.00    +0.002 C 
ATOM     23  C   UNL     1      -3.216  -7.968   4.840  0.00  0.00    +0.000 C 
ATOM     24  C   UNL     1      -2.493  -8.727   3.725  0.00  0.00    +0.002 C 
ATOM     25  C   UNL     1      -3.009  -8.251   2.366  0.00  0.00    +0.020 C 
BRANCH  20  26
ATOM     26  N   UNL     1      -3.241  -6.295   0.911  0.00  0.00    -0.294 NA
ATOM     27  C   UNL     1      -2.970  -4.863   0.716  0.00  0.00    +0.113 C 
ATOM     28  C   UNL     1      -3.448  -4.443  -0.676  0.00  0.00    +0.175 C 
ATOM     29  O   UNL     1      -4.837  -4.755  -0.812  0.00  0.00    -0.377 OA
ATOM     30  C   UNL     1      -5.136  -6.141  -0.629  0.00  0.00    +0.175 C 
ATOM     31  C   UNL     1      -4.676  -6.578   0.764  0.00  0.00    +0.113 C 
ENDBRANCH  20  26
ENDBRANCH  19  20
ENDBRANCH   1  19
TORSDOF 6
