REMARK  Name = ZINC28059557
REMARK  8 active torsions:
REMARK  status: ('A' for Active; 'I' for Inactive)
REMARK    1  A    between atoms: C_1  and  O_2
REMARK    2  A    between atoms: O_2  and  C_3
REMARK    3  A    between atoms: C_6  and  C_11
REMARK    4  A    between atoms: C_8  and  O_9
REMARK    5  A    between atoms: O_9  and  C_10
REMARK    6  A    between atoms: C_22  and  C_24
REMARK    7  A    between atoms: C_27  and  S_30
REMARK    8  A    between atoms: S_30  and  C_31
REMARK                            x       y       z     vdW  Elec       q    Type
REMARK                         _______ _______ _______ _____ _____    ______ ____
ROOT
ATOM      1  C   UNL     1       0.313   1.278  -0.021  0.00  0.00    +0.174 C 
ATOM      2  C   UNL     1       0.093  -0.214  -0.035  0.00  0.00    +0.025 C 
ATOM      3  C   UNL     1       1.065  -1.077  -0.340  0.00  0.00    +0.050 C 
ATOM      4  C   UNL     1       0.746  -2.525  -0.346  0.00  0.00    +0.038 A 
ATOM      5  C   UNL     1       1.745  -3.489  -0.321  0.00  0.00    +0.013 A 
ATOM      6  C   UNL     1       1.401  -4.827  -0.329  0.00  0.00    +0.001 A 
ATOM      7  C   UNL     1       0.070  -5.206  -0.363  0.00  0.00    +0.004 A 
ATOM      8  C   UNL     1      -0.931  -4.252  -0.389  0.00  0.00    +0.046 A 
ATOM      9  C   UNL     1      -0.601  -2.910  -0.380  0.00  0.00    +0.131 A 
ATOM     10  O   UNL     1      -1.554  -1.944  -0.399  0.00  0.00    -0.479 OA
ATOM     11  C   UNL     1      -1.277  -0.744   0.322  0.00  0.00    +0.234 C 
ATOM     12  N   UNL     1       2.366  -0.661  -0.646  0.00  0.00    -0.282 N 
ATOM     13  C   UNL     1       2.693   0.657  -0.372  0.00  0.00    +0.240 A 
ATOM     14  N   UNL     1       1.738   1.576  -0.072  0.00  0.00    -0.201 N 
ATOM     15  N   UNL     1       2.425   2.768   0.149  0.00  0.00    -0.042 NA
ATOM     16  N   UNL     1       3.680   2.508  -0.027  0.00  0.00    -0.021 NA
ATOM     17  N   UNL     1       3.843   1.267  -0.336  0.00  0.00    -0.092 NA
ATOM     18  H   UNL     1       3.082  -1.371  -1.085  0.00  0.00    +0.155 HD
ENDROOT
BRANCH   1  22
ATOM     19  C   UNL     1      -1.618   3.025  -3.414  0.00  0.00    +0.162 A 
ATOM     20  C   UNL     1      -0.625   2.075  -3.591  0.00  0.00    +0.050 A 
ATOM     21  C   UNL     1       0.002   1.517  -2.493  0.00  0.00    +0.010 A 
ATOM     22  C   UNL     1      -0.369   1.895  -1.216  0.00  0.00    -0.015 A 
ATOM     23  C   UNL     1      -1.359   2.842  -1.032  0.00  0.00    +0.055 A 
ATOM     24  C   UNL     1      -1.987   3.410  -2.128  0.00  0.00    +0.162 A 
BRANCH  19  26
ATOM     25  C   UNL     1      -1.802   3.136  -5.782  0.00  0.00    +0.277 C 
ATOM     26  O   UNL     1      -2.232   3.579  -4.494  0.00  0.00    -0.491 OA
ENDBRANCH  19  26
BRANCH  24  27
ATOM     27  O   UNL     1      -2.962   4.341  -1.949  0.00  0.00    -0.491 OA
ATOM     28  C   UNL     1      -3.289   4.687  -0.602  0.00  0.00    +0.277 C 
ENDBRANCH  24  27
ENDBRANCH   1  22
BRANCH  11  29
ATOM     29  C   UNL     1      -1.330  -1.029   1.800  0.00  0.00    -0.003 A 
ATOM     30  C   UNL     1      -1.999  -0.163   2.647  0.00  0.00    +0.008 A 
ATOM     31  C   UNL     1      -2.054  -0.423   4.001  0.00  0.00    +0.015 A 
ATOM     32  C   UNL     1      -1.427  -1.552   4.516  0.00  0.00    +0.008 A 
ATOM     33  C   UNL     1      -0.752  -2.417   3.664  0.00  0.00    +0.015 A 
ATOM     34  C   UNL     1      -0.706  -2.153   2.309  0.00  0.00    +0.008 A 
BRANCH  32  35
ATOM     35  S   UNL     1      -1.488  -1.885   6.245  0.00  0.00    -0.129 S 
ATOM     36  C   UNL     1      -2.456  -0.509   6.923  0.00  0.00    +0.090 C 
ENDBRANCH  32  35
ENDBRANCH  11  29
TORSDOF 5
