REMARK  Name = ZINC43737430
REMARK  12 active torsions:
REMARK  status: ('A' for Active; 'I' for Inactive)
REMARK    1  A    between atoms: C_1  and  C_2
REMARK    2  A    between atoms: C_5  and  C_8
REMARK    3  A    between atoms: C_8  and  C_10
REMARK    4  A    between atoms: C_8  and  O_42
REMARK    5  A    between atoms: C_10  and  N_11
REMARK    6  A    between atoms: C_12  and  C_14
REMARK    7  A    between atoms: C_14  and  O_15
REMARK    8  A    between atoms: O_15  and  N_16
REMARK    9  A    between atoms: C_20  and  C_41
REMARK   10  A    between atoms: C_25  and  C_40
REMARK   11  A    between atoms: C_36  and  C_37
REMARK   12  A    between atoms: C_36  and  O_39
REMARK                            x       y       z     vdW  Elec       q    Type
REMARK                         _______ _______ _______ _____ _____    ______ ____
ROOT
ATOM      1  N   UNL     1       4.160 -10.416   0.740  0.00  0.00    -0.089 NA
ATOM      2  C   UNL     1       5.341 -10.919   0.925  0.00  0.00    +0.080 C 
ATOM      3  C   UNL     1       5.541 -12.411   0.854  0.00  0.00    +0.059 C 
ATOM      4  C   UNL     1       7.002 -12.720   0.519  0.00  0.00    +0.017 C 
ATOM      5  C   UNL     1       7.933 -12.006   1.492  0.00  0.00    -0.007 C 
ATOM      6  C   UNL     1       9.397 -12.233   1.083  0.00  0.00    +0.002 C 
ATOM      7  C   UNL     1       9.588 -13.632   0.511  0.00  0.00    +0.005 C 
ATOM      8  C   UNL     1      11.059 -13.927   0.196  0.00  0.00    +0.011 C 
ATOM      9  C   UNL     1      11.826 -12.652  -0.051  0.00  0.00    +0.011 C 
ATOM     10  C   UNL     1      10.947 -11.612  -0.775  0.00  0.00    +0.002 C 
ATOM     11  C   UNL     1       9.768 -11.176   0.042  0.00  0.00    -0.003 C 
ATOM     12  C   UNL     1       9.935  -9.809   0.686  0.00  0.00    +0.008 C 
ATOM     13  C   UNL     1       8.836  -9.581   1.727  0.00  0.00    +0.031 C 
ATOM     14  C   UNL     1       7.682 -10.518   1.457  0.00  0.00    -0.062 C 
ATOM     15  C   UNL     1       6.478 -10.033   1.197  0.00  0.00    +0.026 C 
ATOM     16  C   UNL     1      11.969 -10.526  -1.147  0.00  0.00    +0.008 C 
ATOM     17  C   UNL     1      13.225 -11.343  -1.552  0.00  0.00    +0.049 C 
ATOM     18  C   UNL     1      12.990 -12.791  -1.055  0.00  0.00    +0.132 C 
ATOM     19  C   UNL     1      12.419 -12.110   1.252  0.00  0.00    +0.015 C 
ATOM     20  C   UNL     1       7.722 -12.530   2.914  0.00  0.00    +0.016 C 
ENDROOT
BRANCH  18  21
ATOM     21  C   UNL     1      14.183 -13.304  -0.372  0.00  0.00    -0.070 C 
ATOM     22  C   UNL     1      15.138 -13.714   0.175  0.00  0.00    +0.007 C 
ENDBRANCH  18  21
BRANCH  18  23
ATOM     23  O   UNL     1      12.614 -13.636  -2.137  0.00  0.00    -0.376 OA
ATOM     24  H   UNL     1      13.308 -13.760  -2.799  0.00  0.00    +0.211 HD
ENDBRANCH  18  23
BRANCH   1  25
ATOM     25  O   UNL     1       3.971  -9.014   0.799  0.00  0.00    -0.384 OA
BRANCH  25  26
ATOM     26  C   UNL     1       2.622  -8.600   0.576  0.00  0.00    +0.358 C 
BRANCH  26  28
ATOM     27  N   UNL     1       1.352  -6.479   0.484  0.00  0.00    -0.310 N 
ATOM     28  C   UNL     1       2.536  -7.098   0.662  0.00  0.00    +0.253 C 
ATOM     29  O   UNL     1       3.533  -6.446   0.892  0.00  0.00    -0.272 OA
ATOM     30  H   UNL     1       0.555  -7.000   0.300  0.00  0.00    +0.149 HD
BRANCH  27  31
ATOM     31  C   UNL     1       1.269  -5.018   0.567  0.00  0.00    +0.140 C 
BRANCH  31  32
ATOM     32  C   UNL     1      -0.175  -4.575   0.328  0.00  0.00    +0.163 C 
BRANCH  32  37
ATOM     33  C   UNL     1      -0.418   1.153   0.338  0.00  0.00    +0.065 C 
ATOM     34  C   UNL     1      -0.355  -0.353   0.309  0.00  0.00    +0.038 A 
ATOM     35  C   UNL     1      -0.347  -1.013  -0.905  0.00  0.00    +0.023 A 
ATOM     36  C   UNL     1      -0.288  -2.398  -0.920  0.00  0.00    +0.009 A 
ATOM     37  C   UNL     1      -0.239  -3.070   0.292  0.00  0.00    +0.000 A 
ATOM     38  C   UNL     1      -0.251  -2.342   1.467  0.00  0.00    +0.117 A 
ATOM     39  N   UNL     1      -0.302  -1.024   1.443  0.00  0.00    -0.260 NA
ENDBRANCH  32  37
BRANCH  32  40
ATOM     40  O   UNL     1      -1.004  -5.062   1.385  0.00  0.00    -0.386 OA
ATOM     41  H   UNL     1      -0.750  -4.745   2.263  0.00  0.00    +0.210 HD
ENDBRANCH  32  40
ENDBRANCH  31  32
ENDBRANCH  27  31
ENDBRANCH  26  28
ENDBRANCH  25  26
ENDBRANCH   1  25
TORSDOF 9
