REMARK  Name = ZINC36938737
REMARK  3 active torsions:
REMARK  status: ('A' for Active; 'I' for Inactive)
REMARK    1  A    between atoms: C_2  and  C_9
REMARK    2  A    between atoms: C_11  and  N_22
REMARK    3  A    between atoms: N_12  and  C_14
REMARK                            x       y       z     vdW  Elec       q    Type
REMARK                         _______ _______ _______ _____ _____    ______ ____
ROOT
ATOM      1  C   UNL     1       1.167   3.572   0.010  0.00  0.00    +0.066 A 
ATOM      2  C   UNL     1       0.019   4.386   0.031  0.00  0.00    +0.070 A 
ATOM      3  C   UNL     1       0.430   5.683   0.032  0.00  0.00    +0.113 A 
ATOM      4  N   UNL     1       1.788   5.685   0.012  0.00  0.00    -0.268 N 
ATOM      5  N   UNL     1       2.225   4.355   0.004  0.00  0.00    -0.295 N 
ATOM      6  H   UNL     1       3.149   4.060  -0.007  0.00  0.00    +0.187 HD
ENDROOT
BRANCH   1   8
ATOM      7  C   UNL     1      -0.017   1.377   0.010  0.00  0.00    +0.030 A 
ATOM      8  C   UNL     1       1.181   2.088   0.002  0.00  0.00    +0.003 A 
ATOM      9  C   UNL     1       2.393   1.401  -0.013  0.00  0.00    +0.030 A 
ATOM     10  C   UNL     1       2.402   0.020  -0.021  0.00  0.00    +0.043 A 
ATOM     11  C   UNL     1       1.209  -0.682  -0.014  0.00  0.00    +0.040 A 
ATOM     12  C   UNL     1       0.002  -0.004   0.002  0.00  0.00    +0.043 A 
ATOM     13 CL   UNL     1      -1.490  -0.891   0.012  0.00  0.00    -0.083 Cl
ATOM     14 CL   UNL     1       3.911  -0.838  -0.040  0.00  0.00    -0.083 Cl
ENDBRANCH   1   8
BRANCH   4  15
ATOM     15  C   UNL     1       2.647   6.873   0.006  0.00  0.00    +0.129 C 
ATOM     16  C   UNL     1       3.560   6.849   1.243  0.00  0.00    +0.051 C 
ATOM     17  C   UNL     1       4.660   7.932   1.053  0.00  0.00    +0.168 C 
ATOM     18  S   UNL     1       5.053   7.704  -0.733  0.00  0.00    -0.029 S 
ATOM     19  O   UNL     1       6.132   6.788  -0.856  0.00  0.00    -0.174 OA
ATOM     20  O   UNL     1       5.144   8.980  -1.352  0.00  0.00    -0.174 OA
ATOM     21  C   UNL     1       3.505   6.880  -1.282  0.00  0.00    +0.192 C 
ENDBRANCH   4  15
BRANCH   3  22
ATOM     22  N   UNL     1      -0.394   6.805   0.050  0.00  0.00    -0.343 N 
ATOM     23  H   UNL     1      -1.358   6.699   0.064  0.00  0.00    +0.144 HD
ATOM     24  H   UNL     1      -0.003   7.693   0.049  0.00  0.00    +0.144 HD
ENDBRANCH   3  22
TORSDOF 3
