REMARK  Name = ZINC59387253
REMARK  8 active torsions:
REMARK  status: ('A' for Active; 'I' for Inactive)
REMARK    1  A    between atoms: C_1  and  C_2
REMARK    2  A    between atoms: C_2  and  C_3
REMARK    3  A    between atoms: C_3  and  N_4
REMARK    4  A    between atoms: C_5  and  C_7
REMARK    5  A    between atoms: C_7  and  N_8
REMARK    6  A    between atoms: C_11  and  N_14
REMARK    7  A    between atoms: N_14  and  C_15
REMARK    8  A    between atoms: C_18  and  N_22
REMARK                            x       y       z     vdW  Elec       q    Type
REMARK                         _______ _______ _______ _____ _____    ______ ____
ROOT
ATOM      1  N   UNL     1       4.661  -6.533  -6.170  0.00  0.00    -0.340 N 
ATOM      2  H   UNL     1       4.382  -6.028  -6.950  0.00  0.00    +0.146 HD
ENDROOT
BRANCH   1   6
ATOM      3  N   UNL     1       3.052  -4.246  -3.016  0.00  0.00    +0.385 N 
ATOM      4  C   UNL     1       4.345  -3.809  -3.555  0.00  0.00    -0.076 C 
ATOM      5  C   UNL     1       4.555  -4.417  -4.943  0.00  0.00    +0.003 C 
ATOM      6  C   UNL     1       4.536  -5.944  -4.834  0.00  0.00    +0.067 C 
ATOM      7  C   UNL     1       3.213  -6.384  -4.202  0.00  0.00    +0.003 C 
ATOM      8  C   UNL     1       3.052  -5.703  -2.841  0.00  0.00    -0.076 C 
ATOM      9  H   UNL     1       2.317  -3.986  -3.657  0.00  0.00    -0.081 HD
BRANCH   3  10
ATOM     10  C   UNL     1       2.820  -3.598  -1.718  0.00  0.00    +0.019 C 
BRANCH  10  12
ATOM     11  N   UNL     1       2.480  -1.305  -0.855  0.00  0.00    -0.317 N 
ATOM     12  C   UNL     1       2.697  -2.109  -1.915  0.00  0.00    +0.196 C 
ATOM     13  O   UNL     1       2.793  -1.634  -3.026  0.00  0.00    -0.278 OA
ATOM     14  H   UNL     1       2.403  -1.685   0.034  0.00  0.00    +0.149 HD
BRANCH  11  15
ATOM     15  C   UNL     1       2.360   0.142  -1.046  0.00  0.00    +0.104 C 
BRANCH  15  17
ATOM     16  C   UNL     1       1.993   2.329   0.107  0.00  0.00    +0.005 C 
ATOM     17  C   UNL     1       2.118   0.817   0.306  0.00  0.00    +0.015 C 
ENDBRANCH  15  17
ENDBRANCH  11  15
ENDBRANCH  10  12
ENDBRANCH   3  10
ENDBRANCH   1   6
BRANCH   1  18
ATOM     18  C   UNL     1       5.182  -7.821  -6.320  0.00  0.00    +0.046 A 
ATOM     19  C   UNL     1       5.577  -8.546  -5.202  0.00  0.00    +0.026 A 
ATOM     20  C   UNL     1       6.091  -9.818  -5.350  0.00  0.00    +0.030 A 
ATOM     21  C   UNL     1       6.215 -10.374  -6.617  0.00  0.00    +0.071 A 
ATOM     22  C   UNL     1       5.820  -9.650  -7.736  0.00  0.00    +0.049 A 
ATOM     23  C   UNL     1       5.301  -8.380  -7.588  0.00  0.00    +0.064 A 
ATOM     24 CL   UNL     1       4.801  -7.478  -8.984  0.00  0.00    -0.082 Cl
BRANCH  21  25
ATOM     25  N   UNL     1       6.736 -11.664  -6.767  0.00  0.00    -0.195 N 
ATOM     26  C   UNL     1       7.710 -11.895  -7.671  0.00  0.00    +0.292 A 
ATOM     27  O   UNL     1       8.138 -10.982  -8.360  0.00  0.00    -0.264 OA
ATOM     28  C   UNL     1       8.228 -13.196  -7.814  0.00  0.00    +0.127 A 
ATOM     29  C   UNL     1       7.734 -14.200  -7.032  0.00  0.00    +0.084 A 
ATOM     30  C   UNL     1       6.721 -13.922  -6.102  0.00  0.00    +0.155 A 
ATOM     31  N   UNL     1       6.250 -12.710  -5.974  0.00  0.00    -0.170 NA
ATOM     32 CL   UNL     1       8.355 -15.813  -7.188  0.00  0.00    -0.080 Cl
ATOM     33 CL   UNL     1       9.481 -13.520  -8.970  0.00  0.00    -0.076 Cl
ENDBRANCH  21  25
ENDBRANCH   1  18
TORSDOF 7
