REMARK  Name = ZINC16676557
REMARK  8 active torsions:
REMARK  status: ('A' for Active; 'I' for Inactive)
REMARK    1  A    between atoms: C_1  and  C_2
REMARK    2  A    between atoms: C_2  and  C_30
REMARK    3  A    between atoms: N_7  and  C_10
REMARK    4  A    between atoms: C_13  and  O_28
REMARK    5  A    between atoms: C_14  and  S_16
REMARK    6  A    between atoms: S_16  and  N_19
REMARK    7  A    between atoms: N_19  and  C_20
REMARK    8  A    between atoms: O_28  and  C_29
REMARK                            x       y       z     vdW  Elec       q    Type
REMARK                         _______ _______ _______ _____ _____    ______ ____
ROOT
ATOM      1  C   UNL     1       0.341  -5.408   0.501  0.00  0.00    +0.061 A 
ATOM      2  C   UNL     1       1.690  -5.089   0.578  0.00  0.00    +0.029 A 
ATOM      3  C   UNL     1       2.128  -3.842   0.179  0.00  0.00    +0.049 A 
ATOM      4  C   UNL     1       1.220  -2.907  -0.297  0.00  0.00    +0.147 A 
ATOM      5  C   UNL     1      -0.128  -3.225  -0.373  0.00  0.00    +0.152 A 
ATOM      6  C   UNL     1      -0.568  -4.470   0.030  0.00  0.00    +0.057 A 
ENDROOT
BRANCH   1  13
ATOM      7  C   UNL     1      -2.498  -8.444   2.956  0.00  0.00    +0.022 C 
ATOM      8  C   UNL     1      -1.644  -8.401   1.688  0.00  0.00    +0.064 C 
ATOM      9  C   UNL     1      -0.306  -9.148   1.934  0.00  0.00    +0.205 C 
ATOM     10  S   UNL     1       0.809  -8.077   0.934  0.00  0.00    +0.053 S 
ATOM     11  O   UNL     1       0.870  -8.523  -0.414  0.00  0.00    -0.155 OA
ATOM     12  O   UNL     1       1.987  -7.754   1.661  0.00  0.00    -0.155 OA
ATOM     13  N   UNL     1      -0.105  -6.674   0.906  0.00  0.00    -0.143 N 
ATOM     14  C   UNL     1      -1.340  -6.977   1.333  0.00  0.00    +0.246 C 
ATOM     15  O   UNL     1      -2.191  -6.118   1.429  0.00  0.00    -0.273 OA
ATOM     16  C   UNL     1      -2.401  -9.068   0.538  0.00  0.00    +0.022 C 
ENDBRANCH   1  13
BRANCH   5  17
ATOM     17  S   UNL     1      -1.280  -2.037  -0.978  0.00  0.00    +0.076 S 
ATOM     18  O   UNL     1      -2.566  -2.636  -0.888  0.00  0.00    -0.150 OA
ATOM     19  O   UNL     1      -0.752  -1.545  -2.202  0.00  0.00    -0.150 OA
BRANCH  17  20
ATOM     20  N   UNL     1      -1.276  -0.766   0.084  0.00  0.00    -0.216 N 
ATOM     21  H   UNL     1      -1.013   0.117  -0.218  0.00  0.00    +0.174 HD
BRANCH  20  22
ATOM     22  C   UNL     1      -1.650  -0.967   1.416  0.00  0.00    +0.050 A 
ATOM     23  C   UNL     1      -2.793  -1.698   1.715  0.00  0.00    +0.026 A 
ATOM     24  C   UNL     1      -3.160  -1.895   3.031  0.00  0.00    +0.023 A 
ATOM     25  C   UNL     1      -2.391  -1.366   4.053  0.00  0.00    +0.059 A 
ATOM     26  C   UNL     1      -1.252  -0.636   3.758  0.00  0.00    +0.061 A 
ATOM     27  C   UNL     1      -0.879  -0.436   2.442  0.00  0.00    +0.046 A 
ATOM     28 CL   UNL     1      -0.289   0.026   5.042  0.00  0.00    -0.082 Cl
ATOM     29 CL   UNL     1      -2.857  -1.616   5.706  0.00  0.00    -0.082 Cl
ENDBRANCH  20  22
ENDBRANCH  17  20
ENDBRANCH   5  17
BRANCH   4  30
ATOM     30  O   UNL     1       1.652  -1.679  -0.690  0.00  0.00    -0.493 OA
ATOM     31  C   UNL     1       3.033  -1.379  -0.478  0.00  0.00    +0.277 C 
ENDBRANCH   4  30
TORSDOF 5
