REMARK  Name = ZINC28629155
REMARK  6 active torsions:
REMARK  status: ('A' for Active; 'I' for Inactive)
REMARK    1  A    between atoms: C_4  and  C_7
REMARK    2  A    between atoms: C_20  and  C_22
REMARK    3  A    between atoms: C_25  and  O_28
REMARK    4  A    between atoms: O_28  and  C_29
REMARK    5  A    between atoms: C_29  and  C_30
REMARK    6  A    between atoms: C_30  and  C_32
REMARK                            x       y       z     vdW  Elec       q    Type
REMARK                         _______ _______ _______ _____ _____    ______ ____
ROOT
ATOM      1  C   UNL     1      -2.518   3.869   0.045  0.00  0.00    +0.068 C 
ATOM      2  N   UNL     1      -2.649   5.156   0.059  0.00  0.00    -0.185 NA
ATOM      3  N   UNL     1      -3.966   5.577   0.038  0.00  0.00    -0.205 N 
ATOM      4  C   UNL     1      -4.848   4.406   0.242  0.00  0.00    +0.136 C 
ATOM      5  C   UNL     1      -3.888   3.222   0.055  0.00  0.00    +0.086 C 
ATOM      6  C   UNL     1      -5.890   4.462  -0.844  0.00  0.00    +0.017 A 
ATOM      7  C   UNL     1      -6.649   3.338  -1.111  0.00  0.00    +0.009 A 
ATOM      8  C   UNL     1      -7.623   3.369  -2.090  0.00  0.00    +0.001 A 
ATOM      9  C   UNL     1      -7.837   4.533  -2.805  0.00  0.00    +0.004 A 
ATOM     10  C   UNL     1      -7.078   5.654  -2.548  0.00  0.00    +0.046 A 
ATOM     11  C   UNL     1      -6.087   5.630  -1.567  0.00  0.00    +0.129 A 
ATOM     12  O   UNL     1      -5.365   6.764  -1.382  0.00  0.00    -0.465 OA
ATOM     13  C   UNL     1      -4.531   6.906  -0.226  0.00  0.00    +0.310 C 
ENDROOT
BRANCH   1  17
ATOM     14  C   UNL     1       1.177   1.782   0.000  0.00  0.00    +0.000 A 
ATOM     15  C   UNL     1      -0.013   1.076   0.008  0.00  0.00    +0.001 A 
ATOM     16  C   UNL     1      -1.217   1.748   0.017  0.00  0.00    +0.010 A 
ATOM     17  C   UNL     1      -1.234   3.144   0.030  0.00  0.00    -0.002 A 
ATOM     18  C   UNL     1      -0.029   3.851   0.022  0.00  0.00    +0.010 A 
ATOM     19  C   UNL     1       1.168   3.166   0.007  0.00  0.00    +0.001 A 
ENDBRANCH   1  17
BRANCH  13  20
ATOM     20  C   UNL     1      -3.426   7.893  -0.503  0.00  0.00    +0.013 A 
ATOM     21  C   UNL     1      -2.246   7.463  -1.080  0.00  0.00    +0.012 A 
ATOM     22  C   UNL     1      -1.233   8.366  -1.339  0.00  0.00    +0.046 A 
ATOM     23  C   UNL     1      -1.398   9.704  -1.011  0.00  0.00    +0.121 A 
ATOM     24  C   UNL     1      -2.581  10.132  -0.427  0.00  0.00    +0.046 A 
ATOM     25  C   UNL     1      -3.593   9.226  -0.175  0.00  0.00    +0.012 A 
BRANCH  23  26
ATOM     26  O   UNL     1      -0.401  10.594  -1.260  0.00  0.00    -0.484 OA
BRANCH  26  27
ATOM     27  C   UNL     1       0.789  10.082  -1.862  0.00  0.00    +0.307 C 
BRANCH  27  28
ATOM     28  C   UNL     1       1.774  11.205  -2.061  0.00  0.00    +0.194 C 
ATOM     29  O   UNL     1       1.485  12.334  -1.719  0.00  0.00    -0.289 OA
BRANCH  28  30
ATOM     30  C   UNL     1       3.036  10.945  -2.645  0.00  0.00    +0.070 C 
ATOM     31  C   UNL     1       3.924  11.958  -2.824  0.00  0.00    +0.082 C 
ATOM     32  C   UNL     1       5.300  11.927  -3.404  0.00  0.00    +0.258 C 
ATOM     33  O   UNL     1       5.803  10.899  -3.810  0.00  0.00    -0.269 OA
ATOM     34  N   UNL     1       5.937  13.085  -3.455  0.00  0.00    -0.243 N 
ATOM     35  C   UNL     1       5.377  14.222  -2.997  0.00  0.00    +0.283 C 
ATOM     36  O   UNL     1       5.851  15.341  -2.980  0.00  0.00    -0.262 OA
ATOM     37  S   UNL     1       3.772  13.693  -2.422  0.00  0.00    -0.026 S 
ATOM     38  H   UNL     1       6.951  13.137  -3.880  0.00  0.00    +0.159 HD
ENDBRANCH  28  30
ENDBRANCH  27  28
ENDBRANCH  26  27
ENDBRANCH  23  26
ENDBRANCH  13  20
TORSDOF 6
