REMARK  Name = ZINC35843690
REMARK  16 active torsions:
REMARK  status: ('A' for Active; 'I' for Inactive)
REMARK    1  A    between atoms: C_1  and  C_2
REMARK    2  A    between atoms: C_2  and  C_3
REMARK    3  A    between atoms: C_3  and  C_4
REMARK    4  A    between atoms: C_4  and  N_5
REMARK    5  A    between atoms: N_5  and  C_6
REMARK    6  A    between atoms: N_5  and  C_31
REMARK    7  A    between atoms: C_6  and  C_7
REMARK    8  A    between atoms: N_9  and  C_10
REMARK    9  A    between atoms: N_9  and  C_22
REMARK   10  A    between atoms: C_10  and  C_11
REMARK   11  A    between atoms: C_11  and  C_12
REMARK   12  A    between atoms: C_22  and  C_23
REMARK   13  A    between atoms: C_31  and  C_33
REMARK   14  A    between atoms: C_31  and  C_34
REMARK   15  A    between atoms: C_34  and  O_36
REMARK   16  A    between atoms: O_36  and  C_37
REMARK                            x       y       z     vdW  Elec       q    Type
REMARK                         _______ _______ _______ _____ _____    ______ ____
ROOT
ATOM      1  C   UNL     1      -4.182  -3.965   0.234  0.00  0.00    +0.199 C 
ATOM      2  O   UNL     1      -5.126  -3.221   0.393  0.00  0.00    -0.278 OA
ATOM      3  N   UNL     1      -4.371  -5.299   0.216  0.00  0.00    -0.298 N 
ENDROOT
BRANCH   1   4
ATOM      4  C   UNL     1      -2.797  -3.398   0.058  0.00  0.00    +0.020 C 
BRANCH   4   5
ATOM      5  N   UNL     1      -2.834  -1.943   0.260  0.00  0.00    +0.394 N 
ATOM      6  H   UNL     1      -3.697  -1.574  -0.112  0.00  0.00    -0.080 HD
BRANCH   5   7
ATOM      7  C   UNL     1      -2.753  -1.645   1.696  0.00  0.00    +0.040 C 
ATOM      8  C   UNL     1      -3.971  -2.238   2.409  0.00  0.00    -0.002 C 
BRANCH   7   9
ATOM      9  C   UNL     1      -1.495  -2.250   2.264  0.00  0.00    +0.293 C 
ATOM     10  O   UNL     1      -0.730  -2.842   1.541  0.00  0.00    -0.253 OA
BRANCH   9  11
ATOM     11  O   UNL     1      -1.225  -2.130   3.573  0.00  0.00    -0.469 OA
ATOM     12  C   UNL     1      -0.015  -2.728   4.043  0.00  0.00    +0.280 C 
ENDBRANCH   9  11
ENDBRANCH   7   9
ENDBRANCH   5   7
BRANCH   5  13
ATOM     13  C   UNL     1      -1.697  -1.323  -0.434  0.00  0.00    -0.077 C 
BRANCH  13  14
ATOM     14  C   UNL     1      -1.825   0.200  -0.361  0.00  0.00    -0.019 C 
BRANCH  14  16
ATOM     15  C   UNL     1      -0.721   2.368  -0.928  0.00  0.00    +0.004 C 
ATOM     16  C   UNL     1      -0.593   0.846  -1.000  0.00  0.00    -0.005 C 
ENDBRANCH  14  16
ENDBRANCH  13  14
ENDBRANCH   5  13
ENDBRANCH   4   5
ENDBRANCH   1   4
BRANCH   3  17
ATOM     17  C   UNL     1      -5.728  -5.848   0.268  0.00  0.00    +0.113 C 
BRANCH  17  18
ATOM     18  C   UNL     1      -6.268  -6.009  -1.155  0.00  0.00    +0.056 C 
BRANCH  18  19
ATOM     19  C   UNL     1      -7.664  -6.573  -1.101  0.00  0.00    -0.021 A 
ATOM     20  C   UNL     1      -8.007  -7.867  -1.200  0.00  0.00    +0.087 A 
ATOM     21  N   UNL     1      -9.366  -7.998  -1.108  0.00  0.00    -0.360 N 
ATOM     22  H   UNL     1      -9.849  -8.839  -1.151  0.00  0.00    +0.165 HD
ATOM     23  C   UNL     1      -9.946  -6.761  -0.943  0.00  0.00    +0.047 A 
ATOM     24  C   UNL     1      -8.905  -5.814  -0.925  0.00  0.00    +0.003 A 
ATOM     25  C   UNL     1      -9.198  -4.459  -0.764  0.00  0.00    +0.010 A 
ATOM     26  C   UNL     1     -10.497  -4.058  -0.621  0.00  0.00    +0.001 A 
ATOM     27  C   UNL     1     -11.527  -4.988  -0.633  0.00  0.00    +0.002 A 
ATOM     28  C   UNL     1     -11.261  -6.330  -0.800  0.00  0.00    +0.026 A 
ENDBRANCH  18  19
ENDBRANCH  17  18
ENDBRANCH   3  17
BRANCH   3  29
ATOM     29  C   UNL     1      -3.219  -6.201   0.144  0.00  0.00    +0.142 C 
BRANCH  29  30
ATOM     30  C   UNL     1      -2.854  -6.662   1.532  0.00  0.00    -0.029 A 
ATOM     31  C   UNL     1      -1.995  -5.906   2.308  0.00  0.00    +0.007 A 
ATOM     32  C   UNL     1      -1.659  -6.327   3.580  0.00  0.00    +0.022 A 
ATOM     33  C   UNL     1      -2.183  -7.506   4.079  0.00  0.00    +0.059 A 
ATOM     34  C   UNL     1      -3.044  -8.263   3.303  0.00  0.00    +0.060 A 
ATOM     35  C   UNL     1      -3.383  -7.837   2.031  0.00  0.00    +0.026 A 
ATOM     36 CL   UNL     1      -3.703  -9.743   3.927  0.00  0.00    -0.082 Cl
ATOM     37 CL   UNL     1      -1.762  -8.037   5.678  0.00  0.00    -0.082 Cl
ENDBRANCH  29  30
ENDBRANCH   3  29
TORSDOF 13
