REMARK  Name = ZINC20738931
REMARK  5 active torsions:
REMARK  status: ('A' for Active; 'I' for Inactive)
REMARK    1  A    between atoms: C_1  and  C_2
REMARK    2  A    between atoms: C_2  and  C_3
REMARK    3  A    between atoms: C_2  and  C_4
REMARK    4  A    between atoms: C_4  and  N_5
REMARK    5  A    between atoms: N_23  and  C_24
REMARK                            x       y       z     vdW  Elec       q    Type
REMARK                         _______ _______ _______ _____ _____    ______ ____
ROOT
ATOM      1  N   UNL     1      -1.416  -1.993  -0.116  0.00  0.00    -0.270 N 
ATOM      2  C   UNL     1      -1.448  -2.663  -1.325  0.00  0.00    +0.041 A 
ATOM      3  C   UNL     1      -1.500  -2.150  -2.622  0.00  0.00    +0.024 A 
ATOM      4  C   UNL     1      -1.523  -3.062  -3.666  0.00  0.00    +0.002 A 
ATOM      5  C   UNL     1      -1.495  -4.424  -3.445  0.00  0.00    +0.000 A 
ATOM      6  C   UNL     1      -1.442  -4.949  -2.159  0.00  0.00    +0.007 A 
ATOM      7  C   UNL     1      -1.419  -4.048  -1.116  0.00  0.00    -0.006 A 
ATOM      8  C   UNL     1      -1.365  -4.245   0.365  0.00  0.00    +0.112 C 
ATOM      9  C   UNL     1      -1.363  -2.842   0.932  0.00  0.00    +0.235 C 
ATOM     10  O   UNL     1      -1.323  -2.538   2.106  0.00  0.00    -0.274 OA
ATOM     11  C   UNL     1      -0.091  -4.978   0.780  0.00  0.00    +0.122 C 
ATOM     12  C   UNL     1      -0.224  -6.461   0.572  0.00  0.00    +0.220 C 
ATOM     13  O   UNL     1       0.740  -7.088   0.186  0.00  0.00    -0.275 OA
ATOM     14  N   UNL     1      -1.381  -7.117   0.802  0.00  0.00    -0.270 N 
ATOM     15  C   UNL     1      -2.530  -6.367   1.051  0.00  0.00    +0.133 A 
ATOM     16  C   UNL     1      -2.562  -5.009   0.859  0.00  0.00    +0.032 A 
ATOM     17  C   UNL     1      -3.830  -4.561   1.194  0.00  0.00    +0.141 A 
ATOM     18  N   UNL     1      -4.550  -5.595   1.564  0.00  0.00    -0.173 NA
ATOM     19  N   UNL     1      -3.752  -6.747   1.473  0.00  0.00    -0.218 N 
ATOM     20  H   UNL     1      -1.412  -8.086   0.794  0.00  0.00    +0.156 HD
ENDROOT
BRANCH  19  21
ATOM     21  C   UNL     1      -4.155  -8.058   1.768  0.00  0.00    +0.068 A 
ATOM     22  C   UNL     1      -3.651  -9.122   1.033  0.00  0.00    +0.030 A 
ATOM     23  C   UNL     1      -4.048 -10.412   1.325  0.00  0.00    +0.040 A 
ATOM     24  C   UNL     1      -4.950 -10.644   2.350  0.00  0.00    +0.124 A 
ATOM     25  C   UNL     1      -5.455  -9.584   3.084  0.00  0.00    +0.040 A 
ATOM     26  C   UNL     1      -5.055  -8.293   2.799  0.00  0.00    +0.030 A 
ATOM     27  F   UNL     1      -5.339 -11.906   2.634  0.00  0.00    -0.205 F 
ENDBRANCH  19  21
BRANCH   1  28
ATOM     28  C   UNL     1      -1.433  -0.534   0.013  0.00  0.00    +0.116 C 
BRANCH  28  30
ATOM     29  C   UNL     1      -0.019   1.526   0.010  0.00  0.00    +0.009 C 
ATOM     30  C   UNL     1       0.002  -0.004   0.002  0.00  0.00    +0.001 C 
ATOM     31  C   UNL     1       0.742  -0.511   1.242  0.00  0.00    +0.009 C 
ENDBRANCH  28  30
ENDBRANCH   1  28
TORSDOF 3
