REMARK  Name = ZINC40825246
REMARK  9 active torsions:
REMARK  status: ('A' for Active; 'I' for Inactive)
REMARK    1  A    between atoms: C_1  and  C_2
REMARK    2  A    between atoms: C_6  and  C_7
REMARK    3  A    between atoms: N_9  and  C_10
REMARK    4  A    between atoms: C_15  and  O_16
REMARK    5  A    between atoms: O_16  and  C_17
REMARK    6  A    between atoms: N_22  and  N_23
REMARK    7  A    between atoms: N_23  and  C_24
REMARK    8  A    between atoms: C_24  and  N_26
REMARK    9  A    between atoms: N_26  and  C_27
REMARK                            x       y       z     vdW  Elec       q    Type
REMARK                         _______ _______ _______ _____ _____    ______ ____
ROOT
ATOM      1  C   UNL     1       0.428   1.939  -0.376  0.00  0.00    +0.048 C 
ATOM      2  C   UNL     1       0.395   0.455  -0.120  0.00  0.00    +0.009 A 
ATOM      3  C   UNL     1       0.120  -0.553  -1.053  0.00  0.00    +0.042 A 
ATOM      4  C   UNL     1       0.194  -1.757  -0.394  0.00  0.00    +0.115 A 
ATOM      5  O   UNL     1       0.500  -1.512   0.878  0.00  0.00    -0.454 OA
ATOM      6  C   UNL     1       0.631  -0.179   1.068  0.00  0.00    +0.193 A 
ATOM      7  C   UNL     1      -0.049  -3.080  -1.074  0.00  0.00    +0.075 C 
ATOM      8  C   UNL     1      -0.853  -2.853  -2.357  0.00  0.00    +0.014 C 
ATOM      9  C   UNL     1      -0.176  -1.799  -3.239  0.00  0.00    +0.058 C 
ATOM     10  C   UNL     1      -0.199  -0.471  -2.496  0.00  0.00    +0.070 C 
ATOM     11  N   UNL     1      -0.478   0.651  -3.084  0.00  0.00    -0.185 NA
ENDROOT
BRANCH   6  12
ATOM     12  C   UNL     1       0.968   0.476   2.337  0.00  0.00    +0.284 C 
ATOM     13  O   UNL     1       1.056   1.689   2.390  0.00  0.00    -0.266 OA
ATOM     14  N   UNL     1       1.179  -0.264   3.443  0.00  0.00    -0.276 N 
ATOM     15  H   UNL     1       1.050  -1.225   3.415  0.00  0.00    +0.155 HD
BRANCH  14  16
ATOM     16  C   UNL     1       1.584   0.354   4.632  0.00  0.00    +0.076 A 
ATOM     17  C   UNL     1       1.156   1.639   4.929  0.00  0.00    +0.027 A 
ATOM     18  C   UNL     1       1.557   2.247   6.104  0.00  0.00    +0.002 A 
ATOM     19  C   UNL     1       2.385   1.576   6.985  0.00  0.00    +0.004 A 
ATOM     20  C   UNL     1       2.816   0.295   6.696  0.00  0.00    +0.047 A 
ATOM     21  C   UNL     1       2.414  -0.323   5.523  0.00  0.00    +0.141 A 
BRANCH  21  22
ATOM     22  O   UNL     1       2.833  -1.586   5.240  0.00  0.00    -0.493 OA
ATOM     23  C   UNL     1       3.682  -2.218   6.200  0.00  0.00    +0.277 C 
ENDBRANCH  21  22
ENDBRANCH  14  16
ENDBRANCH   6  12
BRANCH  11  24
ATOM     24  N   UNL     1      -0.773   0.670  -4.454  0.00  0.00    -0.218 N 
ATOM     25  H   UNL     1      -0.768  -0.156  -4.962  0.00  0.00    +0.176 HD
BRANCH  24  26
ATOM     26  C   UNL     1      -1.063   1.835  -5.065  0.00  0.00    +0.154 C 
ATOM     27  S   UNL     1      -1.423   1.858  -6.739  0.00  0.00    -0.017 S 
BRANCH  26  28
ATOM     28  N   UNL     1      -1.069   2.983  -4.359  0.00  0.00    -0.296 N 
ATOM     29  H   UNL     1      -0.785   2.984  -3.432  0.00  0.00    +0.154 HD
BRANCH  28  30
ATOM     30  C   UNL     1      -1.486   4.174  -4.963  0.00  0.00    +0.033 A 
ATOM     31  C   UNL     1      -2.578   4.173  -5.821  0.00  0.00    +0.023 A 
ATOM     32  C   UNL     1      -2.988   5.351  -6.416  0.00  0.00    +0.002 A 
ATOM     33  C   UNL     1      -2.311   6.529  -6.159  0.00  0.00    +0.000 A 
ATOM     34  C   UNL     1      -1.223   6.532  -5.306  0.00  0.00    +0.002 A 
ATOM     35  C   UNL     1      -0.812   5.360  -4.702  0.00  0.00    +0.023 A 
ENDBRANCH  28  30
ENDBRANCH  26  28
ENDBRANCH  24  26
ENDBRANCH  11  24
TORSDOF 7
