REMARK  Name = ZINC05487777
REMARK  12 active torsions:
REMARK  status: ('A' for Active; 'I' for Inactive)
REMARK    1  A    between atoms: C_1  and  C_2
REMARK    2  A    between atoms: C_5  and  S_8
REMARK    3  A    between atoms: S_8  and  O_11
REMARK    4  A    between atoms: O_11  and  C_12
REMARK    5  A    between atoms: C_21  and  N_29
REMARK    6  A    between atoms: C_24  and  C_27
REMARK    7  A    between atoms: C_27  and  O_28
REMARK    8  A    between atoms: N_29  and  C_30
REMARK    9  A    between atoms: C_30  and  C_31
REMARK   10  A    between atoms: C_31  and  N_60
REMARK   11  A    between atoms: C_32  and  N_60
REMARK   12  A    between atoms: C_33  and  N_60
REMARK                            x       y       z     vdW  Elec       q    Type
REMARK                         _______ _______ _______ _____ _____    ______ ____
ROOT
ATOM      1  C   UNL     1      -0.495   9.550  -0.485  0.00  0.00    +0.158 A 
ATOM      2  C   UNL     1       0.554  10.465  -0.512  0.00  0.00    +0.050 A 
ATOM      3  C   UNL     1       1.859  10.018  -0.435  0.00  0.00    +0.019 A 
ATOM      4  C   UNL     1       2.106   8.665  -0.332  0.00  0.00    +0.024 A 
ATOM      5  C   UNL     1       1.062   7.718  -0.301  0.00  0.00    +0.040 A 
ATOM      6  C   UNL     1      -0.257   8.197  -0.381  0.00  0.00    +0.061 A 
ATOM      7  C   UNL     1       1.310   6.286  -0.192  0.00  0.00    +0.197 A 
ATOM      8  O   UNL     1       0.315   5.582  -0.177  0.00  0.00    -0.287 OA
ATOM      9  C   UNL     1       2.575   5.580  -0.105  0.00  0.00    +0.057 A 
ATOM     10  C   UNL     1       2.591   4.170  -0.000  0.00  0.00    +0.039 A 
ATOM     11  C   UNL     1       3.798   3.500   0.089  0.00  0.00    +0.024 A 
ATOM     12  C   UNL     1       5.001   4.185   0.083  0.00  0.00    +0.009 A 
ATOM     13  C   UNL     1       5.011   5.566  -0.014  0.00  0.00    -0.008 A 
ATOM     14  C   UNL     1       3.817   6.249  -0.103  0.00  0.00    +0.031 A 
ATOM     15  S   UNL     1       3.756   8.019  -0.229  0.00  0.00    -0.088 S 
ENDROOT
BRANCH  10  16
ATOM     16  N   UNL     1       1.398   3.459   0.007  0.00  0.00    -0.345 N 
ATOM     17  H   UNL     1       0.552   3.932   0.049  0.00  0.00    +0.146 HD
BRANCH  16  18
ATOM     18  C   UNL     1       1.417   1.995  -0.047  0.00  0.00    +0.083 C 
BRANCH  18  19
ATOM     19  C   UNL     1      -0.018   1.466  -0.026  0.00  0.00    -0.061 C 
BRANCH  19  22
ATOM     20  C   UNL     1      -1.336  -0.556   0.175  0.00  0.00    -0.097 C 
ATOM     21  C   UNL     1       0.528  -0.474  -1.368  0.00  0.00    -0.097 C 
ATOM     22  N   UNL     1       0.018  -0.012  -0.060  0.00  0.00    +0.377 N 
ATOM     23  H   UNL     1       0.646  -0.347   0.680  0.00  0.00    -0.083 HD
ENDBRANCH  19  22
ENDBRANCH  18  19
ENDBRANCH  16  18
ENDBRANCH  10  16
BRANCH   1  24
ATOM     24  O   UNL     1      -1.776   9.999  -0.560  0.00  0.00    -0.342 OA
BRANCH  24  25
ATOM     25  S   UNL     1      -2.312  10.107  -1.981  0.00  0.00    +0.151 S 
ATOM     26  O   UNL     1      -3.562  10.777  -1.895  0.00  0.00    -0.131 OA
ATOM     27  O   UNL     1      -1.242  10.589  -2.783  0.00  0.00    -0.131 OA
BRANCH  25  32
ATOM     28  C   UNL     1      -3.490   4.500  -3.873  0.00  0.00    +0.044 C 
ATOM     29  C   UNL     1      -3.196   5.900  -3.401  0.00  0.00    -0.050 A 
ATOM     30  C   UNL     1      -4.176   6.632  -2.756  0.00  0.00    +0.005 A 
ATOM     31  C   UNL     1      -3.906   7.917  -2.323  0.00  0.00    +0.031 A 
ATOM     32  C   UNL     1      -2.656   8.469  -2.533  0.00  0.00    +0.128 A 
ATOM     33  C   UNL     1      -1.678   7.739  -3.182  0.00  0.00    +0.031 A 
ATOM     34  C   UNL     1      -1.946   6.452  -3.611  0.00  0.00    +0.005 A 
ENDBRANCH  25  32
ENDBRANCH  24  25
ENDBRANCH   1  24
BRANCH  13  35
ATOM     35  C   UNL     1       6.318   6.316  -0.021  0.00  0.00    +0.192 C 
BRANCH  35  36
ATOM     36  O   UNL     1       7.400   5.389   0.082  0.00  0.00    -0.390 OA
ATOM     37  H   UNL     1       8.274   5.803   0.084  0.00  0.00    +0.210 HD
ENDBRANCH  35  36
ENDBRANCH  13  35
TORSDOF 9
