REMARK  Name = ZINC58946348
REMARK  5 active torsions:
REMARK  status: ('A' for Active; 'I' for Inactive)
REMARK    1  A    between atoms: C_1  and  C_2
REMARK    2  A    between atoms: C_2  and  N_3
REMARK    3  A    between atoms: C_7  and  C_20
REMARK    4  A    between atoms: N_11  and  C_12
REMARK    5  A    between atoms: N_22  and  C_23
REMARK                            x       y       z     vdW  Elec       q    Type
REMARK                         _______ _______ _______ _____ _____    ______ ____
ROOT
ATOM      1  N   UNL     1       0.677  -0.465  -1.212  0.00  0.00    -0.251 N 
ATOM      2  C   UNL     1      -0.049  -0.679  -2.298  0.00  0.00    +0.223 C 
ATOM      3  O   UNL     1      -1.209  -0.332  -2.233  0.00  0.00    -0.275 OA
ATOM      4  C   UNL     1       0.370  -1.291  -3.591  0.00  0.00    +0.120 C 
ATOM      5  C   UNL     1       1.858  -1.086  -3.880  0.00  0.00    +0.149 C 
ATOM      6  S   UNL     1       2.795  -1.634  -2.415  0.00  0.00    -0.077 S 
ATOM      7  C   UNL     1       2.045  -0.655  -1.140  0.00  0.00    +0.164 C 
ATOM      8  N   UNL     1       2.757  -0.135  -0.168  0.00  0.00    -0.226 NA
ENDROOT
BRANCH   8   9
ATOM      9  C   UNL     1       4.110  -0.341  -0.124  0.00  0.00    +0.069 A 
ATOM     10  C   UNL     1       4.633  -1.615  -0.356  0.00  0.00    +0.048 A 
ATOM     11  C   UNL     1       5.998  -1.816  -0.311  0.00  0.00    +0.044 A 
ATOM     12  C   UNL     1       6.848  -0.758  -0.036  0.00  0.00    +0.040 A 
ATOM     13  C   UNL     1       6.336   0.507   0.195  0.00  0.00    +0.044 A 
ATOM     14  C   UNL     1       4.973   0.723   0.147  0.00  0.00    +0.048 A 
ATOM     15 CL   UNL     1       7.410   1.827   0.540  0.00  0.00    -0.083 Cl
ATOM     16 CL   UNL     1       6.650  -3.399  -0.600  0.00  0.00    -0.083 Cl
ENDBRANCH   8   9
BRANCH   5  17
ATOM     17  C   UNL     1       2.262  -1.903  -5.080  0.00  0.00    +0.231 C 
ATOM     18  O   UNL     1       1.688  -2.943  -5.326  0.00  0.00    -0.274 OA
ATOM     19  N   UNL     1       3.260  -1.479  -5.880  0.00  0.00    -0.284 N 
ATOM     20  H   UNL     1       3.673  -0.616  -5.722  0.00  0.00    +0.155 HD
BRANCH  19  21
ATOM     21  C   UNL     1       3.700  -2.283  -6.936  0.00  0.00    +0.036 A 
ATOM     22  C   UNL     1       5.044  -2.301  -7.284  0.00  0.00    +0.043 A 
ATOM     23  C   UNL     1       5.476  -3.097  -8.329  0.00  0.00    +0.044 A 
ATOM     24  C   UNL     1       4.570  -3.876  -9.027  0.00  0.00    +0.040 A 
ATOM     25  C   UNL     1       3.230  -3.860  -8.683  0.00  0.00    +0.044 A 
ATOM     26  C   UNL     1       2.794  -3.070  -7.636  0.00  0.00    +0.043 A 
ATOM     27 CL   UNL     1       2.097  -4.838  -9.562  0.00  0.00    -0.083 Cl
ATOM     28 CL   UNL     1       7.156  -3.119  -8.765  0.00  0.00    -0.083 Cl
ENDBRANCH  19  21
ENDBRANCH   5  17
BRANCH   1  30
ATOM     29  C   UNL     1      -0.041   1.541  -0.010  0.00  0.00    +0.025 C 
ATOM     30  C   UNL     1      -0.012   0.011  -0.010  0.00  0.00    +0.112 C 
ENDBRANCH   1  30
TORSDOF 4
