REMARK  Name = ZINC12845502
REMARK  8 active torsions:
REMARK  status: ('A' for Active; 'I' for Inactive)
REMARK    1  A    between atoms: C_1  and  C_2
REMARK    2  A    between atoms: C_10  and  C_16
REMARK    3  A    between atoms: N_18  and  C_19
REMARK    4  A    between atoms: C_19  and  C_20
REMARK    5  A    between atoms: C_25  and  S_26
REMARK    6  A    between atoms: S_26  and  N_29
REMARK    7  A    between atoms: N_29  and  C_30
REMARK    8  A    between atoms: N_29  and  C_31
REMARK                            x       y       z     vdW  Elec       q    Type
REMARK                         _______ _______ _______ _____ _____    ______ ____
ROOT
ATOM      1  C   UNL     1      -3.736   2.709   0.224  0.00  0.00    +0.244 C 
ATOM      2  O   UNL     1      -3.996   3.883   0.400  0.00  0.00    -0.270 OA
ATOM      3  N   UNL     1      -4.731   1.817   0.048  0.00  0.00    -0.307 N 
ATOM      4  H   UNL     1      -4.527   0.872  -0.030  0.00  0.00    +0.149 HD
ENDROOT
BRANCH   1  13
ATOM      5  C   UNL     1       3.432   6.575   0.710  0.00  0.00    +0.008 C 
ATOM      6  C   UNL     1       3.050   5.100   0.848  0.00  0.00    -0.009 C 
ATOM      7  C   UNL     1       3.960   4.250  -0.043  0.00  0.00    +0.009 C 
ATOM      8  C   UNL     1       3.749   2.766   0.277  0.00  0.00    +0.054 C 
ATOM      9  C   UNL     1       2.266   2.475   0.249  0.00  0.00    +0.020 A 
ATOM     10  C   UNL     1       1.318   3.428   0.308  0.00  0.00    -0.019 A 
ATOM     11  C   UNL     1       0.022   2.757   0.254  0.00  0.00    +0.004 A 
ATOM     12  C   UNL     1      -1.301   3.192   0.279  0.00  0.00    +0.023 A 
ATOM     13  C   UNL     1      -2.330   2.259   0.204  0.00  0.00    +0.037 A 
ATOM     14  C   UNL     1      -2.033   0.892   0.115  0.00  0.00    +0.015 A 
ATOM     15  C   UNL     1      -0.740   0.462   0.095  0.00  0.00    +0.027 A 
ATOM     16  C   UNL     1       0.307   1.379   0.163  0.00  0.00    +0.047 A 
ATOM     17  N   UNL     1       1.676   1.245   0.162  0.00  0.00    -0.358 N 
ATOM     18  H   UNL     1       2.152   0.402   0.108  0.00  0.00    +0.166 HD
ATOM     19  C   UNL     1       1.591   4.906   0.414  0.00  0.00    +0.040 C 
ENDBRANCH   1  13
BRANCH   3  20
ATOM     20  C   UNL     1      -6.121   2.275  -0.025  0.00  0.00    +0.141 C 
BRANCH  20  21
ATOM     21  C   UNL     1      -7.038   1.084  -0.128  0.00  0.00    -0.004 A 
ATOM     22  C   UNL     1      -7.534   0.698  -1.359  0.00  0.00    +0.007 A 
ATOM     23  C   UNL     1      -8.376  -0.395  -1.454  0.00  0.00    +0.000 A 
ATOM     24  C   UNL     1      -8.720  -1.102  -0.317  0.00  0.00    +0.002 A 
ATOM     25  C   UNL     1      -8.223  -0.717   0.913  0.00  0.00    +0.029 A 
ATOM     26  C   UNL     1      -7.378   0.373   1.008  0.00  0.00    +0.110 A 
BRANCH  26  27
ATOM     27  S   UNL     1      -6.740   0.861   2.576  0.00  0.00    +0.061 S 
ATOM     28  O   UNL     1      -5.330   0.959   2.428  0.00  0.00    -0.153 OA
ATOM     29  O   UNL     1      -7.537   1.951   3.018  0.00  0.00    -0.153 OA
BRANCH  27  30
ATOM     30  N   UNL     1      -7.020  -0.388   3.628  0.00  0.00    -0.183 NA
ATOM     31  C   UNL     1      -6.058  -1.488   3.731  0.00  0.00    +0.131 C 
ATOM     32  C   UNL     1      -8.229  -0.391   4.455  0.00  0.00    +0.131 C 
ENDBRANCH  27  30
ENDBRANCH  26  27
ENDBRANCH  20  21
ENDBRANCH   3  20
TORSDOF 5
