REMARK  Name = ZINC39546120
REMARK  9 active torsions:
REMARK  status: ('A' for Active; 'I' for Inactive)
REMARK    1  A    between atoms: C_1  and  C_2
REMARK    2  A    between atoms: C_2  and  O_3
REMARK    3  A    between atoms: O_3  and  C_4
REMARK    4  A    between atoms: N_6  and  C_7
REMARK    5  A    between atoms: C_21  and  C_23
REMARK    6  A    between atoms: C_23  and  C_24
REMARK    7  A    between atoms: C_24  and  N_25
REMARK    8  A    between atoms: N_25  and  C_26
REMARK    9  A    between atoms: N_25  and  C_27
REMARK                            x       y       z     vdW  Elec       q    Type
REMARK                         _______ _______ _______ _____ _____    ______ ____
ROOT
ATOM      1  C   UNL     1       2.095  -3.919  -2.131  0.00  0.00    +0.038 A 
ATOM      2  C   UNL     1       2.148  -4.727  -1.004  0.00  0.00    +0.024 A 
ATOM      3  C   UNL     1       2.751  -5.968  -1.075  0.00  0.00    +0.019 A 
ATOM      4  C   UNL     1       3.306  -6.409  -2.269  0.00  0.00    +0.035 A 
ATOM      5  C   UNL     1       3.260  -5.602  -3.402  0.00  0.00    +0.057 A 
ATOM      6  C   UNL     1       2.644  -4.357  -3.327  0.00  0.00    +0.048 A 
ATOM      7  N   UNL     1       3.817  -6.003  -4.615  0.00  0.00    -0.238 N 
ATOM      8  C   UNL     1       4.025  -7.328  -4.996  0.00  0.00    +0.055 A 
ATOM      9  C   UNL     1       4.097  -7.634  -6.351  0.00  0.00    +0.025 A 
ATOM     10  C   UNL     1       4.307  -8.936  -6.763  0.00  0.00    +0.002 A 
ATOM     11  C   UNL     1       4.449  -9.947  -5.830  0.00  0.00    +0.001 A 
ATOM     12  C   UNL     1       4.377  -9.655  -4.481  0.00  0.00    +0.017 A 
ATOM     13  C   UNL     1       4.164  -8.349  -4.060  0.00  0.00    +0.035 A 
ATOM     14  S   UNL     1       4.065  -7.997  -2.337  0.00  0.00    -0.086 S 
ATOM     15  C   UNL     1       4.181  -5.040  -5.484  0.00  0.00    +0.222 C 
ATOM     16  O   UNL     1       3.898  -3.882  -5.259  0.00  0.00    -0.275 OA
ENDROOT
BRANCH   1  19
ATOM     17  C   UNL     1       1.581  -1.923  -0.939  0.00  0.00    +0.405 C 
ATOM     18  O   UNL     1       2.129  -2.383   0.043  0.00  0.00    -0.226 OA
ATOM     19  N   UNL     1       1.482  -2.661  -2.063  0.00  0.00    -0.251 N 
ATOM     20  H   UNL     1       0.986  -2.321  -2.824  0.00  0.00    +0.158 HD
BRANCH  17  21
ATOM     21  O   UNL     1       1.072  -0.677  -0.904  0.00  0.00    -0.450 OA
BRANCH  21  23
ATOM     22  C   UNL     1       0.579   1.432   0.168  0.00  0.00    +0.048 C 
ATOM     23  C   UNL     1       1.212   0.047   0.320  0.00  0.00    +0.230 C 
ENDBRANCH  21  23
ENDBRANCH  17  21
ENDBRANCH   1  19
BRANCH  15  24
ATOM     24  C   UNL     1       4.939  -5.401  -6.736  0.00  0.00    +0.078 C 
BRANCH  24  25
ATOM     25  C   UNL     1       5.755  -4.194  -7.204  0.00  0.00    -0.069 C 
BRANCH  25  26
ATOM     26  N   UNL     1       6.494  -4.546  -8.424  0.00  0.00    +0.382 N 
ATOM     27  C   UNL     1       7.482  -5.588  -8.114  0.00  0.00    -0.095 C 
ATOM     28  H   UNL     1       5.849  -4.890  -9.120  0.00  0.00    -0.081 HD
BRANCH  26  29
ATOM     29  C   UNL     1       7.183  -3.356  -8.940  0.00  0.00    -0.065 C 
ATOM     30  C   UNL     1       6.154  -2.271  -9.262  0.00  0.00    -0.009 C 
ATOM     31  C   UNL     1       6.871  -1.031  -9.799  0.00  0.00    -0.012 C 
ATOM     32  C   UNL     1       7.640  -1.397 -11.070  0.00  0.00    +0.007 C 
ATOM     33  C   UNL     1       8.669  -2.483 -10.748  0.00  0.00    -0.012 C 
ATOM     34  C   UNL     1       7.952  -3.723 -10.210  0.00  0.00    -0.009 C 
ATOM     35  C   UNL     1       9.647  -1.962  -9.692  0.00  0.00    +0.007 C 
ATOM     36  C   UNL     1       8.878  -1.595  -8.422  0.00  0.00    -0.012 C 
ATOM     37  C   UNL     1       7.848  -0.510  -8.744  0.00  0.00    +0.007 C 
ATOM     38  C   UNL     1       8.160  -2.835  -7.884  0.00  0.00    -0.009 C 
ENDBRANCH  26  29
ENDBRANCH  25  26
ENDBRANCH  24  25
ENDBRANCH  15  24
TORSDOF 7
