REMARK  Name = ZINC01244453
REMARK  2 active torsions:
REMARK  status: ('A' for Active; 'I' for Inactive)
REMARK    1  A    between atoms: C_7  and  O_27
REMARK    2  A    between atoms: C_12  and  N_21
REMARK                            x       y       z     vdW  Elec       q    Type
REMARK                         _______ _______ _______ _____ _____    ______ ____
ROOT
ATOM      1  C   UNL     1      -0.298  -2.829  -0.155  0.00  0.00    +0.001 A 
ATOM      2  C   UNL     1       0.169  -1.516  -0.148  0.00  0.00    +0.001 A 
ATOM      3  C   UNL     1       1.504  -1.248  -0.129  0.00  0.00    +0.012 A 
ATOM      4  C   UNL     1       2.425  -2.308  -0.117  0.00  0.00    +0.027 A 
ATOM      5  C   UNL     1       1.950  -3.641  -0.121  0.00  0.00    +0.027 A 
ATOM      6  C   UNL     1       0.566  -3.880  -0.141  0.00  0.00    +0.012 A 
ATOM      7  C   UNL     1       2.873  -4.707  -0.108  0.00  0.00    +0.125 A 
ATOM      8  C   UNL     1       4.211  -4.435  -0.096  0.00  0.00    +0.053 A 
ATOM      9  C   UNL     1       4.679  -3.128  -0.095  0.00  0.00    +0.004 A 
ATOM     10  C   UNL     1       3.816  -2.059  -0.103  0.00  0.00    +0.131 A 
ATOM     11  O   UNL     1       4.492  -0.869  -0.095  0.00  0.00    -0.492 OA
ATOM     12  C   UNL     1       5.814  -1.118  -0.590  0.00  0.00    +0.166 C 
ATOM     13  C   UNL     1       6.074  -2.546  -0.089  0.00  0.00    +0.058 C 
ATOM     14  C   UNL     1       7.046  -3.293  -0.956  0.00  0.00    +0.012 C 
ATOM     15  C   UNL     1       8.453  -2.699  -0.888  0.00  0.00    +0.019 C 
ATOM     16  C   UNL     1       8.463  -1.288  -1.479  0.00  0.00    +0.104 C 
ATOM     17  N   UNL     1       8.108  -0.307  -0.446  0.00  0.00    -0.314 N 
ATOM     18  C   UNL     1       6.841  -0.186  -0.022  0.00  0.00    +0.240 C 
ATOM     19  O   UNL     1       6.535   0.653   0.798  0.00  0.00    -0.274 OA
ATOM     20  H   UNL     1       8.797   0.260  -0.066  0.00  0.00    +0.149 HD
ENDROOT
BRANCH  12  21
ATOM     21  N   UNL     1       5.830  -1.062  -2.058  0.00  0.00    +0.412 N 
ATOM     22  C   UNL     1       6.207   0.289  -2.490  0.00  0.00    -0.072 C 
ATOM     23  C   UNL     1       6.304   0.333  -4.016  0.00  0.00    -0.018 C 
ATOM     24  C   UNL     1       4.946  -0.037  -4.620  0.00  0.00    -0.004 C 
ATOM     25  C   UNL     1       4.528  -1.417  -4.103  0.00  0.00    -0.018 C 
ATOM     26  C   UNL     1       4.497  -1.395  -2.574  0.00  0.00    -0.072 C 
ATOM     27  H   UNL     1       6.502  -1.726  -2.412  0.00  0.00    -0.075 HD
ENDBRANCH  12  21
BRANCH   7  28
ATOM     28  O   UNL     1       2.434  -5.994  -0.105  0.00  0.00    -0.506 OA
ATOM     29  H   UNL     1       2.315  -6.370  -0.988  0.00  0.00    +0.292 HD
ENDBRANCH   7  28
TORSDOF 2
