REMARK  Name = ZINC38049941
REMARK  4 active torsions:
REMARK  status: ('A' for Active; 'I' for Inactive)
REMARK    1  A    between atoms: C_2  and  S_8
REMARK    2  A    between atoms: S_8  and  N_11
REMARK    3  A    between atoms: N_11  and  C_12
REMARK    4  A    between atoms: C_18  and  N_20
REMARK                            x       y       z     vdW  Elec       q    Type
REMARK                         _______ _______ _______ _____ _____    ______ ____
ROOT
ATOM      1  N   UNL     1       1.769   4.275   1.494  0.00  0.00    -0.188 NA
ATOM      2  H   UNL     1       1.147   4.612   2.158  0.00  0.00    +0.148 HD
ENDROOT
BRANCH   1   3
ATOM      3  C   UNL     1       3.173   4.057   1.850  0.00  0.00    +0.062 C 
ATOM      4  C   UNL     1       3.324   2.688   2.516  0.00  0.00    +0.019 C 
ATOM      5  C   UNL     1       4.790   2.460   2.888  0.00  0.00    +0.001 C 
ATOM      6  C   UNL     1       5.246   3.552   3.858  0.00  0.00    -0.001 C 
ATOM      7  C   UNL     1       5.096   4.921   3.192  0.00  0.00    -0.015 C 
ATOM      8  C   UNL     1       3.629   5.149   2.820  0.00  0.00    -0.056 C 
BRANCH   8   9
ATOM      9  N   UNL     1       3.485   6.463   2.181  0.00  0.00    +0.381 N 
ATOM     10  H   UNL     1       2.518   6.614   1.936  0.00  0.00    -0.090 HD
ATOM     11  H   UNL     1       3.785   7.184   2.821  0.00  0.00    -0.090 HD
ATOM     12  H   UNL     1       4.052   6.496   1.347  0.00  0.00    -0.090 HD
ENDBRANCH   8   9
ENDBRANCH   1   3
BRANCH   1  13
ATOM     13  S   UNL     1       1.244   3.946  -0.041  0.00  0.00    +0.061 S 
ATOM     14  O   UNL     1       2.170   4.559  -0.928  0.00  0.00    -0.153 OA
ATOM     15  O   UNL     1      -0.146   4.243  -0.067  0.00  0.00    -0.153 OA
BRANCH  13  17
ATOM     16  C   UNL     1       2.269   1.701  -1.224  0.00  0.00    +0.057 A 
ATOM     17  C   UNL     1       1.392   2.207  -0.282  0.00  0.00    +0.132 A 
ATOM     18  C   UNL     1       0.649   1.345   0.454  0.00  0.00    +0.106 A 
ATOM     19  S   UNL     1       1.182  -0.237  -0.179  0.00  0.00    -0.063 S 
ATOM     20  C   UNL     1       2.359   0.357  -1.382  0.00  0.00    +0.081 A 
ATOM     21 CL   UNL     1       3.359  -0.550  -2.474  0.00  0.00    -0.076 Cl
ATOM     22 CL   UNL     1      -0.519   1.689   1.692  0.00  0.00    -0.074 Cl
ENDBRANCH  13  17
ENDBRANCH   1  13
TORSDOF 4
