REMARK  Name = ZINC12706160
REMARK  12 active torsions:
REMARK  status: ('A' for Active; 'I' for Inactive)
REMARK    1  A    between atoms: C_1  and  C_2
REMARK    2  A    between atoms: C_5  and  C_8
REMARK    3  A    between atoms: C_8  and  C_10
REMARK    4  A    between atoms: C_8  and  N_20
REMARK    5  A    between atoms: N_12  and  C_13
REMARK    6  A    between atoms: C_13  and  C_14
REMARK    7  A    between atoms: N_20  and  C_21
REMARK    8  A    between atoms: C_25  and  C_28
REMARK    9  A    between atoms: C_26  and  C_27
REMARK   10  A    between atoms: C_29  and  C_31
REMARK   11  A    between atoms: C_32  and  N_39
REMARK   12  A    between atoms: C_33  and  C_36
REMARK                            x       y       z     vdW  Elec       q    Type
REMARK                         _______ _______ _______ _____ _____    ______ ____
ROOT
ATOM      1  N   UNL     1      -1.836  -1.213   0.095  0.00  0.00    -0.251 N 
ATOM      2  C   UNL     1      -2.740  -0.689  -0.756  0.00  0.00    +0.262 C 
ATOM      3  O   UNL     1      -3.644   0.007  -0.331  0.00  0.00    -0.269 OA
ENDROOT
BRANCH   1   4
ATOM      4  C   UNL     1      -0.797  -2.012  -0.394  0.00  0.00    +0.041 A 
ATOM      5  C   UNL     1       0.411  -1.434  -0.762  0.00  0.00    +0.024 A 
ATOM      6  C   UNL     1       1.435  -2.226  -1.245  0.00  0.00    +0.002 A 
ATOM      7  C   UNL     1       1.257  -3.593  -1.361  0.00  0.00    +0.004 A 
ATOM      8  C   UNL     1       0.056  -4.171  -0.995  0.00  0.00    -0.046 A 
ATOM      9  C   UNL     1      -0.972  -3.384  -0.511  0.00  0.00    -0.026 A 
ATOM     10  C   UNL     1      -2.281  -4.015  -0.113  0.00  0.00    +0.046 C 
ATOM     11  C   UNL     1      -0.132  -5.660  -1.122  0.00  0.00    +0.044 C 
ENDBRANCH   1   4
BRANCH   2  12
ATOM     12  C   UNL     1      -2.635  -0.956  -2.191  0.00  0.00    +0.116 A 
ATOM     13  C   UNL     1      -3.454  -0.520  -3.235  0.00  0.00    +0.076 A 
ATOM     14  C   UNL     1      -3.028  -0.987  -4.479  0.00  0.00    +0.155 A 
ATOM     15  N   UNL     1      -1.960  -1.750  -4.548  0.00  0.00    -0.203 NA
ATOM     16  S   UNL     1      -1.426  -1.920  -3.075  0.00  0.00    +0.019 S 
BRANCH  14  17
ATOM     17  C   UNL     1      -3.769  -0.629  -5.702  0.00  0.00    +0.262 C 
ATOM     18  O   UNL     1      -4.756   0.078  -5.631  0.00  0.00    -0.269 OA
ATOM     19  N   UNL     1      -3.352  -1.084  -6.900  0.00  0.00    -0.324 N 
ATOM     20  H   UNL     1      -2.564  -1.648  -6.957  0.00  0.00    +0.145 HD
ATOM     21  H   UNL     1      -3.839  -0.849  -7.705  0.00  0.00    +0.145 HD
ENDBRANCH  14  17
BRANCH  13  22
ATOM     22  N   UNL     1      -4.567   0.291  -3.055  0.00  0.00    -0.355 N 
ATOM     23  H   UNL     1      -4.814   0.585  -2.164  0.00  0.00    +0.142 HD
ATOM     24  H   UNL     1      -5.098   0.562  -3.820  0.00  0.00    +0.142 HD
ENDBRANCH  13  22
ENDBRANCH   2  12
BRANCH   1  25
ATOM     25  C   UNL     1      -1.940  -0.945   1.531  0.00  0.00    +0.197 C 
BRANCH  25  30
ATOM     26  C   UNL     1      -0.925   4.656   2.525  0.00  0.00    +0.044 C 
ATOM     27  C   UNL     1      -1.189   3.195   2.267  0.00  0.00    -0.050 A 
ATOM     28  C   UNL     1      -2.305   2.588   2.811  0.00  0.00    +0.004 A 
ATOM     29  C   UNL     1      -2.548   1.248   2.573  0.00  0.00    +0.006 A 
ATOM     30  C   UNL     1      -1.675   0.516   1.791  0.00  0.00    -0.018 A 
ATOM     31  C   UNL     1      -0.556   1.122   1.251  0.00  0.00    +0.006 A 
ATOM     32  C   UNL     1      -0.316   2.463   1.485  0.00  0.00    +0.004 A 
ENDBRANCH  25  30
BRANCH  25  33
ATOM     33  C   UNL     1      -0.927  -1.779   2.273  0.00  0.00    +0.239 C 
ATOM     34  O   UNL     1       0.210  -1.860   1.860  0.00  0.00    -0.273 OA
ATOM     35  N   UNL     1      -1.285  -2.433   3.395  0.00  0.00    -0.311 N 
ATOM     36  H   UNL     1      -2.195  -2.368   3.726  0.00  0.00    +0.149 HD
BRANCH  35  37
ATOM     37  C   UNL     1      -0.300  -3.244   4.116  0.00  0.00    +0.135 C 
BRANCH  37  38
ATOM     38  C   UNL     1      -0.960  -3.875   5.344  0.00  0.00    +0.135 C 
ATOM     39  C   UNL     1       0.068  -4.730   6.110  0.00  0.00    +0.035 C 
ATOM     40  C   UNL     1       0.101  -4.106   7.526  0.00  0.00    +0.031 C 
ATOM     41  C   UNL     1      -1.253  -3.354   7.582  0.00  0.00    +0.160 C 
ATOM     42  O   UNL     1      -1.411  -2.845   6.240  0.00  0.00    -0.375 OA
ENDBRANCH  37  38
ENDBRANCH  35  37
ENDBRANCH  25  33
ENDBRANCH   1  25
TORSDOF 9
