REMARK  Name = ZINC05211036
REMARK  7 active torsions:
REMARK  status: ('A' for Active; 'I' for Inactive)
REMARK    1  A    between atoms: C_1  and  C_2
REMARK    2  A    between atoms: C_5  and  C_8
REMARK    3  A    between atoms: C_12  and  S_14
REMARK    4  A    between atoms: S_14  and  C_15
REMARK    5  A    between atoms: C_15  and  C_17
REMARK    6  A    between atoms: C_15  and  C_18
REMARK    7  A    between atoms: N_20  and  C_21
REMARK                            x       y       z     vdW  Elec       q    Type
REMARK                         _______ _______ _______ _____ _____    ______ ____
ROOT
ATOM      1  S   UNL     1       0.104  -7.701   1.777  0.00  0.00    -0.074 S 
ENDROOT
BRANCH   1   6
ATOM      2  C   UNL     1       0.085  -4.264  -0.029  0.00  0.00    +0.182 A 
ATOM      3  N   UNL     1       0.090  -5.024  -1.100  0.00  0.00    -0.152 NA
ATOM      4  H   UNL     1       0.103  -7.152  -1.210  0.00  0.00    +0.191 HD
ATOM      5  N   UNL     1       0.098  -6.356  -0.656  0.00  0.00    -0.253 N 
ATOM      6  C   UNL     1       0.097  -6.311   0.695  0.00  0.00    +0.185 A 
ATOM      7  N   UNL     1       0.095  -5.047   1.059  0.00  0.00    -0.201 NA
BRANCH   2  12
ATOM      8  C   UNL     1       0.050   1.496  -0.009  0.00  0.00    +0.044 C 
ATOM      9  C   UNL     1       0.059  -0.011  -0.014  0.00  0.00    -0.050 A 
ATOM     10  C   UNL     1       0.059  -0.696  -1.216  0.00  0.00    +0.004 A 
ATOM     11  C   UNL     1       0.067  -2.076  -1.226  0.00  0.00    +0.012 A 
ATOM     12  C   UNL     1       0.077  -2.780  -0.024  0.00  0.00    +0.021 A 
ATOM     13  C   UNL     1       0.078  -2.085   1.184  0.00  0.00    +0.012 A 
ATOM     14  C   UNL     1       0.075  -0.705   1.183  0.00  0.00    +0.004 A 
ENDBRANCH   2  12
ENDBRANCH   1   6
BRANCH   1  15
ATOM     15  C   UNL     1       0.099  -6.965   3.436  0.00  0.00    +0.137 C 
ATOM     16  C   UNL     1      -1.213  -6.209   3.654  0.00  0.00    +0.029 C 
BRANCH  15  17
ATOM     17  C   UNL     1       0.228  -8.055   4.468  0.00  0.00    +0.230 C 
ATOM     18  O   UNL     1      -0.044  -9.201   4.179  0.00  0.00    -0.274 OA
ATOM     19  N   UNL     1       0.647  -7.756   5.714  0.00  0.00    -0.285 N 
ATOM     20  H   UNL     1       0.929  -6.853   5.928  0.00  0.00    +0.155 HD
BRANCH  19  21
ATOM     21  C   UNL     1       0.675  -8.750   6.700  0.00  0.00    +0.034 A 
ATOM     22  C   UNL     1       0.377  -8.430   8.018  0.00  0.00    +0.026 A 
ATOM     23  C   UNL     1       0.406  -9.411   8.990  0.00  0.00    +0.040 A 
ATOM     24  C   UNL     1       0.731 -10.714   8.650  0.00  0.00    +0.124 A 
ATOM     25  C   UNL     1       1.029 -11.035   7.336  0.00  0.00    +0.040 A 
ATOM     26  C   UNL     1       0.995 -10.058   6.361  0.00  0.00    +0.026 A 
ATOM     27  F   UNL     1       0.759 -11.672   9.602  0.00  0.00    -0.205 F 
ENDBRANCH  19  21
ENDBRANCH  15  17
ENDBRANCH   1  15
TORSDOF 5
