REMARK  Name = ZINC01211197
REMARK  7 active torsions:
REMARK  status: ('A' for Active; 'I' for Inactive)
REMARK    1  A    between atoms: C_1  and  C_2
REMARK    2  A    between atoms: C_2  and  C_3
REMARK    3  A    between atoms: C_15  and  C_17
REMARK    4  A    between atoms: C_21  and  N_23
REMARK    5  A    between atoms: C_29  and  C_32
REMARK    6  A    between atoms: C_35  and  O_38
REMARK    7  A    between atoms: O_38  and  C_39
REMARK                            x       y       z     vdW  Elec       q    Type
REMARK                         _______ _______ _______ _____ _____    ______ ____
ROOT
ATOM      1  C   UNL     1       0.729   6.651  -1.837  0.00  0.00    +0.220 C 
ATOM      2  O   UNL     1      -0.417   6.985  -2.053  0.00  0.00    -0.275 OA
ATOM      3  N   UNL     1       1.007   5.826  -0.807  0.00  0.00    -0.258 N 
ATOM      4  C   UNL     1       2.329   5.449  -0.569  0.00  0.00    +0.058 A 
ATOM      5  C   UNL     1       3.038   4.679  -1.477  0.00  0.00    +0.025 A 
ATOM      6  C   UNL     1       4.332   4.291  -1.176  0.00  0.00    +0.002 A 
ATOM      7  C   UNL     1       4.915   4.665   0.022  0.00  0.00    +0.002 A 
ATOM      8  C   UNL     1       4.215   5.449   0.924  0.00  0.00    +0.025 A 
ATOM      9  C   UNL     1       2.928   5.855   0.614  0.00  0.00    +0.053 A 
ATOM     10  N   UNL     1       2.212   6.728   1.424  0.00  0.00    -0.316 N 
ATOM     11  C   UNL     1       1.045   6.424   2.047  0.00  0.00    +0.017 C 
ATOM     12  C   UNL     1       0.002   5.818   1.465  0.00  0.00    +0.037 C 
ATOM     13  C   UNL     1      -0.070   5.347   0.032  0.00  0.00    +0.147 C 
ATOM     14  C   UNL     1      -1.183   5.570   2.204  0.00  0.00    +0.163 C 
ATOM     15  O   UNL     1      -2.111   5.008   1.655  0.00  0.00    -0.292 OA
ATOM     16  C   UNL     1      -1.332   5.975   3.640  0.00  0.00    +0.088 C 
ATOM     17  C   UNL     1      -0.438   7.194   3.900  0.00  0.00    +0.032 C 
ATOM     18  C   UNL     1       0.990   6.812   3.516  0.00  0.00    +0.059 C 
ATOM     19  H   UNL     1       2.572   7.619   1.553  0.00  0.00    +0.152 HD
ENDROOT
BRANCH  13  20
ATOM     20  C   UNL     1      -0.050   3.840   0.023  0.00  0.00    -0.020 A 
ATOM     21  C   UNL     1       1.075   3.161   0.453  0.00  0.00    +0.006 A 
ATOM     22  C   UNL     1       1.093   1.780   0.446  0.00  0.00    +0.003 A 
ATOM     23  C   UNL     1      -0.013   1.076   0.008  0.00  0.00    +0.033 A 
ATOM     24  C   UNL     1      -1.136   1.754  -0.427  0.00  0.00    +0.127 A 
ATOM     25  C   UNL     1      -1.156   3.137  -0.416  0.00  0.00    +0.038 A 
BRANCH  24  26
ATOM     26  N   UNL     1      -2.319   1.001  -0.902  0.00  0.00    +0.056 N 
ATOM     27  O   UNL     1      -2.303  -0.217  -0.908  0.00  0.00    -0.126 OA
ATOM     28  O   UNL     1      -3.308   1.599  -1.285  0.00  0.00    -0.126 OA
ENDBRANCH  24  26
ENDBRANCH  13  20
BRANCH  17  29
ATOM     29  C   UNL     1      -0.493   7.567   5.359  0.00  0.00    -0.043 A 
ATOM     30  C   UNL     1      -0.133   6.642   6.322  0.00  0.00    +0.007 A 
ATOM     31  C   UNL     1      -0.177   6.983   7.659  0.00  0.00    +0.046 A 
ATOM     32  C   UNL     1      -0.593   8.252   8.037  0.00  0.00    +0.120 A 
ATOM     33  C   UNL     1      -0.958   9.176   7.069  0.00  0.00    +0.046 A 
ATOM     34  C   UNL     1      -0.908   8.832   5.732  0.00  0.00    +0.007 A 
BRANCH  32  35
ATOM     35  O   UNL     1      -0.641   8.588   9.353  0.00  0.00    -0.495 OA
ATOM     36  C   UNL     1      -0.250   7.587  10.294  0.00  0.00    +0.277 C 
ENDBRANCH  32  35
ENDBRANCH  17  29
BRANCH   1  38
ATOM     37  C   UNL     1       1.259   8.067  -3.802  0.00  0.00    +0.013 C 
ATOM     38  C   UNL     1       1.841   7.157  -2.719  0.00  0.00    +0.093 C 
ENDBRANCH   1  38
TORSDOF 5
