REMARK  Name = ZINC00647518
REMARK  4 active torsions:
REMARK  status: ('A' for Active; 'I' for Inactive)
REMARK    1  A    between atoms: C_6  and  C_7
REMARK    2  A    between atoms: C_10  and  C_27
REMARK    3  A    between atoms: C_15  and  C_17
REMARK    4  A    between atoms: N_19  and  C_20
REMARK                            x       y       z     vdW  Elec       q    Type
REMARK                         _______ _______ _______ _____ _____    ______ ____
ROOT
ATOM      1  C   UNL     1      -1.293  -0.775   0.010  0.00  0.00    +0.104 C 
ATOM      2  C   UNL     1      -1.616  -1.254  -1.409  0.00  0.00    +0.063 C 
ATOM      3  C   UNL     1      -0.455  -2.095  -1.953  0.00  0.00    +0.215 C 
ATOM      4  N   UNL     1      -0.099  -3.111  -0.960  0.00  0.00    -0.238 N 
ATOM      5  C   UNL     1      -0.439  -3.032   0.361  0.00  0.00    +0.119 A 
ATOM      6  C   UNL     1       0.040  -4.126   0.985  0.00  0.00    +0.078 A 
ATOM      7  C   UNL     1       0.704  -4.913   0.016  0.00  0.00    +0.149 A 
ATOM      8  N   UNL     1       0.615  -4.294  -1.148  0.00  0.00    -0.164 NA
ATOM      9  N   UNL     1      -1.162  -1.954   0.889  0.00  0.00    -0.322 N 
ATOM     10  H   UNL     1      -1.556  -1.979   1.776  0.00  0.00    +0.148 HD
ENDROOT
BRANCH   1  16
ATOM     11  C   UNL     1      -0.017   1.378   0.010  0.00  0.00    +0.006 A 
ATOM     12  C   UNL     1       1.171   2.086   0.002  0.00  0.00    +0.015 A 
ATOM     13  C   UNL     1       2.378   1.411  -0.013  0.00  0.00    +0.018 A 
ATOM     14  C   UNL     1       2.396   0.027  -0.021  0.00  0.00    +0.015 A 
ATOM     15  C   UNL     1       1.208  -0.679  -0.013  0.00  0.00    +0.006 A 
ATOM     16  C   UNL     1       0.002  -0.004   0.002  0.00  0.00    -0.027 A 
ATOM     17 BR   UNL     1       4.003   2.378  -0.024  0.00  0.00    -0.050 Br
ENDBRANCH   1  16
BRANCH   7  18
ATOM     18  C   UNL     1       1.380  -6.204   0.262  0.00  0.00    +0.264 C 
ATOM     19  O   UNL     1       1.396  -6.677   1.381  0.00  0.00    -0.268 OA
ATOM     20  N   UNL     1       1.978  -6.856  -0.755  0.00  0.00    -0.307 N 
ATOM     21  H   UNL     1       1.964  -6.478  -1.648  0.00  0.00    +0.149 HD
BRANCH  20  22
ATOM     22  C   UNL     1       2.648  -8.135  -0.510  0.00  0.00    +0.073 C 
ATOM     23  C   UNL     1       4.077  -7.879  -0.028  0.00  0.00    +0.022 C 
ATOM     24  C   UNL     1       4.777  -9.215   0.227  0.00  0.00    +0.002 C 
ATOM     25  C   UNL     1       4.814 -10.027  -1.069  0.00  0.00    +0.000 C 
ATOM     26  C   UNL     1       3.385 -10.283  -1.552  0.00  0.00    +0.002 C 
ATOM     27  C   UNL     1       2.685  -8.947  -1.807  0.00  0.00    +0.022 C 
ENDBRANCH  20  22
ENDBRANCH   7  18
BRANCH   3  28
ATOM     28  C   UNL     1      -0.881  -2.775  -3.256  0.00  0.00    +0.412 C 
ATOM     29  F   UNL     1      -1.232  -1.801  -4.197  0.00  0.00    -0.168 F 
ATOM     30  F   UNL     1       0.180  -3.541  -3.751  0.00  0.00    -0.168 F 
ATOM     31  F   UNL     1      -1.981  -3.604  -3.011  0.00  0.00    -0.168 F 
ENDBRANCH   3  28
TORSDOF 4
