REMARK  Name = ZINC40779698
REMARK  3 active torsions:
REMARK  status: ('A' for Active; 'I' for Inactive)
REMARK    1  A    between atoms: C_4  and  N_7
REMARK    2  A    between atoms: C_9  and  N_22
REMARK    3  A    between atoms: C_10  and  N_14
REMARK                            x       y       z     vdW  Elec       q    Type
REMARK                         _______ _______ _______ _____ _____    ______ ____
ROOT
ATOM      1  N   UNL     1       3.623  -0.650  -0.058  0.00  0.00    -0.298 N 
ATOM      2  C   UNL     1       3.646  -2.036   0.043  0.00  0.00    +0.149 A 
ATOM      3  C   UNL     1       4.860  -2.720   0.146  0.00  0.00    +0.106 A 
ATOM      4  C   UNL     1       4.826  -4.112   0.246  0.00  0.00    +0.150 A 
ATOM      5  N   UNL     1       3.647  -4.730   0.240  0.00  0.00    -0.219 NA
ATOM      6  C   UNL     1       2.525  -4.047   0.141  0.00  0.00    +0.225 A 
ATOM      7  N   UNL     1       2.512  -2.733   0.050  0.00  0.00    -0.219 NA
ATOM      8  H   UNL     1       4.454  -0.155  -0.137  0.00  0.00    +0.154 HD
ENDROOT
BRANCH   4   9
ATOM      9  N   UNL     1       6.006  -4.841   0.350  0.00  0.00    -0.283 N 
ATOM     10  C   UNL     1       5.967  -6.232   0.340  0.00  0.00    +0.124 A 
ATOM     11  C   UNL     1       7.155  -6.955   0.332  0.00  0.00    +0.045 A 
ATOM     12  C   UNL     1       7.103  -8.337   0.323  0.00  0.00    +0.020 A 
ATOM     13  C   UNL     1       5.857  -8.953   0.321  0.00  0.00    +0.036 A 
ATOM     14  C   UNL     1       4.717  -8.173   0.329  0.00  0.00    +0.128 A 
ATOM     15  N   UNL     1       4.799  -6.856   0.343  0.00  0.00    -0.239 NA
ATOM     16 BR   UNL     1       5.724 -10.839   0.307  0.00  0.00    -0.049 Br
ATOM     17  H   UNL     1       6.856  -4.380   0.429  0.00  0.00    +0.155 HD
ENDBRANCH   4   9
BRANCH   1  21
ATOM     18  C   UNL     1      -0.013   1.380  -0.022  0.00  0.00    +0.000 A 
ATOM     19  C   UNL     1       0.132   0.212   0.704  0.00  0.00    +0.002 A 
ATOM     20  C   UNL     1       1.336  -0.464   0.694  0.00  0.00    +0.023 A 
ATOM     21  C   UNL     1       2.403   0.031  -0.046  0.00  0.00    +0.032 A 
ATOM     22  C   UNL     1       2.254   1.205  -0.774  0.00  0.00    +0.023 A 
ATOM     23  C   UNL     1       1.047   1.876  -0.760  0.00  0.00    +0.002 A 
ENDBRANCH   1  21
BRANCH   3  24
ATOM     24  N   UNL     1       6.080  -2.026   0.148  0.00  0.00    -0.353 N 
ATOM     25  H   UNL     1       6.088  -1.059   0.077  0.00  0.00    +0.143 HD
ATOM     26  H   UNL     1       6.915  -2.514   0.220  0.00  0.00    +0.143 HD
ENDBRANCH   3  24
TORSDOF 3
