REMARK  Name = ZINC12479710
REMARK  13 active torsions:
REMARK  status: ('A' for Active; 'I' for Inactive)
REMARK    1  A    between atoms: C_1  and  C_2
REMARK    2  A    between atoms: C_7  and  N_8
REMARK    3  A    between atoms: N_8  and  C_9
REMARK    4  A    between atoms: C_9  and  C_11
REMARK    5  A    between atoms: C_9  and  C_18
REMARK    6  A    between atoms: N_20  and  C_21
REMARK    7  A    between atoms: C_21  and  C_22
REMARK    8  A    between atoms: C_22  and  C_23
REMARK    9  A    between atoms: C_23  and  C_24
REMARK   10  A    between atoms: C_23  and  C_25
REMARK   11  A    between atoms: C_26  and  C_28
REMARK   12  A    between atoms: C_29  and  N_36
REMARK   13  A    between atoms: C_30  and  C_33
REMARK                            x       y       z     vdW  Elec       q    Type
REMARK                         _______ _______ _______ _____ _____    ______ ____
ROOT
ATOM      1  N   UNL     1      -5.903   2.283   0.192  0.00  0.00    -0.251 N 
ATOM      2  C   UNL     1      -5.245   1.809  -0.884  0.00  0.00    +0.262 C 
ATOM      3  O   UNL     1      -5.867   1.420  -1.855  0.00  0.00    -0.269 OA
ENDROOT
BRANCH   1  10
ATOM      4  C   UNL     1      -5.321   0.409   2.253  0.00  0.00    +0.045 C 
ATOM      5  C   UNL     1      -4.883   1.849   2.337  0.00  0.00    -0.029 A 
ATOM      6  C   UNL     1      -4.173   2.292   3.436  0.00  0.00    +0.005 A 
ATOM      7  C   UNL     1      -3.776   3.614   3.517  0.00  0.00    +0.000 A 
ATOM      8  C   UNL     1      -4.082   4.495   2.496  0.00  0.00    +0.002 A 
ATOM      9  C   UNL     1      -4.788   4.057   1.392  0.00  0.00    +0.024 A 
ATOM     10  C   UNL     1      -5.188   2.730   1.308  0.00  0.00    +0.041 A 
ENDBRANCH   1  10
BRANCH   2  11
ATOM     11  C   UNL     1      -3.781   1.762  -0.885  0.00  0.00    +0.116 A 
ATOM     12  C   UNL     1      -2.911   1.320  -1.883  0.00  0.00    +0.076 A 
ATOM     13  C   UNL     1      -1.571   1.429  -1.509  0.00  0.00    +0.155 A 
ATOM     14  N   UNL     1      -1.271   1.917  -0.326  0.00  0.00    -0.203 NA
ATOM     15  S   UNL     1      -2.635   2.259   0.384  0.00  0.00    +0.019 S 
BRANCH  13  16
ATOM     16  C   UNL     1      -0.503   1.006  -2.434  0.00  0.00    +0.262 C 
ATOM     17  O   UNL     1      -0.788   0.555  -3.527  0.00  0.00    -0.269 OA
ATOM     18  N   UNL     1       0.789   1.124  -2.070  0.00  0.00    -0.324 N 
ATOM     19  H   UNL     1       1.492   0.850  -2.680  0.00  0.00    +0.145 HD
ATOM     20  H   UNL     1       1.016   1.484  -1.198  0.00  0.00    +0.145 HD
ENDBRANCH  13  16
BRANCH  12  21
ATOM     21  N   UNL     1      -3.332   0.823  -3.109  0.00  0.00    -0.355 N 
ATOM     22  H   UNL     1      -2.679   0.527  -3.762  0.00  0.00    +0.142 HD
ATOM     23  H   UNL     1      -4.279   0.771  -3.312  0.00  0.00    +0.142 HD
ENDBRANCH  12  21
ENDBRANCH   2  11
BRANCH   1  24
ATOM     24  C   UNL     1      -7.367   2.331   0.193  0.00  0.00    +0.197 C 
BRANCH  24  25
ATOM     25  C   UNL     1      -7.855   2.757   1.554  0.00  0.00    -0.018 A 
ATOM     26  C   UNL     1      -7.580   4.029   2.019  0.00  0.00    +0.007 A 
ATOM     27  C   UNL     1      -8.032   4.422   3.265  0.00  0.00    +0.020 A 
ATOM     28  C   UNL     1      -8.751   3.539   4.050  0.00  0.00    +0.041 A 
ATOM     29  C   UNL     1      -9.021   2.264   3.586  0.00  0.00    +0.020 A 
ATOM     30  C   UNL     1      -8.574   1.873   2.338  0.00  0.00    +0.007 A 
ATOM     31 CL   UNL     1      -9.314   4.029   5.617  0.00  0.00    -0.084 Cl
ENDBRANCH  24  25
BRANCH  24  32
ATOM     32  C   UNL     1      -7.838   3.320  -0.842  0.00  0.00    +0.238 C 
ATOM     33  O   UNL     1      -7.030   3.925  -1.514  0.00  0.00    -0.273 OA
ATOM     34  N   UNL     1      -9.157   3.531  -1.021  0.00  0.00    -0.313 N 
ATOM     35  H   UNL     1      -9.803   3.047  -0.483  0.00  0.00    +0.149 HD
BRANCH  34  36
ATOM     36  C   UNL     1      -9.615   4.493  -2.027  0.00  0.00    +0.104 C 
BRANCH  36  37
ATOM     37  C   UNL     1     -11.144   4.542  -2.026  0.00  0.00    +0.022 C 
BRANCH  37  38
ATOM     38  C   UNL     1     -11.623   5.546  -3.077  0.00  0.00    -0.016 C 
ATOM     39  C   UNL     1     -11.234   5.049  -4.471  0.00  0.00    +0.007 C 
ATOM     40  C   UNL     1     -13.143   5.688  -2.992  0.00  0.00    +0.007 C 
ENDBRANCH  37  38
ENDBRANCH  36  37
ENDBRANCH  34  36
ENDBRANCH  24  32
ENDBRANCH   1  24
TORSDOF 10
