REMARK  Name = ZINC38696187
REMARK  12 active torsions:
REMARK  status: ('A' for Active; 'I' for Inactive)
REMARK    1  A    between atoms: C_1  and  C_2
REMARK    2  A    between atoms: C_2  and  C_4
REMARK    3  A    between atoms: C_2  and  N_23
REMARK    4  A    between atoms: N_6  and  C_7
REMARK    5  A    between atoms: C_11  and  C_13
REMARK    6  A    between atoms: C_13  and  O_15
REMARK    7  A    between atoms: O_15  and  C_16
REMARK    8  A    between atoms: C_20  and  O_21
REMARK    9  A    between atoms: O_21  and  C_22
REMARK   10  A    between atoms: N_26  and  C_29
REMARK   11  A    between atoms: C_34  and  O_35
REMARK   12  A    between atoms: O_35  and  C_36
REMARK                            x       y       z     vdW  Elec       q    Type
REMARK                         _______ _______ _______ _____ _____    ______ ____
ROOT
ATOM      1  C   UNL     1       1.761  -0.864   1.073  0.00  0.00    +0.203 C 
ATOM      2  O   UNL     1       0.840  -0.700   1.845  0.00  0.00    -0.277 OA
ATOM      3  N   UNL     1       2.999  -1.111   1.545  0.00  0.00    -0.287 N 
ATOM      4  H   UNL     1       3.750  -1.162   0.933  0.00  0.00    +0.155 HD
ENDROOT
BRANCH   3   5
ATOM      5  C   UNL     1       3.196  -1.288   2.882  0.00  0.00    +0.056 C 
ATOM      6  C   UNL     1       4.401  -1.471   3.529  0.00  0.00    +0.059 A 
ATOM      7  C   UNL     1       4.149  -1.622   4.974  0.00  0.00    +0.048 A 
ATOM      8  N   UNL     1       2.857  -1.538   5.224  0.00  0.00    -0.367 N 
ATOM      9  C   UNL     1       2.140  -1.317   3.964  0.00  0.00    +0.234 C 
ATOM     10  C   UNL     1       5.261  -1.822   5.827  0.00  0.00    +0.026 A 
ATOM     11  C   UNL     1       6.518  -1.872   5.320  0.00  0.00    +0.006 A 
ATOM     12  C   UNL     1       6.786  -1.733   3.961  0.00  0.00    +0.046 A 
ATOM     13  C   UNL     1       5.785  -1.537   3.053  0.00  0.00    +0.131 A 
ATOM     14  H   UNL     1       2.448  -1.606   6.101  0.00  0.00    +0.161 HD
BRANCH   9  15
ATOM     15  C   UNL     1       1.174  -2.447   3.716  0.00  0.00    +0.335 C 
ATOM     16  O   UNL     1       1.481  -3.579   4.006  0.00  0.00    -0.248 OA
BRANCH  15  17
ATOM     17  O   UNL     1      -0.028  -2.195   3.173  0.00  0.00    -0.466 OA
ATOM     18  C   UNL     1      -0.893  -3.314   2.966  0.00  0.00    +0.280 C 
ENDBRANCH  15  17
ENDBRANCH   9  15
BRANCH  13  19
ATOM     19  O   UNL     1       6.066  -1.404   1.734  0.00  0.00    -0.494 OA
ATOM     20  C   UNL     1       7.426  -1.599   1.338  0.00  0.00    +0.277 C 
ENDBRANCH  13  19
ENDBRANCH   3   5
BRANCH   1  22
ATOM     21  C   UNL     1       1.709   0.650  -0.890  0.00  0.00    -0.004 C 
ATOM     22  C   UNL     1       1.522  -0.792  -0.413  0.00  0.00    +0.017 C 
BRANCH  22  23
ATOM     23  N   UNL     1       0.152  -1.233  -0.710  0.00  0.00    +0.389 N 
ATOM     24  C   UNL     1      -0.080  -1.159  -2.158  0.00  0.00    -0.059 C 
ATOM     25  C   UNL     1      -1.542  -1.508  -2.458  0.00  0.00    +0.086 C 
ATOM     26  N   UNL     1      -1.840  -2.819  -1.861  0.00  0.00    -0.331 N 
ATOM     27  C   UNL     1      -1.486  -3.034  -0.449  0.00  0.00    +0.086 C 
ATOM     28  C   UNL     1      -0.028  -2.613  -0.244  0.00  0.00    -0.059 C 
ATOM     29  H   UNL     1      -0.504  -0.631  -0.235  0.00  0.00    -0.081 HD
BRANCH  26  30
ATOM     30  C   UNL     1      -2.443  -3.833  -2.614  0.00  0.00    +0.072 A 
ATOM     31  C   UNL     1      -1.660  -4.737  -3.316  0.00  0.00    +0.027 A 
ATOM     32  C   UNL     1      -2.258  -5.738  -4.059  0.00  0.00    +0.002 A 
ATOM     33  C   UNL     1      -3.636  -5.840  -4.105  0.00  0.00    +0.004 A 
ATOM     34  C   UNL     1      -4.423  -4.941  -3.408  0.00  0.00    +0.047 A 
ATOM     35  C   UNL     1      -3.832  -3.939  -2.657  0.00  0.00    +0.141 A 
BRANCH  35  36
ATOM     36  O   UNL     1      -4.604  -3.058  -1.966  0.00  0.00    -0.493 OA
ATOM     37  C   UNL     1      -6.020  -3.228  -2.056  0.00  0.00    +0.277 C 
ENDBRANCH  35  36
ENDBRANCH  26  30
ENDBRANCH  22  23
ENDBRANCH   1  22
TORSDOF 8
