REMARK  Name = ZINC35354703
REMARK  5 active torsions:
REMARK  status: ('A' for Active; 'I' for Inactive)
REMARK    1  A    between atoms: C_4  and  S_9
REMARK    2  A    between atoms: C_5  and  N_7
REMARK    3  A    between atoms: N_7  and  N_8
REMARK    4  A    between atoms: S_9  and  N_12
REMARK    5  A    between atoms: N_12  and  C_13
REMARK                            x       y       z     vdW  Elec       q    Type
REMARK                         _______ _______ _______ _____ _____    ______ ____
ROOT
ATOM      1  S   UNL     1       3.638  -0.883   0.017  0.00  0.00    +0.074 S 
ATOM      2  O   UNL     1       3.453  -1.883  -0.976  0.00  0.00    -0.150 OA
ATOM      3  O   UNL     1       4.562   0.185  -0.140  0.00  0.00    -0.150 OA
ENDROOT
BRANCH   1   7
ATOM      4  C   UNL     1      -0.420   1.011   0.716  0.00  0.00    +0.002 A 
ATOM      5  C   UNL     1       0.684   1.805   0.466  0.00  0.00    +0.002 A 
ATOM      6  C   UNL     1       1.922   1.227   0.252  0.00  0.00    +0.031 A 
ATOM      7  C   UNL     1       2.060  -0.147   0.289  0.00  0.00    +0.130 A 
ATOM      8  C   UNL     1       0.953  -0.948   0.541  0.00  0.00    +0.068 A 
ATOM      9  C   UNL     1      -0.289  -0.363   0.754  0.00  0.00    +0.026 A 
BRANCH   8  10
ATOM     10  N   UNL     1       1.089  -2.337   0.579  0.00  0.00    -0.281 N 
ATOM     11  H   UNL     1       1.968  -2.741   0.505  0.00  0.00    +0.166 HD
BRANCH  10  12
ATOM     12  N   UNL     1      -0.016  -3.128   0.720  0.00  0.00    -0.256 NA
ATOM     13  H   UNL     1      -0.654  -2.998  -0.051  0.00  0.00    +0.140 HD
ATOM     14  H   UNL     1       0.243  -4.098   0.815  0.00  0.00    +0.140 HD
ENDBRANCH  10  12
ENDBRANCH   8  10
ENDBRANCH   1   7
BRANCH   1  15
ATOM     15  N   UNL     1       4.057  -1.671   1.411  0.00  0.00    -0.215 N 
ATOM     16  H   UNL     1       4.107  -2.640   1.425  0.00  0.00    +0.174 HD
BRANCH  15  17
ATOM     17  C   UNL     1       4.340  -0.940   2.570  0.00  0.00    +0.062 A 
ATOM     18  C   UNL     1       3.689   0.263   2.809  0.00  0.00    +0.028 A 
ATOM     19  C   UNL     1       3.969   0.983   3.954  0.00  0.00    +0.040 A 
ATOM     20  C   UNL     1       4.897   0.506   4.864  0.00  0.00    +0.125 A 
ATOM     21  C   UNL     1       5.547  -0.694   4.629  0.00  0.00    +0.055 A 
ATOM     22  C   UNL     1       5.267  -1.420   3.487  0.00  0.00    +0.043 A 
ATOM     23 BR   UNL     1       6.149  -3.062   3.169  0.00  0.00    -0.048 Br
ATOM     24  F   UNL     1       5.170   1.212   5.983  0.00  0.00    -0.205 F 
ENDBRANCH  15  17
ENDBRANCH   1  15
TORSDOF 5
