REMARK  Name = ZINC27526325
REMARK  3 active torsions:
REMARK  status: ('A' for Active; 'I' for Inactive)
REMARK    1  A    between atoms: C_4  and  N_7
REMARK    2  A    between atoms: C_10  and  C_24
REMARK    3  A    between atoms: C_14  and  C_16
REMARK                            x       y       z     vdW  Elec       q    Type
REMARK                         _______ _______ _______ _____ _____    ______ ____
ROOT
ATOM      1  N   UNL     1       0.464  -5.612   0.678  0.00  0.00    -0.211 N 
ATOM      2  C   UNL     1       1.288  -6.415  -0.021  0.00  0.00    +0.283 A 
ATOM      3  O   UNL     1       1.286  -7.633  -0.008  0.00  0.00    -0.265 OA
ATOM      4  C   UNL     1       2.160  -5.590  -0.773  0.00  0.00    +0.106 A 
ATOM      5  C   UNL     1       1.814  -4.257  -0.488  0.00  0.00    +0.167 A 
ATOM      6  N   UNL     1       0.782  -4.278   0.395  0.00  0.00    -0.232 N 
ATOM      7  C   UNL     1       0.436  -2.973   0.679  0.00  0.00    +0.141 A 
ATOM      8  C   UNL     1       1.248  -2.162  -0.022  0.00  0.00    +0.093 A 
ATOM      9  N   UNL     1       2.112  -2.960  -0.761  0.00  0.00    -0.226 NA
ENDROOT
BRANCH   8  10
ATOM     10  C   UNL     1       1.221  -0.683  -0.013  0.00  0.00    +0.020 A 
ATOM     11  C   UNL     1       0.002  -0.004   0.002  0.00  0.00    +0.013 A 
ATOM     12  C   UNL     1      -0.017   1.375   0.010  0.00  0.00    +0.021 A 
ATOM     13  C   UNL     1       1.171   2.087   0.002  0.00  0.00    +0.042 A 
ATOM     14  C   UNL     1       2.384   1.420  -0.013  0.00  0.00    +0.040 A 
ATOM     15  C   UNL     1       2.416   0.040  -0.021  0.00  0.00    +0.052 A 
ATOM     16 CL   UNL     1       3.938  -0.796  -0.040  0.00  0.00    -0.083 Cl
ATOM     17 CL   UNL     1       1.139   3.823   0.011  0.00  0.00    -0.083 Cl
ENDBRANCH   8  10
BRANCH   4  18
ATOM     18  C   UNL     1       3.187  -6.025  -1.649  0.00  0.00    +0.052 C 
ATOM     19  N   UNL     1       3.877  -5.122  -2.252  0.00  0.00    -0.287 NA
ATOM     20  C   UNL     1       5.026  -5.408  -3.103  0.00  0.00    +0.142 C 
ATOM     21  C   UNL     1       4.661  -6.446  -4.170  0.00  0.00    +0.023 C 
ATOM     22  C   UNL     1       5.036  -7.827  -3.628  0.00  0.00    +0.002 C 
ATOM     23  C   UNL     1       4.849  -7.833  -2.106  0.00  0.00    +0.006 C 
ATOM     24  C   UNL     1       3.384  -7.504  -1.805  0.00  0.00    +0.056 C 
ENDBRANCH   4  18
BRANCH   1  28
ATOM     25  C   UNL     1      -2.543  -6.889   3.262  0.00  0.00    +0.000 A 
ATOM     26  C   UNL     1      -1.762  -7.818   2.600  0.00  0.00    +0.002 A 
ATOM     27  C   UNL     1      -0.764  -7.398   1.743  0.00  0.00    +0.028 A 
ATOM     28  C   UNL     1      -0.546  -6.041   1.545  0.00  0.00    +0.068 A 
ATOM     29  C   UNL     1      -1.329  -5.110   2.216  0.00  0.00    +0.028 A 
ATOM     30  C   UNL     1      -2.329  -5.537   3.068  0.00  0.00    +0.002 A 
ENDBRANCH   1  28
TORSDOF 3
