REMARK  Name = ZINC09446534
REMARK  4 active torsions:
REMARK  status: ('A' for Active; 'I' for Inactive)
REMARK    1  A    between atoms: C_14  and  C_15
REMARK    2  A    between atoms: C_18  and  O_21
REMARK    3  A    between atoms: O_21  and  C_22
REMARK    4  A    between atoms: C_22  and  C_23
REMARK                            x       y       z     vdW  Elec       q    Type
REMARK                         _______ _______ _______ _____ _____    ______ ____
ROOT
ATOM      1  C   UNL     1      -5.829   2.040  -0.674  0.00  0.00    +0.000 A 
ATOM      2  C   UNL     1      -5.652   0.924  -1.471  0.00  0.00    +0.000 A 
ATOM      3  C   UNL     1      -4.390   0.602  -1.925  0.00  0.00    +0.005 A 
ATOM      4  C   UNL     1      -3.297   1.389  -1.589  0.00  0.00    -0.027 A 
ATOM      5  C   UNL     1      -3.470   2.496  -0.788  0.00  0.00    -0.040 A 
ATOM      6  C   UNL     1      -4.744   2.820  -0.335  0.00  0.00    +0.004 A 
ATOM      7  C   UNL     1      -2.332   3.389  -0.370  0.00  0.00    +0.067 C 
ATOM      8  CA  UNL     1      -1.127   3.202  -1.293  0.00  0.00    +0.167 C 
ATOM      9  C   UNL     1       0.058   3.921  -0.734  0.00  0.00    +0.238 C 
ATOM     10  O   UNL     1      -0.004   5.129  -0.635  0.00  0.00    -0.273 OA
ATOM     11  N   UNL     1       1.182   3.314  -0.334  0.00  0.00    -0.280 N 
ATOM     12  CA  UNL     1       1.316   1.925  -0.441  0.00  0.00    +0.097 C 
ATOM     13  C   UNL     1       2.437   1.304  -0.004  0.00  0.00    +0.036 C 
ATOM     14  C   UNL     1       0.217   1.153  -1.036  0.00  0.00    +0.262 C 
ATOM     15  O   UNL     1       0.318  -0.054  -1.146  0.00  0.00    -0.269 OA
ATOM     16  N   UNL     1      -0.895   1.768  -1.465  0.00  0.00    -0.280 N 
ATOM     17  C   UNL     1      -1.948   0.990  -2.131  0.00  0.00    +0.144 C 
ATOM     18  H   UNL     1       1.909   3.841   0.032  0.00  0.00    +0.155 HD
ENDROOT
BRANCH  13  19
ATOM     19  C   UNL     1       2.468  -0.161   0.111  0.00  0.00    -0.023 A 
ATOM     20  C   UNL     1       1.415  -0.840   0.733  0.00  0.00    +0.011 A 
ATOM     21  C   UNL     1       1.447  -2.213   0.833  0.00  0.00    +0.046 A 
ATOM     22  C   UNL     1       2.528  -2.924   0.327  0.00  0.00    +0.121 A 
ATOM     23  C   UNL     1       3.580  -2.254  -0.288  0.00  0.00    +0.046 A 
ATOM     24  C   UNL     1       3.555  -0.882  -0.398  0.00  0.00    +0.011 A 
BRANCH  22  25
ATOM     25  O   UNL     1       2.558  -4.277   0.432  0.00  0.00    -0.487 OA
BRANCH  25  26
ATOM     26  C   UNL     1       1.445  -4.902   1.074  0.00  0.00    +0.266 C 
BRANCH  26  27
ATOM     27  C   UNL     1       1.652  -6.395   1.099  0.00  0.00    +0.008 A 
ATOM     28  C   UNL     1       2.791  -6.944   0.541  0.00  0.00    +0.010 A 
ATOM     29  C   UNL     1       2.985  -8.312   0.568  0.00  0.00    +0.020 A 
ATOM     30  C   UNL     1       2.032  -9.134   1.143  0.00  0.00    +0.042 A 
ATOM     31  C   UNL     1       0.889  -8.586   1.697  0.00  0.00    +0.040 A 
ATOM     32  C   UNL     1       0.699  -7.216   1.674  0.00  0.00    +0.049 A 
ATOM     33 CL   UNL     1      -0.736  -6.527   2.368  0.00  0.00    -0.083 Cl
ATOM     34 CL   UNL     1       2.271 -10.853   1.170  0.00  0.00    -0.083 Cl
ENDBRANCH  26  27
ENDBRANCH  25  26
ENDBRANCH  22  25
ENDBRANCH  13  19
TORSDOF 4
