REMARK  Name = ZINC22053065
REMARK  11 active torsions:
REMARK  status: ('A' for Active; 'I' for Inactive)
REMARK    1  A    between atoms: C_1  and  C_2
REMARK    2  A    between atoms: C_2  and  C_3
REMARK    3  A    between atoms: C_3  and  C_4
REMARK    4  A    between atoms: C_4  and  C_5
REMARK    5  A    between atoms: C_8  and  S_11
REMARK    6  A    between atoms: S_11  and  N_14
REMARK    7  A    between atoms: N_17  and  C_20
REMARK    8  A    between atoms: C_20  and  C_22
REMARK    9  A    between atoms: C_20  and  C_23
REMARK   10  A    between atoms: C_31  and  N_33
REMARK   11  A    between atoms: N_33  and  C_34
REMARK                            x       y       z     vdW  Elec       q    Type
REMARK                         _______ _______ _______ _____ _____    ______ ____
ROOT
ATOM      1  C   UNL     1      -1.312  -0.741   0.011  0.00  0.00    -0.004 C 
ATOM      2  C   UNL     1      -1.560  -1.324   1.404  0.00  0.00    -0.005 C 
ENDROOT
BRANCH   1   3
ATOM      3  C   UNL     1       0.002  -0.004   0.002  0.00  0.00    +0.096 A 
ATOM      4  N   UNL     1       1.112  -0.703  -0.012  0.00  0.00    -0.344 N 
ATOM      5  C   UNL     1       2.304  -0.087  -0.021  0.00  0.00    +0.051 A 
ATOM      6  C   UNL     1       3.509  -0.802  -0.037  0.00  0.00    +0.026 A 
ATOM      7  C   UNL     1       4.692  -0.125  -0.045  0.00  0.00    +0.002 A 
ATOM      8  C   UNL     1       4.723   1.266  -0.039  0.00  0.00    +0.001 A 
ATOM      9  C   UNL     1       3.569   1.993  -0.023  0.00  0.00    +0.013 A 
ATOM     10  C   UNL     1       2.337   1.329  -0.013  0.00  0.00    +0.038 A 
ATOM     11  C   UNL     1       1.106   2.027   0.002  0.00  0.00    +0.130 A 
ATOM     12  N   UNL     1      -0.016   1.319   0.009  0.00  0.00    -0.221 NA
ATOM     13  H   UNL     1       1.070  -1.802  -0.018  0.00  0.00    +0.167 HD
BRANCH  11  14
ATOM     14  N   UNL     1       1.073   3.405   0.010  0.00  0.00    -0.326 N 
ATOM     15  H   UNL     1       2.012   3.978   0.004  0.00  0.00    +0.148 HD
BRANCH  14  16
ATOM     16  C   UNL     1      -0.212   4.108   0.025  0.00  0.00    +0.072 C 
ATOM     17  C   UNL     1      -0.734   4.249  -1.406  0.00  0.00    +0.022 C 
ATOM     18  C   UNL     1      -2.076   4.982  -1.390  0.00  0.00    +0.002 C 
ATOM     19  C   UNL     1      -1.891   6.371  -0.775  0.00  0.00    +0.000 C 
ATOM     20  C   UNL     1      -1.370   6.230   0.656  0.00  0.00    +0.002 C 
ATOM     21  C   UNL     1      -0.028   5.496   0.640  0.00  0.00    +0.022 C 
ENDBRANCH  14  16
ENDBRANCH  11  14
ENDBRANCH   1   3
BRANCH   1  25
ATOM     22  N   UNL     1      -1.910  -3.360  -3.214  0.00  0.00    -0.180 NA
ATOM     23  C   UNL     1      -2.392  -3.802  -1.896  0.00  0.00    +0.091 C 
ATOM     24  C   UNL     1      -2.537  -2.572  -0.994  0.00  0.00    -0.060 C 
ATOM     25  N   UNL     1      -1.270  -1.830  -0.975  0.00  0.00    +0.388 N 
ATOM     26  C   UNL     1      -0.932  -1.318  -2.309  0.00  0.00    -0.060 C 
ATOM     27  C   UNL     1      -0.720  -2.497  -3.266  0.00  0.00    +0.091 C 
ATOM     28  H   UNL     1      -0.476  -2.530  -0.674  0.00  0.00    -0.081 HD
BRANCH  22  29
ATOM     29  S   UNL     1      -2.686  -3.823  -4.601  0.00  0.00    +0.061 S 
ATOM     30  O   UNL     1      -1.729  -3.738  -5.649  0.00  0.00    -0.153 OA
ATOM     31  O   UNL     1      -3.378  -5.027  -4.298  0.00  0.00    -0.153 OA
BRANCH  29  35
ATOM     32  C   UNL     1      -5.843  -0.700  -5.476  0.00  0.00    -0.047 A 
ATOM     33  C   UNL     1      -4.569  -0.557  -5.992  0.00  0.00    +0.005 A 
ATOM     34  C   UNL     1      -3.604  -1.511  -5.725  0.00  0.00    +0.029 A 
ATOM     35  C   UNL     1      -3.914  -2.607  -4.942  0.00  0.00    +0.105 A 
ATOM     36  C   UNL     1      -5.191  -2.753  -4.430  0.00  0.00    +0.029 A 
ATOM     37  C   UNL     1      -6.154  -1.796  -4.694  0.00  0.00    +0.005 A 
BRANCH  32  38
ATOM     38  C   UNL     1      -6.894   0.341  -5.766  0.00  0.00    +0.035 C 
BRANCH  38  39
ATOM     39  C   UNL     1      -7.646  -0.036  -7.044  0.00  0.00    +0.004 C 
BRANCH  39  41
ATOM     40  C   UNL     1      -9.464   0.643  -8.617  0.00  0.00    +0.004 C 
ATOM     41  C   UNL     1      -8.713   1.020  -7.339  0.00  0.00    -0.003 C 
ENDBRANCH  39  41
ENDBRANCH  38  39
ENDBRANCH  32  38
ENDBRANCH  29  35
ENDBRANCH  22  29
ENDBRANCH   1  25
TORSDOF 9
