REMARK  Name = ZINC01428324
REMARK  4 active torsions:
REMARK  status: ('A' for Active; 'I' for Inactive)
REMARK    1  A    between atoms: C_4  and  C_7
REMARK    2  A    between atoms: C_10  and  S_12
REMARK    3  A    between atoms: S_12  and  C_13
REMARK    4  A    between atoms: C_13  and  C_14
REMARK                            x       y       z     vdW  Elec       q    Type
REMARK                         _______ _______ _______ _____ _____    ______ ____
ROOT
ATOM      1  C   UNL     1       1.118   2.005  -0.026  0.00  0.00    +0.146 A 
ATOM      2  N   UNL     1       2.275   1.365  -0.013  0.00  0.00    -0.199 NA
ATOM      3  C   UNL     1       2.301   0.035   0.009  0.00  0.00    +0.217 A 
ATOM      4  N   UNL     1       1.163  -0.651   0.016  0.00  0.00    -0.181 NA
ATOM      5  C   UNL     1       0.002  -0.004   0.002  0.00  0.00    +0.227 A 
ATOM      6  N   UNL     1      -0.016   1.327  -0.019  0.00  0.00    -0.198 NA
ATOM      7  N   UNL     1      -1.184  -0.712   0.009  0.00  0.00    -0.269 N 
ATOM      8  C   UNL     1      -2.470  -0.013   0.135  0.00  0.00    +0.114 C 
ATOM      9  C   UNL     1      -3.325  -0.783   1.151  0.00  0.00    +0.024 C 
ATOM     10  C   UNL     1      -3.603  -2.182   0.602  0.00  0.00    +0.038 C 
ATOM     11  C   UNL     1      -2.321  -2.846   0.175  0.00  0.00    -0.026 A 
ATOM     12  C   UNL     1      -1.181  -2.108  -0.109  0.00  0.00    +0.040 A 
ATOM     13  C   UNL     1      -0.016  -2.751  -0.511  0.00  0.00    +0.024 A 
ATOM     14  C   UNL     1       0.008  -4.126  -0.631  0.00  0.00    +0.002 A 
ATOM     15  C   UNL     1      -1.128  -4.862  -0.350  0.00  0.00    +0.000 A 
ATOM     16  C   UNL     1      -2.287  -4.225   0.059  0.00  0.00    +0.005 A 
ATOM     17  N   UNL     1       3.509  -0.633   0.024  0.00  0.00    -0.327 N 
ATOM     18  H   UNL     1       3.527  -1.602   0.039  0.00  0.00    +0.145 HD
ATOM     19  H   UNL     1       4.340  -0.132   0.018  0.00  0.00    +0.145 HD
ENDROOT
BRANCH   1  20
ATOM     20  C   UNL     1       1.093   3.511  -0.051  0.00  0.00    +0.152 C 
BRANCH  20  21
ATOM     21  S   UNL     1       1.077   4.142   1.645  0.00  0.00    -0.091 S 
BRANCH  21  25
ATOM     22  C   UNL     1       1.010   8.143   1.760  0.00  0.00    +0.079 A 
ATOM     23  C   UNL     1       1.011   8.399   0.418  0.00  0.00    +0.076 A 
ATOM     24  S   UNL     1       1.048   6.737  -0.238  0.00  0.00    -0.069 S 
ATOM     25  C   UNL     1       1.049   5.875   1.327  0.00  0.00    +0.136 A 
ATOM     26  N   UNL     1       1.030   6.881   2.183  0.00  0.00    -0.233 NA
BRANCH  22  30
ATOM     27  C   UNL     1       0.947  11.345   4.557  0.00  0.00    +0.000 A 
ATOM     28  C   UNL     1       0.967  10.037   5.008  0.00  0.00    +0.001 A 
ATOM     29  C   UNL     1       0.988   8.994   4.104  0.00  0.00    +0.010 A 
ATOM     30  C   UNL     1       0.988   9.260   2.736  0.00  0.00    +0.001 A 
ATOM     31  C   UNL     1       0.973  10.580   2.288  0.00  0.00    +0.010 A 
ATOM     32  C   UNL     1       0.947  11.615   3.201  0.00  0.00    +0.001 A 
ENDBRANCH  22  30
ENDBRANCH  21  25
ENDBRANCH  20  21
ENDBRANCH   1  20
TORSDOF 4
