REMARK  Name = ZINC00887088
REMARK  9 active torsions:
REMARK  status: ('A' for Active; 'I' for Inactive)
REMARK    1  A    between atoms: C_1  and  C_2
REMARK    2  A    between atoms: C_2  and  C_3
REMARK    3  A    between atoms: N_9  and  S_10
REMARK    4  A    between atoms: S_10  and  C_13
REMARK    5  A    between atoms: C_16  and  N_19
REMARK    6  A    between atoms: C_20  and  C_22
REMARK    7  A    between atoms: C_22  and  S_23
REMARK    8  A    between atoms: S_23  and  C_24
REMARK    9  A    between atoms: C_36  and  C_37
REMARK                            x       y       z     vdW  Elec       q    Type
REMARK                         _______ _______ _______ _____ _____    ______ ____
ROOT
ATOM      1  N   UNL     1      -0.732  -5.415   0.368  0.00  0.00    -0.285 N 
ATOM      2  C   UNL     1      -1.927  -4.941   0.774  0.00  0.00    +0.227 C 
ATOM      3  O   UNL     1      -2.821  -5.712   1.056  0.00  0.00    -0.275 OA
ATOM      4  H   UNL     1      -0.040  -4.801   0.077  0.00  0.00    +0.155 HD
ENDROOT
BRANCH   1   8
ATOM      5  C   UNL     1      -0.010  -9.518   0.366  0.00  0.00    +0.106 A 
ATOM      6  C   UNL     1      -1.268  -9.039   0.049  0.00  0.00    +0.030 A 
ATOM      7  C   UNL     1      -1.510  -7.679   0.049  0.00  0.00    +0.025 A 
ATOM      8  C   UNL     1      -0.490  -6.793   0.368  0.00  0.00    +0.034 A 
ATOM      9  C   UNL     1       0.774  -7.278   0.680  0.00  0.00    +0.025 A 
ATOM     10  C   UNL     1       1.009  -8.639   0.683  0.00  0.00    +0.030 A 
BRANCH   5  11
ATOM     11  S   UNL     1       0.295 -11.254   0.365  0.00  0.00    +0.061 S 
ATOM     12  O   UNL     1       1.517 -11.451   1.063  0.00  0.00    -0.153 OA
ATOM     13  O   UNL     1      -0.918 -11.880   0.760  0.00  0.00    -0.153 OA
BRANCH  11  19
ATOM     14  C   UNL     1       1.899 -11.539  -1.809  0.00  0.00    +0.080 C 
ATOM     15  C   UNL     1       2.343 -12.883  -2.393  0.00  0.00    +0.021 C 
ATOM     16  C   UNL     1       1.272 -13.394  -3.360  0.00  0.00    +0.003 C 
ATOM     17  C   UNL     1      -0.041 -13.607  -2.603  0.00  0.00    +0.017 C 
ATOM     18  C   UNL     1      -0.511 -12.275  -2.019  0.00  0.00    +0.110 C 
ATOM     19  N   UNL     1       0.569 -11.702  -1.205  0.00  0.00    -0.174 NA
BRANCH  14  21
ATOM     20  C   UNL     1       4.238 -10.764  -1.400  0.00  0.00    +0.005 C 
ATOM     21  C   UNL     1       2.895 -11.086  -0.741  0.00  0.00    +0.017 C 
ENDBRANCH  14  21
ENDBRANCH  11  19
ENDBRANCH   5  11
ENDBRANCH   1   8
BRANCH   2  22
ATOM     22  C   UNL     1      -2.153  -3.455   0.877  0.00  0.00    +0.173 C 
BRANCH  22  23
ATOM     23  S   UNL     1      -3.843  -3.139   1.443  0.00  0.00    -0.076 S 
BRANCH  23  24
ATOM     24  C   UNL     1      -3.831  -1.377   1.473  0.00  0.00    +0.197 A 
ATOM     25  N   UNL     1      -2.821  -0.599   1.154  0.00  0.00    -0.122 NA
ATOM     26  N   UNL     1      -3.152   0.636   1.288  0.00  0.00    -0.128 NA
ATOM     27  C   UNL     1      -4.403   0.722   1.705  0.00  0.00    +0.165 A 
ATOM     28  N   UNL     1      -4.868  -0.567   1.833  0.00  0.00    -0.270 N 
ATOM     29  C   UNL     1      -6.163  -0.816   2.256  0.00  0.00    +0.061 A 
ATOM     30  C   UNL     1      -6.634  -2.115   2.382  0.00  0.00    +0.076 A 
ATOM     31  C   UNL     1      -7.931  -2.346   2.804  0.00  0.00    +0.168 A 
ATOM     32  C   UNL     1      -8.777  -1.274   3.106  0.00  0.00    +0.167 A 
ATOM     33  C   UNL     1      -8.322   0.023   2.987  0.00  0.00    +0.059 A 
ATOM     34  C   UNL     1      -7.012   0.264   2.560  0.00  0.00    +0.003 A 
ATOM     35  C   UNL     1      -6.505   1.633   2.423  0.00  0.00    +0.017 A 
ATOM     36  C   UNL     1      -5.234   1.827   2.006  0.00  0.00    -0.005 A 
ATOM     37  C   UNL     1      -4.699   3.228   1.860  0.00  0.00    +0.047 C 
ATOM     38  O   UNL     1      -9.988  -1.771   3.493  0.00  0.00    -0.453 OA
ATOM     39  C   UNL     1     -10.008  -3.135   3.032  0.00  0.00    +0.466 C 
ATOM     40  O   UNL     1      -8.618  -3.509   3.003  0.00  0.00    -0.453 OA
ENDBRANCH  23  24
ENDBRANCH  22  23
ENDBRANCH   2  22
TORSDOF 7
