REMARK  Name = ZINC20718639
REMARK  6 active torsions:
REMARK  status: ('A' for Active; 'I' for Inactive)
REMARK    1  A    between atoms: C_1  and  C_2
REMARK    2  A    between atoms: C_14  and  O_28
REMARK    3  A    between atoms: C_17  and  C_19
REMARK    4  A    between atoms: C_22  and  C_25
REMARK    5  A    between atoms: C_25  and  C_26
REMARK    6  A    between atoms: C_25  and  C_27
REMARK                            x       y       z     vdW  Elec       q    Type
REMARK                         _______ _______ _______ _____ _____    ______ ____
ROOT
ATOM      1  C   UNL     1       0.468   1.747  -0.271  0.00  0.00    +0.068 C 
ATOM      2  C   UNL     1       0.524   0.247  -0.138  0.00  0.00    +0.067 A 
ATOM      3  C   UNL     1       0.210  -0.676  -1.154  0.00  0.00    +0.037 A 
ATOM      4  C   UNL     1       0.380  -1.933  -0.642  0.00  0.00    +0.167 A 
ATOM      5  N   UNL     1       0.799  -1.772   0.667  0.00  0.00    -0.179 N 
ATOM      6  N   UNL     1       0.875  -0.405   0.934  0.00  0.00    -0.167 NA
ATOM      7  C   UNL     1       1.097  -2.797   1.562  0.00  0.00    +0.253 A 
ATOM      8  N   UNL     1       0.988  -4.055   1.164  0.00  0.00    -0.219 NA
ATOM      9  C   UNL     1       1.264  -5.052   1.988  0.00  0.00    +0.116 A 
ATOM     10  C   UNL     1       1.670  -4.767   3.282  0.00  0.00    +0.039 A 
ATOM     11  C   UNL     1       1.774  -3.439   3.666  0.00  0.00    +0.116 A 
ATOM     12  N   UNL     1       1.488  -2.490   2.789  0.00  0.00    -0.219 NA
ATOM     13  N   UNL     1       0.205  -3.152  -1.177  0.00  0.00    -0.197 NA
ATOM     14  C   UNL     1      -0.154  -3.616  -2.284  0.00  0.00    +0.199 C 
ATOM     15  C   UNL     1      -0.497  -2.916  -3.539  0.00  0.00    +0.165 C 
ATOM     16  S   UNL     1      -1.396  -1.382  -3.270  0.00  0.00    -0.138 S 
ATOM     17  C   UNL     1      -0.220  -0.248  -2.525  0.00  0.00    +0.112 C 
ENDROOT
BRANCH  17  18
ATOM     18  C   UNL     1      -0.851   1.117  -2.433  0.00  0.00    -0.030 A 
ATOM     19  C   UNL     1      -2.063   1.275  -1.787  0.00  0.00    +0.005 A 
ATOM     20  C   UNL     1      -2.643   2.527  -1.703  0.00  0.00    +0.004 A 
ATOM     21  C   UNL     1      -2.010   3.621  -2.263  0.00  0.00    -0.045 A 
ATOM     22  C   UNL     1      -0.797   3.463  -2.907  0.00  0.00    +0.004 A 
ATOM     23  C   UNL     1      -0.216   2.212  -2.988  0.00  0.00    +0.005 A 
BRANCH  21  24
ATOM     24  C   UNL     1      -2.642   4.986  -2.172  0.00  0.00    +0.013 C 
ATOM     25  C   UNL     1      -1.702   5.935  -1.426  0.00  0.00    +0.012 C 
ATOM     26  C   UNL     1      -2.899   5.525  -3.580  0.00  0.00    +0.012 C 
ENDBRANCH  21  24
ENDBRANCH  17  18
BRANCH  14  27
ATOM     27  O   UNL     1      -0.241  -4.961  -2.338  0.00  0.00    -0.495 OA
ATOM     28  H   UNL     1      -0.014  -5.404  -1.508  0.00  0.00    +0.293 HD
ENDBRANCH  14  27
TORSDOF 3
