REMARK  Name = ZINC36660381
REMARK  12 active torsions:
REMARK  status: ('A' for Active; 'I' for Inactive)
REMARK    1  A    between atoms: C_1  and  C_2
REMARK    2  A    between atoms: C_2  and  N_3
REMARK    3  A    between atoms: N_3  and  C_4
REMARK    4  A    between atoms: N_3  and  C_6
REMARK    5  A    between atoms: C_4  and  C_5
REMARK    6  A    between atoms: C_6  and  C_7
REMARK    7  A    between atoms: C_7  and  N_8
REMARK    8  A    between atoms: C_12  and  C_19
REMARK    9  A    between atoms: C_13  and  C_18
REMARK   10  A    between atoms: C_20  and  C_22
REMARK   11  A    between atoms: N_27  and  S_28
REMARK   12  A    between atoms: S_28  and  C_31
REMARK                            x       y       z     vdW  Elec       q    Type
REMARK                         _______ _______ _______ _____ _____    ______ ____
ROOT
ATOM      1  N   UNL     1      -2.341  -4.202   0.573  0.00  0.00    -0.251 N 
ATOM      2  C   UNL     1      -2.273  -4.861   1.790  0.00  0.00    +0.168 A 
ATOM      3  N   UNL     1      -2.084  -6.138   2.026  0.00  0.00    -0.224 NA
ATOM      4  C   UNL     1      -2.040  -6.647   3.276  0.00  0.00    +0.083 A 
ATOM      5  C   UNL     1      -1.845  -7.992   3.665  0.00  0.00    -0.021 A 
ATOM      6  C   UNL     1      -1.827  -8.343   4.989  0.00  0.00    -0.045 A 
ATOM      7  C   UNL     1      -1.999  -7.399   5.992  0.00  0.00    +0.005 A 
ATOM      8  C   UNL     1      -2.192  -6.074   5.648  0.00  0.00    +0.017 A 
ATOM      9  C   UNL     1      -2.211  -5.713   4.324  0.00  0.00    +0.041 A 
ATOM     10  S   UNL     1      -2.413  -4.186   3.439  0.00  0.00    -0.052 S 
ATOM     11  C   UNL     1      -1.617  -9.787   5.366  0.00  0.00    +0.044 C 
ATOM     12  C   UNL     1      -1.655  -9.053   2.611  0.00  0.00    +0.046 C 
ATOM     13  C   UNL     1      -2.312  -4.906  -0.576  0.00  0.00    +0.240 C 
ATOM     14  O   UNL     1      -2.285  -4.326  -1.641  0.00  0.00    -0.273 OA
ENDROOT
BRANCH  13  15
ATOM     15  C   UNL     1      -2.313  -6.412  -0.538  0.00  0.00    +0.166 C 
ATOM     16  C   UNL     1      -3.741  -6.930  -0.266  0.00  0.00    +0.031 C 
ATOM     17  C   UNL     1      -4.266  -7.263  -1.687  0.00  0.00    +0.019 C 
ATOM     18  C   UNL     1      -2.982  -7.786  -2.378  0.00  0.00    +0.110 C 
ATOM     19  N   UNL     1      -1.892  -6.946  -1.842  0.00  0.00    -0.165 NA
BRANCH  19  20
ATOM     20  S   UNL     1      -0.441  -6.651  -2.583  0.00  0.00    +0.062 S 
ATOM     21  O   UNL     1      -0.647  -6.854  -3.974  0.00  0.00    -0.153 OA
ATOM     22  O   UNL     1       0.042  -5.423  -2.055  0.00  0.00    -0.153 OA
BRANCH  20  23
ATOM     23  C   UNL     1       0.679  -7.903  -2.052  0.00  0.00    +0.106 A 
ATOM     24  C   UNL     1       1.445  -7.709  -0.918  0.00  0.00    +0.031 A 
ATOM     25  C   UNL     1       2.324  -8.690  -0.500  0.00  0.00    +0.040 A 
ATOM     26  C   UNL     1       2.436  -9.869  -1.218  0.00  0.00    +0.124 A 
ATOM     27  C   UNL     1       1.668 -10.063  -2.353  0.00  0.00    +0.040 A 
ATOM     28  C   UNL     1       0.786  -9.082  -2.766  0.00  0.00    +0.031 A 
ATOM     29  F   UNL     1       3.295 -10.829  -0.810  0.00  0.00    -0.205 F 
ENDBRANCH  20  23
ENDBRANCH  19  20
ENDBRANCH  13  15
BRANCH   1  30
ATOM     30  C   UNL     1      -2.445  -2.741   0.535  0.00  0.00    +0.097 C 
BRANCH  30  31
ATOM     31  C   UNL     1      -1.049  -2.134   0.387  0.00  0.00    -0.059 C 
BRANCH  31  32
ATOM     32  N   UNL     1      -1.162  -0.678   0.230  0.00  0.00    +0.380 N 
ATOM     33  H   UNL     1      -1.782  -0.470  -0.538  0.00  0.00    -0.082 HD
BRANCH  32  35
ATOM     34  C   UNL     1      -1.935   1.405   1.261  0.00  0.00    -0.017 C 
ATOM     35  C   UNL     1      -1.700  -0.093   1.466  0.00  0.00    -0.082 C 
ENDBRANCH  32  35
BRANCH  32  36
ATOM     36  C   UNL     1       0.165  -0.110  -0.043  0.00  0.00    -0.082 C 
ATOM     37  C   UNL     1       0.661  -0.605  -1.403  0.00  0.00    -0.017 C 
ENDBRANCH  32  36
ENDBRANCH  31  32
ENDBRANCH  30  31
ENDBRANCH   1  30
TORSDOF 8
