REMARK  Name = ZINC36603425
REMARK  19 active torsions:
REMARK  status: ('A' for Active; 'I' for Inactive)
REMARK    1  A    between atoms: C_1  and  C_2
REMARK    2  A    between atoms: C_5  and  C_7
REMARK    3  A    between atoms: C_7  and  N_8
REMARK    4  A    between atoms: N_8  and  C_9
REMARK    5  A    between atoms: C_9  and  C_11
REMARK    6  A    between atoms: C_9  and  C_20
REMARK    7  A    between atoms: C_14  and  O_19
REMARK    8  A    between atoms: C_15  and  O_17
REMARK    9  A    between atoms: O_17  and  C_18
REMARK   10  A    between atoms: N_22  and  C_23
REMARK   11  A    between atoms: C_23  and  C_24
REMARK   12  A    between atoms: C_23  and  C_25
REMARK   13  A    between atoms: C_23  and  C_26
REMARK   14  A    between atoms: C_26  and  C_27
REMARK   15  A    between atoms: C_27  and  C_28
REMARK   16  A    between atoms: C_27  and  C_29
REMARK   17  A    between atoms: C_27  and  C_30
REMARK   18  A    between atoms: C_31  and  C_33
REMARK   19  A    between atoms: C_33  and  C_34
REMARK                            x       y       z     vdW  Elec       q    Type
REMARK                         _______ _______ _______ _____ _____    ______ ____
ROOT
ATOM      1  C   UNL     1       4.463  -3.490  -3.013  0.00  0.00    +0.193 C 
ENDROOT
BRANCH   1   2
ATOM      2  C   UNL     1       3.727  -2.193  -3.234  0.00  0.00    -0.015 A 
ATOM      3  C   UNL     1       2.764  -1.784  -2.331  0.00  0.00    +0.010 A 
ATOM      4  C   UNL     1       2.086  -0.596  -2.529  0.00  0.00    +0.049 A 
ATOM      5  C   UNL     1       2.372   0.189  -3.635  0.00  0.00    +0.158 A 
ATOM      6  C   UNL     1       3.342  -0.223  -4.544  0.00  0.00    +0.162 A 
ATOM      7  C   UNL     1       4.021  -1.413  -4.337  0.00  0.00    +0.055 A 
BRANCH   6   8
ATOM      8  O   UNL     1       3.626   0.543  -5.631  0.00  0.00    -0.491 OA
ATOM      9  C   UNL     1       4.633   0.058  -6.522  0.00  0.00    +0.277 C 
ENDBRANCH   6   8
BRANCH   5  10
ATOM     10  O   UNL     1       1.706   1.358  -3.832  0.00  0.00    -0.503 OA
ATOM     11  H   UNL     1       2.130   2.126  -3.425  0.00  0.00    +0.292 HD
ENDBRANCH   5  10
ENDBRANCH   1   2
BRANCH   1  12
ATOM     12  C   UNL     1       5.451  -3.320  -1.888  0.00  0.00    +0.239 C 
ATOM     13  O   UNL     1       5.252  -3.858  -0.819  0.00  0.00    -0.273 OA
ATOM     14  N   UNL     1       6.557  -2.571  -2.069  0.00  0.00    -0.308 N 
ATOM     15  H   UNL     1       6.717  -2.141  -2.923  0.00  0.00    +0.149 HD
BRANCH  14  16
ATOM     16  C   UNL     1       7.518  -2.407  -0.975  0.00  0.00    +0.030 C 
ATOM     17  C   UNL     1       6.947  -1.439   0.064  0.00  0.00    +0.031 C 
ATOM     18  C   UNL     1       7.780  -3.764  -0.318  0.00  0.00    +0.031 C 
BRANCH  16  19
ATOM     19  C   UNL     1       8.829  -1.847  -1.528  0.00  0.00    +0.031 C 
BRANCH  19  20
ATOM     20  C   UNL     1       9.118  -2.477  -2.893  0.00  0.00    -0.036 C 
ATOM     21  C   UNL     1       8.322  -1.742  -3.973  0.00  0.00    +0.010 C 
ATOM     22  C   UNL     1      10.613  -2.368  -3.199  0.00  0.00    +0.010 C 
ATOM     23  C   UNL     1       8.708  -3.951  -2.871  0.00  0.00    +0.010 C 
ENDBRANCH  19  20
ENDBRANCH  16  19
ENDBRANCH  14  16
ENDBRANCH   1  12
BRANCH   1  24
ATOM     24  N   UNL     1       3.505  -4.542  -2.667  0.00  0.00    -0.278 N 
ATOM     25  C   UNL     1       2.417  -4.742  -3.436  0.00  0.00    +0.221 C 
ATOM     26  O   UNL     1       2.231  -4.051  -4.416  0.00  0.00    -0.275 OA
BRANCH  24  27
ATOM     27  C   UNL     1       3.729  -5.377  -1.484  0.00  0.00    +0.183 C 
BRANCH  27  32
ATOM     28  C   UNL     1       2.446  -2.589   2.519  0.00  0.00    +0.086 C 
ATOM     29  C   UNL     1       2.382  -3.615   1.417  0.00  0.00    +0.102 A 
ATOM     30  C   UNL     1       1.359  -4.457   1.185  0.00  0.00    +0.045 A 
ATOM     31  C   UNL     1       1.718  -5.238   0.062  0.00  0.00    +0.046 A 
ATOM     32  C   UNL     1       2.940  -4.827  -0.324  0.00  0.00    +0.122 A 
ATOM     33  O   UNL     1       3.334  -3.840   0.497  0.00  0.00    -0.463 OA
ENDBRANCH  27  32
ENDBRANCH  24  27
BRANCH  25  34
ATOM     34  C   UNL     1       1.431  -5.825  -3.080  0.00  0.00    +0.131 C 
BRANCH  34  35
ATOM     35  C   UNL     1       0.314  -5.841  -4.093  0.00  0.00    -0.039 A 
ATOM     36  C   UNL     1      -0.811  -5.063  -3.892  0.00  0.00    +0.004 A 
ATOM     37  C   UNL     1      -1.835  -5.077  -4.821  0.00  0.00    +0.000 A 
ATOM     38  C   UNL     1      -1.734  -5.868  -5.950  0.00  0.00    +0.000 A 
ATOM     39  C   UNL     1      -0.608  -6.645  -6.151  0.00  0.00    +0.000 A 
ATOM     40  C   UNL     1       0.418  -6.628  -5.224  0.00  0.00    +0.004 A 
ENDBRANCH  34  35
ENDBRANCH  25  34
ENDBRANCH   1  24
TORSDOF 12
