REMARK  Name = ZINC36128908
REMARK  6 active torsions:
REMARK  status: ('A' for Active; 'I' for Inactive)
REMARK    1  A    between atoms: C_1  and  C_2
REMARK    2  A    between atoms: C_2  and  C_3
REMARK    3  A    between atoms: C_7  and  C_23
REMARK    4  A    between atoms: N_10  and  S_11
REMARK    5  A    between atoms: S_11  and  C_14
REMARK    6  A    between atoms: C_15  and  N_22
REMARK                            x       y       z     vdW  Elec       q    Type
REMARK                         _______ _______ _______ _____ _____    ______ ____
ROOT
ATOM      1  S   UNL     1      -1.175   1.062  -2.229  0.00  0.00    +0.064 S 
ATOM      2  O   UNL     1      -1.364   1.240  -3.626  0.00  0.00    -0.153 OA
ATOM      3  O   UNL     1      -2.217   0.624  -1.368  0.00  0.00    -0.153 OA
ENDROOT
BRANCH   1   4
ATOM      4  C   UNL     1      -0.615   2.608  -1.596  0.00  0.00    +0.144 A 
ATOM      5  C   UNL     1       0.381   3.312  -2.261  0.00  0.00    +0.054 A 
ATOM      6  C   UNL     1       0.819   4.530  -1.759  0.00  0.00    +0.044 A 
ATOM      7  C   UNL     1       0.264   5.039  -0.600  0.00  0.00    +0.044 A 
ATOM      8  C   UNL     1      -0.727   4.335   0.061  0.00  0.00    +0.042 A 
ATOM      9  C   UNL     1      -1.170   3.123  -0.440  0.00  0.00    +0.070 A 
ATOM     10 CL   UNL     1      -2.419   2.247   0.388  0.00  0.00    -0.081 Cl
ATOM     11 CL   UNL     1       0.812   6.562   0.029  0.00  0.00    -0.083 Cl
BRANCH   5  12
ATOM     12  N   UNL     1       0.940   2.796  -3.432  0.00  0.00    -0.356 N 
ATOM     13  H   UNL     1       0.561   2.002  -3.841  0.00  0.00    +0.142 HD
ATOM     14  H   UNL     1       1.707   3.231  -3.836  0.00  0.00    +0.142 HD
ENDBRANCH   5  12
ENDBRANCH   1   4
BRANCH   1  20
ATOM     15  C   UNL     1       0.322  -0.680  -0.765  0.00  0.00    +0.105 C 
ATOM     16  C   UNL     1       0.433  -2.189  -1.009  0.00  0.00    +0.180 C 
ATOM     17  O   UNL     1       1.390  -2.429  -2.044  0.00  0.00    -0.374 OA
ATOM     18  C   UNL     1       1.034  -1.871  -3.311  0.00  0.00    +0.131 C 
ATOM     19  C   UNL     1       0.953  -0.345  -3.184  0.00  0.00    +0.141 C 
ATOM     20  N   UNL     1       0.069  -0.018  -2.054  0.00  0.00    -0.169 NA
ATOM     21  C   UNL     1       2.094  -2.243  -4.349  0.00  0.00    +0.039 C 
BRANCH  15  23
ATOM     22  C   UNL     1      -0.554  -1.063   1.544  0.00  0.00    +0.005 C 
ATOM     23  C   UNL     1      -0.836  -0.398   0.195  0.00  0.00    +0.019 C 
ENDBRANCH  15  23
ENDBRANCH   1  20
TORSDOF 4
