REMARK  Name = ZINC21960461
REMARK  13 active torsions:
REMARK  status: ('A' for Active; 'I' for Inactive)
REMARK    1  A    between atoms: C_1  and  C_2
REMARK    2  A    between atoms: C_2  and  N_3
REMARK    3  A    between atoms: N_3  and  C_4
REMARK    4  A    between atoms: N_3  and  C_6
REMARK    5  A    between atoms: C_4  and  C_5
REMARK    6  A    between atoms: C_6  and  C_7
REMARK    7  A    between atoms: C_10  and  C_13
REMARK    8  A    between atoms: C_13  and  N_14
REMARK    9  A    between atoms: C_15  and  C_17
REMARK   10  A    between atoms: C_20  and  S_23
REMARK   11  A    between atoms: S_23  and  N_26
REMARK   12  A    between atoms: N_26  and  C_27
REMARK   13  A    between atoms: C_27  and  C_28
REMARK                            x       y       z     vdW  Elec       q    Type
REMARK                         _______ _______ _______ _____ _____    ______ ____
ROOT
ATOM      1  N   UNL     1      -2.910   1.761   5.861  0.00  0.00    -0.307 N 
ATOM      2  C   UNL     1      -3.492   1.994   7.054  0.00  0.00    +0.244 C 
ATOM      3  O   UNL     1      -4.438   2.753   7.130  0.00  0.00    -0.270 OA
ATOM      4  H   UNL     1      -2.053   1.074   5.791  0.00  0.00    +0.149 HD
ENDROOT
BRANCH   2   5
ATOM      5  C   UNL     1      -2.979   1.326   8.269  0.00  0.00    +0.037 A 
ATOM      6  C   UNL     1      -1.897   0.450   8.184  0.00  0.00    +0.015 A 
ATOM      7  C   UNL     1      -1.420  -0.166   9.323  0.00  0.00    +0.029 A 
ATOM      8  C   UNL     1      -2.020   0.076  10.546  0.00  0.00    +0.105 A 
ATOM      9  C   UNL     1      -3.097   0.939  10.637  0.00  0.00    +0.029 A 
ATOM     10  C   UNL     1      -3.580   1.566   9.506  0.00  0.00    +0.015 A 
BRANCH   8  11
ATOM     11  S   UNL     1      -1.409  -0.720  11.995  0.00  0.00    +0.058 S 
ATOM     12  O   UNL     1      -0.053  -1.055  11.733  0.00  0.00    -0.153 OA
ATOM     13  O   UNL     1      -1.793   0.092  13.096  0.00  0.00    -0.153 OA
BRANCH  11  14
ATOM     14  N   UNL     1      -2.229  -2.150  12.151  0.00  0.00    -0.187 NA
ATOM     15  H   UNL     1      -3.014  -2.238  12.917  0.00  0.00    +0.148 HD
BRANCH  14  16
ATOM     16  C   UNL     1      -2.065  -3.202  11.145  0.00  0.00    +0.137 C 
BRANCH  16  17
ATOM     17  C   UNL     1      -2.610  -4.522  11.694  0.00  0.00    +0.134 C 
ATOM     18  C   UNL     1      -2.334  -5.672  10.700  0.00  0.00    +0.035 C 
ATOM     19  C   UNL     1      -3.595  -6.561  10.797  0.00  0.00    +0.031 C 
ATOM     20  C   UNL     1      -4.482  -5.843  11.837  0.00  0.00    +0.160 C 
ATOM     21  O   UNL     1      -4.049  -4.465  11.804  0.00  0.00    -0.375 OA
ENDBRANCH  16  17
ENDBRANCH  14  16
ENDBRANCH  11  14
ENDBRANCH   8  11
ENDBRANCH   2   5
BRANCH   1  22
ATOM     22  C   UNL     1      -3.417   2.422   4.656  0.00  0.00    +0.139 C 
BRANCH  22  26
ATOM     23  C   UNL     1      -1.098   1.213   1.279  0.00  0.00    -0.064 A 
ATOM     24  C   UNL     1      -0.721   2.321   2.015  0.00  0.00    +0.002 A 
ATOM     25  C   UNL     1      -1.474   2.714   3.106  0.00  0.00    +0.005 A 
ATOM     26  C   UNL     1      -2.599   1.995   3.465  0.00  0.00    -0.030 A 
ATOM     27  C   UNL     1      -2.972   0.884   2.732  0.00  0.00    +0.005 A 
ATOM     28  C   UNL     1      -2.222   0.493   1.640  0.00  0.00    +0.002 A 
BRANCH  23  29
ATOM     29  C   UNL     1      -0.280   0.786   0.088  0.00  0.00    -0.043 C 
BRANCH  29  30
ATOM     30  N   UNL     1      -0.790   1.449  -1.119  0.00  0.00    +0.382 N 
ATOM     31  H   UNL     1      -1.874   1.267  -1.172  0.00  0.00    -0.081 HD
BRANCH  30  33
ATOM     32  C   UNL     1       0.922   3.196  -0.999  0.00  0.00    -0.017 C 
ATOM     33  C   UNL     1      -0.579   2.901  -1.052  0.00  0.00    -0.082 C 
ENDBRANCH  30  33
BRANCH  30  34
ATOM     34  C   UNL     1      -0.178   0.883  -2.329  0.00  0.00    -0.082 C 
ATOM     35  C   UNL     1      -0.991   1.303  -3.556  0.00  0.00    -0.017 C 
ENDBRANCH  30  34
ENDBRANCH  29  30
ENDBRANCH  23  29
ENDBRANCH  22  26
ENDBRANCH   1  22
TORSDOF 11
