REMARK  Name = ZINC39949638
REMARK  7 active torsions:
REMARK  status: ('A' for Active; 'I' for Inactive)
REMARK    1  A    between atoms: C_6  and  C_7
REMARK    2  A    between atoms: C_8  and  C_9
REMARK    3  A    between atoms: C_8  and  N_24
REMARK    4  A    between atoms: N_11  and  C_12
REMARK    5  A    between atoms: C_12  and  C_13
REMARK    6  A    between atoms: C_13  and  C_14
REMARK    7  A    between atoms: C_25  and  C_27
REMARK                            x       y       z     vdW  Elec       q    Type
REMARK                         _______ _______ _______ _____ _____    ______ ____
ROOT
ATOM      1  C   UNL     1      -1.256  -0.760   0.079  0.00  0.00    +0.036 C 
ATOM      2  C   UNL     1      -1.237  -2.100  -0.105  0.00  0.00    +0.097 C 
ENDROOT
BRANCH   1   8
ATOM      3  C   UNL     1       1.158  -0.535  -0.478  0.00  0.00    +0.009 A 
ATOM      4  C   UNL     1       2.337   0.179  -0.444  0.00  0.00    +0.020 A 
ATOM      5  C   UNL     1       2.381   1.420   0.170  0.00  0.00    +0.041 A 
ATOM      6  C   UNL     1       1.244   1.952   0.755  0.00  0.00    +0.020 A 
ATOM      7  C   UNL     1       0.058   1.249   0.729  0.00  0.00    +0.009 A 
ATOM      8  C   UNL     1       0.005  -0.004   0.110  0.00  0.00    -0.023 A 
ATOM      9 CL   UNL     1       3.870   2.313   0.208  0.00  0.00    -0.084 Cl
ENDBRANCH   1   8
BRANCH   2  10
ATOM     10  C   UNL     1      -2.496  -2.835  -0.290  0.00  0.00    +0.258 C 
ATOM     11  O   UNL     1      -2.479  -4.040  -0.455  0.00  0.00    -0.269 OA
ATOM     12  N   UNL     1      -3.670  -2.174  -0.277  0.00  0.00    -0.310 N 
ATOM     13  H   UNL     1      -3.684  -1.212  -0.146  0.00  0.00    +0.149 HD
BRANCH  12  14
ATOM     14  C   UNL     1      -4.926  -2.906  -0.462  0.00  0.00    +0.112 C 
BRANCH  14  15
ATOM     15  C   UNL     1      -6.100  -1.927  -0.406  0.00  0.00    +0.094 C 
BRANCH  15  16
ATOM     16  C   UNL     1      -7.392  -2.680  -0.596  0.00  0.00    +0.127 C 
ATOM     17  N   UNL     1      -7.449  -3.970  -0.772  0.00  0.00    -0.256 NA
ATOM     18  C   UNL     1      -8.868  -4.307  -0.846  0.00  0.00    +0.178 C 
ATOM     19  C   UNL     1      -9.276  -5.033  -2.094  0.00  0.00    +0.006 C 
ATOM     20  C   UNL     1     -10.451  -4.736  -2.662  0.00  0.00    -0.002 C 
ATOM     21  C   UNL     1     -11.321  -3.731  -2.179  0.00  0.00    +0.002 C 
ATOM     22  C   UNL     1     -10.871  -2.785  -1.298  0.00  0.00    +0.026 C 
ATOM     23  C   UNL     1      -9.540  -2.943  -0.862  0.00  0.00    +0.072 C 
ATOM     24  N   UNL     1      -8.595  -2.090  -0.594  0.00  0.00    -0.235 NA
ENDBRANCH  15  16
ENDBRANCH  14  15
ENDBRANCH  12  14
ENDBRANCH   2  10
BRANCH   2  25
ATOM     25  N   UNL     1      -0.019  -2.787  -0.118  0.00  0.00    -0.277 N 
ATOM     26  C   UNL     1       0.316  -3.546  -1.180  0.00  0.00    +0.250 C 
ATOM     27  O   UNL     1      -0.480  -3.710  -2.085  0.00  0.00    -0.270 OA
ATOM     28  H   UNL     1       0.586  -2.717   0.637  0.00  0.00    +0.155 HD
BRANCH  26  29
ATOM     29  C   UNL     1       1.649  -4.178  -1.246  0.00  0.00    +0.055 A 
ATOM     30  C   UNL     1       2.522  -4.088  -0.159  0.00  0.00    +0.016 A 
ATOM     31  C   UNL     1       3.765  -4.681  -0.226  0.00  0.00    +0.021 A 
ATOM     32  C   UNL     1       4.150  -5.364  -1.369  0.00  0.00    +0.042 A 
ATOM     33  C   UNL     1       3.290  -5.457  -2.450  0.00  0.00    +0.040 A 
ATOM     34  C   UNL     1       2.040  -4.873  -2.393  0.00  0.00    +0.054 A 
ATOM     35 CL   UNL     1       0.960  -4.996  -3.747  0.00  0.00    -0.083 Cl
ATOM     36 CL   UNL     1       5.717  -6.107  -1.444  0.00  0.00    -0.083 Cl
ENDBRANCH  26  29
ENDBRANCH   2  25
TORSDOF 7
