REMARK  Name = ZINC06133866
REMARK  13 active torsions:
REMARK  status: ('A' for Active; 'I' for Inactive)
REMARK    1  A    between atoms: C_1  and  C_2
REMARK    2  A    between atoms: C_2  and  O_3
REMARK    3  A    between atoms: O_3  and  C_4
REMARK    4  A    between atoms: C_11  and  C_16
REMARK    5  A    between atoms: C_16  and  C_18
REMARK    6  A    between atoms: C_16  and  N_75
REMARK    7  A    between atoms: N_22  and  C_23
REMARK    8  A    between atoms: C_23  and  C_24
REMARK    9  A    between atoms: C_23  and  C_25
REMARK   10  A    between atoms: C_23  and  C_26
REMARK   11  A    between atoms: N_29  and  C_32
REMARK   12  A    between atoms: C_36  and  C_39
REMARK   13  A    between atoms: C_37  and  C_38
REMARK                            x       y       z     vdW  Elec       q    Type
REMARK                         _______ _______ _______ _____ _____    ______ ____
ROOT
ATOM      1  C   UNL     1       2.602   1.067  -0.036  0.00  0.00    +0.039 C 
ENDROOT
BRANCH   1   9
ATOM      2  C   UNL     1      -1.567   5.295  -1.818  0.00  0.00    +0.121 A 
ATOM      3  C   UNL     1      -2.336   5.245  -0.658  0.00  0.00    +0.047 A 
ATOM      4  C   UNL     1      -2.002   4.391   0.370  0.00  0.00    +0.030 A 
ATOM      5  C   UNL     1      -0.875   3.582   0.262  0.00  0.00    +0.049 A 
ATOM      6  C   UNL     1      -0.091   3.634  -0.906  0.00  0.00    +0.002 A 
ATOM      7  C   UNL     1      -0.448   4.496  -1.948  0.00  0.00    +0.055 A 
ATOM      8  C   UNL     1       1.088   2.773  -1.008  0.00  0.00    +0.017 A 
ATOM      9  C   UNL     1       1.391   1.961   0.035  0.00  0.00    +0.011 A 
ATOM     10  C   UNL     1       0.575   1.950   1.187  0.00  0.00    +0.251 A 
ATOM     11  O   UNL     1       0.865   1.213   2.113  0.00  0.00    -0.268 OA
ATOM     12  N   UNL     1      -0.513   2.733   1.288  0.00  0.00    -0.322 N 
ATOM     13  H   UNL     1      -1.069   2.699   2.119  0.00  0.00    +0.169 HD
BRANCH   2  14
ATOM     14  O   UNL     1      -1.919   6.135  -2.828  0.00  0.00    -0.492 OA
BRANCH  14  16
ATOM     15  C   UNL     1      -3.322   7.808  -3.863  0.00  0.00    +0.048 C 
ATOM     16  C   UNL     1      -3.087   6.934  -2.629  0.00  0.00    +0.225 C 
ENDBRANCH  14  16
ENDBRANCH   2  14
ENDBRANCH   1   9
BRANCH   1  22
ATOM     17  C   UNL     1       3.871   2.834   1.027  0.00  0.00    -0.058 C 
ATOM     18  C   UNL     1       4.769   3.162   2.222  0.00  0.00    +0.086 C 
ATOM     19  N   UNL     1       5.979   2.330   2.166  0.00  0.00    -0.333 N 
ATOM     20  C   UNL     1       5.633   0.901   2.194  0.00  0.00    +0.086 C 
ATOM     21  C   UNL     1       4.735   0.573   0.998  0.00  0.00    -0.058 C 
ATOM     22  N   UNL     1       3.513   1.401   1.079  0.00  0.00    +0.391 N 
ATOM     23  H   UNL     1       3.038   1.208   1.968  0.00  0.00    -0.080 HD
BRANCH  19  24
ATOM     24  C   UNL     1       6.857   2.652   3.203  0.00  0.00    +0.033 A 
ATOM     25  C   UNL     1       6.479   2.448   4.524  0.00  0.00    +0.023 A 
ATOM     26  C   UNL     1       7.350   2.768   5.547  0.00  0.00    +0.002 A 
ATOM     27  C   UNL     1       8.598   3.291   5.257  0.00  0.00    +0.004 A 
ATOM     28  C   UNL     1       8.977   3.495   3.943  0.00  0.00    -0.046 A 
ATOM     29  C   UNL     1       8.112   3.172   2.915  0.00  0.00    -0.027 A 
ATOM     30  C   UNL     1       8.529   3.389   1.483  0.00  0.00    +0.046 C 
ATOM     31  C   UNL     1      10.337   4.065   3.632  0.00  0.00    +0.044 C 
ENDBRANCH  19  24
ENDBRANCH   1  22
BRANCH   1  32
ATOM     32  C   UNL     1       3.294   1.263  -1.360  0.00  0.00    +0.143 A 
ATOM     33  N   UNL     1       3.989   2.310  -1.732  0.00  0.00    -0.115 NA
ATOM     34  N   UNL     1       4.418   2.098  -2.928  0.00  0.00    -0.023 NA
ATOM     35  N   UNL     1       4.016   0.942  -3.329  0.00  0.00    -0.043 NA
ATOM     36  N   UNL     1       3.324   0.394  -2.388  0.00  0.00    -0.225 N 
BRANCH  36  37
ATOM     37  C   UNL     1       2.687  -0.925  -2.431  0.00  0.00    +0.059 C 
ATOM     38  C   UNL     1       1.189  -0.777  -2.158  0.00  0.00    +0.036 C 
ATOM     39  C   UNL     1       2.895  -1.546  -3.813  0.00  0.00    +0.036 C 
ATOM     40  C   UNL     1       3.312  -1.828  -1.366  0.00  0.00    +0.036 C 
ENDBRANCH  36  37
ENDBRANCH   1  32
TORSDOF 7
