REMARK  Name = ZINC59419960
REMARK  17 active torsions:
REMARK  status: ('A' for Active; 'I' for Inactive)
REMARK    1  A    between atoms: C_1  and  C_2
REMARK    2  A    between atoms: C_5  and  S_8
REMARK    3  A    between atoms: S_8  and  N_11
REMARK    4  A    between atoms: N_11  and  C_12
REMARK    5  A    between atoms: C_12  and  C_14
REMARK    6  A    between atoms: C_12  and  C_18
REMARK    7  A    between atoms: C_14  and  C_15
REMARK    8  A    between atoms: C_15  and  C_16
REMARK    9  A    between atoms: C_15  and  C_17
REMARK   10  A    between atoms: N_20  and  C_21
REMARK   11  A    between atoms: C_21  and  C_22
REMARK   12  A    between atoms: C_25  and  O_28
REMARK   13  A    between atoms: O_28  and  C_29
REMARK   14  A    between atoms: C_29  and  C_30
REMARK   15  A    between atoms: C_30  and  N_31
REMARK   16  A    between atoms: N_31  and  C_32
REMARK   17  A    between atoms: N_31  and  C_33
REMARK                            x       y       z     vdW  Elec       q    Type
REMARK                         _______ _______ _______ _____ _____    ______ ____
ROOT
ATOM      1  C   UNL     1       3.711  -5.636   1.134  0.00  0.00    +0.232 C 
ATOM      2  O   UNL     1       3.741  -6.600   0.398  0.00  0.00    -0.274 OA
ATOM      3  N   UNL     1       4.679  -5.463   2.056  0.00  0.00    -0.310 N 
ATOM      4  H   UNL     1       4.655  -4.692   2.644  0.00  0.00    +0.149 HD
ENDROOT
BRANCH   1   5
ATOM      5  C   UNL     1       2.592  -4.634   1.018  0.00  0.00    +0.162 C 
BRANCH   5   6
ATOM      6  N   UNL     1       1.677  -5.045  -0.049  0.00  0.00    -0.178 NA
ATOM      7  H   UNL     1       1.859  -4.795  -0.968  0.00  0.00    +0.149 HD
BRANCH   6   8
ATOM      8  S   UNL     1       0.330  -5.938   0.314  0.00  0.00    +0.059 S 
ATOM      9  O   UNL     1       0.765  -7.012   1.137  0.00  0.00    -0.153 OA
ATOM     10  O   UNL     1      -0.361  -6.147  -0.910  0.00  0.00    -0.153 OA
BRANCH   8  15
ATOM     11  C   UNL     1      -3.237  -2.480   3.737  0.00  0.00    +0.044 C 
ATOM     12  C   UNL     1      -2.346  -3.343   2.882  0.00  0.00    -0.050 A 
ATOM     13  C   UNL     1      -2.405  -3.246   1.505  0.00  0.00    +0.005 A 
ATOM     14  C   UNL     1      -1.587  -4.038   0.721  0.00  0.00    +0.029 A 
ATOM     15  C   UNL     1      -0.711  -4.927   1.314  0.00  0.00    +0.105 A 
ATOM     16  C   UNL     1      -0.652  -5.024   2.692  0.00  0.00    +0.029 A 
ATOM     17  C   UNL     1      -1.467  -4.229   3.476  0.00  0.00    +0.005 A 
ENDBRANCH   8  15
ENDBRANCH   6   8
ENDBRANCH   5   6
BRANCH   5  18
ATOM     18  C   UNL     1       3.174  -3.257   0.688  0.00  0.00    +0.032 C 
BRANCH  18  19
ATOM     19  C   UNL     1       2.052  -2.216   0.693  0.00  0.00    -0.015 C 
ATOM     20  C   UNL     1       1.501  -2.066   2.112  0.00  0.00    +0.007 C 
ATOM     21  C   UNL     1       2.604  -0.871   0.215  0.00  0.00    +0.007 C 
ENDBRANCH  18  19
ENDBRANCH   5  18
ENDBRANCH   1   5
BRANCH   3  22
ATOM     22  C   UNL     1       5.767  -6.437   2.169  0.00  0.00    +0.139 C 
BRANCH  22  23
ATOM     23  C   UNL     1       6.709  -6.014   3.266  0.00  0.00    -0.030 A 
ATOM     24  C   UNL     1       7.780  -5.190   2.976  0.00  0.00    +0.009 A 
ATOM     25  C   UNL     1       8.646  -4.801   3.980  0.00  0.00    +0.046 A 
ATOM     26  C   UNL     1       8.438  -5.237   5.281  0.00  0.00    +0.120 A 
ATOM     27  C   UNL     1       7.362  -6.064   5.569  0.00  0.00    +0.046 A 
ATOM     28  C   UNL     1       6.497  -6.446   4.563  0.00  0.00    +0.009 A 
BRANCH  26  29
ATOM     29  O   UNL     1       9.288  -4.856   6.270  0.00  0.00    -0.494 OA
BRANCH  29  30
ATOM     30  C   UNL     1       9.014  -5.344   7.585  0.00  0.00    +0.210 C 
BRANCH  30  31
ATOM     31  C   UNL     1      10.069  -4.813   8.557  0.00  0.00    -0.038 C 
BRANCH  31  32
ATOM     32  N   UNL     1       9.956  -3.351   8.653  0.00  0.00    +0.378 N 
ATOM     33  C   UNL     1       8.663  -2.999   9.254  0.00  0.00    -0.096 C 
ATOM     34  C   UNL     1      11.044  -2.830   9.491  0.00  0.00    -0.096 C 
ATOM     35  H   UNL     1      10.020  -2.948   7.730  0.00  0.00    -0.082 HD
ENDBRANCH  31  32
ENDBRANCH  30  31
ENDBRANCH  29  30
ENDBRANCH  26  29
ENDBRANCH  22  23
ENDBRANCH   3  22
TORSDOF 12
