REMARK  Name = ZINC64723147
REMARK  9 active torsions:
REMARK  status: ('A' for Active; 'I' for Inactive)
REMARK    1  A    between atoms: C_1  and  N_2
REMARK    2  A    between atoms: N_2  and  C_3
REMARK    3  A    between atoms: N_2  and  C_4
REMARK    4  A    between atoms: C_7  and  C_10
REMARK    5  A    between atoms: C_10  and  C_12
REMARK    6  A    between atoms: C_10  and  C_24
REMARK    7  A    between atoms: C_12  and  N_13
REMARK    8  A    between atoms: C_17  and  S_20
REMARK    9  A    between atoms: S_20  and  N_23
REMARK                            x       y       z     vdW  Elec       q    Type
REMARK                         _______ _______ _______ _____ _____    ______ ____
ROOT
ATOM      1  C   UNL     1      -0.006  -2.813  -4.924  0.00  0.00    +0.064 C 
ENDROOT
BRANCH   1   2
ATOM      2  C   UNL     1      -1.246  -2.457  -5.704  0.00  0.00    -0.033 C 
ATOM      3  C   UNL     1      -2.219  -3.301  -6.114  0.00  0.00    -0.000 A 
ATOM      4  C   UNL     1      -2.408  -4.749  -5.965  0.00  0.00    +0.010 A 
ATOM      5  C   UNL     1      -3.509  -5.326  -6.497  0.00  0.00    +0.001 A 
ATOM      6  C   UNL     1      -4.472  -4.578  -7.188  0.00  0.00    +0.002 A 
ATOM      7  C   UNL     1      -4.368  -3.244  -7.367  0.00  0.00    +0.026 A 
ATOM      8  C   UNL     1      -3.251  -2.533  -6.848  0.00  0.00    +0.043 A 
ATOM      9  N   UNL     1      -2.928  -1.264  -6.889  0.00  0.00    -0.380 N 
ATOM     10  C   UNL     1      -1.656  -1.081  -6.180  0.00  0.00    +0.145 C 
ATOM     11  H   UNL     1      -3.446  -0.561  -7.313  0.00  0.00    +0.160 HD
ENDBRANCH   1   2
BRANCH   1  15
ATOM     12  C   UNL     1       0.000  -0.696  -1.211  0.00  0.00    +0.029 A 
ATOM     13  C   UNL     1       0.013  -2.085  -1.221  0.00  0.00    +0.023 A 
ATOM     14  C   UNL     1       0.010  -2.766  -2.422  0.00  0.00    +0.006 A 
ATOM     15  C   UNL     1      -0.005  -2.066  -3.615  0.00  0.00    -0.039 A 
ATOM     16  C   UNL     1      -0.018  -0.684  -3.609  0.00  0.00    +0.006 A 
ATOM     17  C   UNL     1      -0.021   0.004  -2.411  0.00  0.00    +0.023 A 
BRANCH  12  19
ATOM     18  C   UNL     1      -0.018   1.461   0.010  0.00  0.00    +0.129 C 
ATOM     19  N   UNL     1       0.002  -0.004   0.002  0.00  0.00    -0.336 N 
ATOM     20  C   UNL     1       0.024  -0.743   1.267  0.00  0.00    +0.129 C 
ENDBRANCH  12  19
ENDBRANCH   1  15
BRANCH   1  21
ATOM     21  C   UNL     1       1.234  -2.427  -5.733  0.00  0.00    +0.115 C 
BRANCH  21  22
ATOM     22  N   UNL     1       1.295  -3.239  -6.951  0.00  0.00    -0.328 N 
ATOM     23  C   UNL     1       2.341  -3.066  -7.850  0.00  0.00    +0.119 A 
ATOM     24  C   UNL     1       3.329  -2.124  -7.584  0.00  0.00    +0.045 A 
ATOM     25  C   UNL     1       4.364  -1.962  -8.487  0.00  0.00    +0.033 A 
ATOM     26  C   UNL     1       4.376  -2.752  -9.630  0.00  0.00    +0.123 A 
ATOM     27  C   UNL     1       3.363  -3.667  -9.830  0.00  0.00    +0.141 A 
ATOM     28  N   UNL     1       2.390  -3.804  -8.948  0.00  0.00    -0.239 NA
ATOM     29  H   UNL     1       0.605  -3.897  -7.130  0.00  0.00    +0.147 HD
BRANCH  26  30
ATOM     30  S   UNL     1       5.672  -2.585 -10.813  0.00  0.00    +0.057 S 
ATOM     31  O   UNL     1       5.154  -3.053 -12.051  0.00  0.00    -0.153 OA
ATOM     32  O   UNL     1       6.201  -1.276 -10.655  0.00  0.00    -0.153 OA
BRANCH  30  33
ATOM     33  N   UNL     1       6.873  -3.638 -10.374  0.00  0.00    -0.203 NA
ATOM     34  H   UNL     1       6.767  -4.194  -9.587  0.00  0.00    +0.144 HD
ATOM     35  H   UNL     1       7.683  -3.697 -10.905  0.00  0.00    +0.144 HD
ENDBRANCH  30  33
ENDBRANCH  26  30
ENDBRANCH  21  22
ENDBRANCH   1  21
TORSDOF 7
