REMARK  Name = ZINC35512852
REMARK  8 active torsions:
REMARK  status: ('A' for Active; 'I' for Inactive)
REMARK    1  A    between atoms: C_1  and  C_2
REMARK    2  A    between atoms: C_2  and  C_30
REMARK    3  A    between atoms: C_8  and  S_11
REMARK    4  A    between atoms: S_11  and  N_14
REMARK    5  A    between atoms: N_14  and  C_15
REMARK    6  A    between atoms: C_18  and  S_21
REMARK    7  A    between atoms: S_21  and  N_24
REMARK    8  A    between atoms: C_25  and  C_27
REMARK                            x       y       z     vdW  Elec       q    Type
REMARK                         _______ _______ _______ _____ _____    ______ ____
ROOT
ATOM      1  S   UNL     1       1.066  -0.616   5.222  0.00  0.00    +0.072 S 
ATOM      2  O   UNL     1       2.248  -0.824   5.984  0.00  0.00    -0.150 OA
ATOM      3  O   UNL     1       0.188   0.475   5.461  0.00  0.00    -0.150 OA
ENDROOT
BRANCH   1  11
ATOM      4  C   UNL     1       0.607   2.608   0.442  0.00  0.00    +0.017 C 
ATOM      5  C   UNL     1       0.619   1.105   0.161  0.00  0.00    +0.008 C 
ATOM      6  C   UNL     1       1.542   0.788  -1.027  0.00  0.00    +0.124 C 
ATOM      7  N   UNL     1       2.581  -0.091  -0.483  0.00  0.00    -0.270 N 
ATOM      8  C   UNL     1       2.356  -0.312   0.879  0.00  0.00    +0.040 A 
ATOM      9  C   UNL     1       1.226   0.355   1.325  0.00  0.00    -0.017 A 
ATOM     10  C   UNL     1       0.834   0.263   2.647  0.00  0.00    +0.034 A 
ATOM     11  C   UNL     1       1.568  -0.499   3.537  0.00  0.00    +0.109 A 
ATOM     12  C   UNL     1       2.697  -1.169   3.102  0.00  0.00    +0.030 A 
ATOM     13  C   UNL     1       3.091  -1.080   1.784  0.00  0.00    +0.026 A 
ATOM     14  C   UNL     1       3.602  -0.610  -1.192  0.00  0.00    +0.223 C 
ATOM     15  O   UNL     1       4.463  -1.256  -0.632  0.00  0.00    -0.275 OA
ATOM     16  C   UNL     1      -0.800   0.603  -0.115  0.00  0.00    +0.017 C 
BRANCH  14  17
ATOM     17  C   UNL     1       3.676  -0.389  -2.681  0.00  0.00    +0.076 C 
ATOM     18  C   UNL     1       3.395  -1.588  -3.588  0.00  0.00    +0.013 C 
ATOM     19  C   UNL     1       4.823  -1.060  -3.439  0.00  0.00    +0.013 C 
ENDBRANCH  14  17
ENDBRANCH   1  11
BRANCH   1  20
ATOM     20  N   UNL     1       0.160  -1.994   5.369  0.00  0.00    -0.216 N 
ATOM     21  H   UNL     1       0.462  -2.714   5.944  0.00  0.00    +0.174 HD
BRANCH  20  22
ATOM     22  C   UNL     1      -1.039  -2.120   4.663  0.00  0.00    +0.048 A 
ATOM     23  C   UNL     1      -1.951  -1.072   4.648  0.00  0.00    +0.026 A 
ATOM     24  C   UNL     1      -3.135  -1.200   3.949  0.00  0.00    +0.030 A 
ATOM     25  C   UNL     1      -3.414  -2.369   3.265  0.00  0.00    +0.105 A 
ATOM     26  C   UNL     1      -2.508  -3.414   3.278  0.00  0.00    +0.030 A 
ATOM     27  C   UNL     1      -1.319  -3.291   3.970  0.00  0.00    +0.026 A 
BRANCH  25  28
ATOM     28  S   UNL     1      -4.926  -2.528   2.375  0.00  0.00    +0.056 S 
ATOM     29  O   UNL     1      -5.192  -3.920   2.271  0.00  0.00    -0.153 OA
ATOM     30  O   UNL     1      -5.844  -1.619   2.969  0.00  0.00    -0.153 OA
BRANCH  28  31
ATOM     31  N   UNL     1      -4.649  -1.983   0.836  0.00  0.00    -0.204 NA
ATOM     32  H   UNL     1      -3.769  -1.658   0.588  0.00  0.00    +0.144 HD
ATOM     33  H   UNL     1      -5.366  -1.988   0.183  0.00  0.00    +0.144 HD
ENDBRANCH  28  31
ENDBRANCH  25  28
ENDBRANCH  20  22
ENDBRANCH   1  20
TORSDOF 6
