REMARK  Name = ZINC14199712
REMARK  9 active torsions:
REMARK  status: ('A' for Active; 'I' for Inactive)
REMARK    1  A    between atoms: C_1  and  O_2
REMARK    2  A    between atoms: O_2  and  C_3
REMARK    3  A    between atoms: C_6  and  C_11
REMARK    4  A    between atoms: C_7  and  O_9
REMARK    5  A    between atoms: O_9  and  C_10
REMARK    6  A    between atoms: C_16  and  C_17
REMARK    7  A    between atoms: C_16  and  N_58
REMARK    8  A    between atoms: C_26  and  S_28
REMARK    9  A    between atoms: S_28  and  N_31
REMARK                            x       y       z     vdW  Elec       q    Type
REMARK                         _______ _______ _______ _____ _____    ______ ____
ROOT
ATOM      1  C   UNL     1      -1.155   0.475  -2.043  0.00  0.00    +0.020 C 
ENDROOT
BRANCH   1   2
ATOM      2  C   UNL     1       0.069  -0.195  -2.612  0.00  0.00    +0.203 C 
ATOM      3  O   UNL     1       1.174   0.151  -2.249  0.00  0.00    -0.277 OA
ATOM      4  N   UNL     1      -0.063  -1.179  -3.523  0.00  0.00    -0.272 N 
ATOM      5  C   UNL     1      -1.340  -1.681  -4.037  0.00  0.00    +0.118 C 
ATOM      6  C   UNL     1      -0.965  -2.785  -5.039  0.00  0.00    +0.056 C 
ATOM      7  C   UNL     1       0.546  -2.824  -5.015  0.00  0.00    -0.023 A 
ATOM      8  C   UNL     1       0.998  -1.866  -4.121  0.00  0.00    +0.040 A 
ATOM      9  C   UNL     1       2.372  -1.718  -3.923  0.00  0.00    +0.026 A 
ATOM     10  C   UNL     1       3.263  -2.508  -4.616  0.00  0.00    +0.030 A 
ATOM     11  C   UNL     1       2.803  -3.458  -5.510  0.00  0.00    +0.105 A 
ATOM     12  C   UNL     1       1.444  -3.614  -5.707  0.00  0.00    +0.034 A 
BRANCH  11  13
ATOM     13  S   UNL     1       3.946  -4.466  -6.394  0.00  0.00    +0.056 S 
ATOM     14  O   UNL     1       5.141  -4.496  -5.625  0.00  0.00    -0.153 OA
ATOM     15  O   UNL     1       3.246  -5.647  -6.761  0.00  0.00    -0.153 OA
BRANCH  13  16
ATOM     16  N   UNL     1       4.309  -3.674  -7.802  0.00  0.00    -0.204 NA
ATOM     17  H   UNL     1       5.180  -3.791  -8.214  0.00  0.00    +0.144 HD
ATOM     18  H   UNL     1       3.652  -3.092  -8.215  0.00  0.00    +0.144 HD
ENDBRANCH  13  16
ENDBRANCH  11  13
ENDBRANCH   1   2
BRANCH   1  23
ATOM     19  C   UNL     1      -1.908   2.205  -0.513  0.00  0.00    -0.033 C 
ATOM     20  C   UNL     1      -1.645   2.431   0.997  0.00  0.00    -0.012 C 
ATOM     21  C   UNL     1      -1.009   1.075   1.413  0.00  0.00    -0.020 C 
ATOM     22  C   UNL     1      -0.183   0.686   0.169  0.00  0.00    -0.077 C 
ATOM     23  N   UNL     1      -0.746   1.425  -0.975  0.00  0.00    +0.390 N 
ATOM     24  H   UNL     1      -0.035   2.064  -1.350  0.00  0.00    -0.080 HD
BRANCH  19  28
ATOM     25  C   UNL     1      -2.073   5.947  -2.578  0.00  0.00    +0.124 A 
ATOM     26  C   UNL     1      -0.888   5.225  -2.535  0.00  0.00    +0.046 A 
ATOM     27  C   UNL     1      -0.836   4.019  -1.862  0.00  0.00    +0.009 A 
ATOM     28  C   UNL     1      -1.966   3.523  -1.240  0.00  0.00    -0.019 A 
ATOM     29  C   UNL     1      -3.153   4.241  -1.280  0.00  0.00    +0.125 A 
ATOM     30  C   UNL     1      -3.206   5.454  -1.950  0.00  0.00    +0.091 A 
BRANCH  25  32
ATOM     31  C   UNL     1      -0.916   7.582  -3.859  0.00  0.00    +0.277 C 
ATOM     32  O   UNL     1      -2.122   7.135  -3.235  0.00  0.00    -0.495 OA
ENDBRANCH  25  32
BRANCH  29  33
ATOM     33  O   UNL     1      -4.263   3.755  -0.664  0.00  0.00    -0.495 OA
ATOM     34  C   UNL     1      -5.449   4.547  -0.746  0.00  0.00    +0.277 C 
ENDBRANCH  29  33
ENDBRANCH  19  28
ENDBRANCH   1  23
TORSDOF 7
