REMARK  Name = ZINC09504853
REMARK  7 active torsions:
REMARK  status: ('A' for Active; 'I' for Inactive)
REMARK    1  A    between atoms: C_1  and  C_2
REMARK    2  A    between atoms: C_4  and  N_33
REMARK    3  A    between atoms: C_7  and  N_8
REMARK    4  A    between atoms: N_8  and  S_17
REMARK    5  A    between atoms: C_9  and  C_11
REMARK    6  A    between atoms: S_17  and  C_20
REMARK    7  A    between atoms: C_23  and  C_25
REMARK                            x       y       z     vdW  Elec       q    Type
REMARK                         _______ _______ _______ _____ _____    ______ ____
ROOT
ATOM      1  N   UNL     1       1.532   1.720  -0.281  0.00  0.00    -0.135 N 
ATOM      2  C   UNL     1       2.601   1.717  -1.102  0.00  0.00    +0.270 C 
ATOM      3  O   UNL     1       2.465   1.429  -2.275  0.00  0.00    -0.268 OA
ENDROOT
BRANCH   1  10
ATOM      4  C   UNL     1      -0.026   4.015  -0.908  0.00  0.00    +0.046 C 
ATOM      5  C   UNL     1      -0.547   2.617  -1.124  0.00  0.00    -0.026 A 
ATOM      6  C   UNL     1      -1.813   2.424  -1.639  0.00  0.00    +0.028 A 
ATOM      7  C   UNL     1      -2.293   1.136  -1.837  0.00  0.00    +0.025 A 
ATOM      8  C   UNL     1      -1.496   0.042  -1.523  0.00  0.00    +0.024 A 
ATOM      9  C   UNL     1      -0.233   0.235  -1.003  0.00  0.00    +0.027 A 
ATOM     10  C   UNL     1       0.247   1.524  -0.804  0.00  0.00    +0.063 A 
BRANCH   7  11
ATOM     11  N   UNL     1      -3.576   0.940  -2.360  0.00  0.00    -0.358 N 
ATOM     12  H   UNL     1      -4.130   1.704  -2.584  0.00  0.00    +0.142 HD
ATOM     13  H   UNL     1      -3.911   0.040  -2.498  0.00  0.00    +0.142 HD
ENDBRANCH   7  11
ENDBRANCH   1  10
BRANCH   2  14
ATOM     14  C   UNL     1       3.938   2.063  -0.575  0.00  0.00    +0.039 A 
ATOM     15  C   UNL     1       4.494   3.315  -0.842  0.00  0.00    +0.013 A 
ATOM     16  C   UNL     1       5.740   3.633  -0.342  0.00  0.00    +0.001 A 
ATOM     17  C   UNL     1       6.443   2.711   0.412  0.00  0.00    +0.000 A 
ATOM     18  C   UNL     1       5.899   1.466   0.676  0.00  0.00    +0.001 A 
ATOM     19  C   UNL     1       4.652   1.137   0.187  0.00  0.00    +0.013 A 
ENDBRANCH   2  14
BRANCH   1  20
ATOM     20  S   UNL     1       1.737   1.956   1.345  0.00  0.00    +0.088 S 
ATOM     21  O   UNL     1       3.134   1.883   1.593  0.00  0.00    -0.149 OA
ATOM     22  O   UNL     1       0.960   3.094   1.692  0.00  0.00    -0.149 OA
BRANCH  20  23
ATOM     23  C   UNL     1       1.007   0.579   2.167  0.00  0.00    +0.147 A 
ATOM     24  C   UNL     1       1.600  -0.550   2.632  0.00  0.00    +0.037 A 
ATOM     25  C   UNL     1       0.828  -1.507   3.254  0.00  0.00    +0.020 A 
ATOM     26  C   UNL     1      -0.519  -1.290   3.373  0.00  0.00    +0.041 A 
ATOM     27  S   UNL     1      -0.705   0.306   2.596  0.00  0.00    -0.067 S 
BRANCH  26  28
ATOM     28  C   UNL     1      -1.550  -2.154   3.985  0.00  0.00    +0.098 A 
ATOM     29  C   UNL     1      -2.903  -1.734   4.003  0.00  0.00    +0.036 A 
ATOM     30  C   UNL     1      -3.826  -2.557   4.575  0.00  0.00    +0.073 A 
ATOM     31  C   UNL     1      -3.375  -3.781   5.118  0.00  0.00    +0.265 A 
ATOM     32  O   UNL     1      -4.166  -4.550   5.641  0.00  0.00    -0.266 OA
ATOM     33  N   UNL     1      -2.068  -4.094   5.055  0.00  0.00    -0.243 N 
ATOM     34  H   UNL     1      -1.766  -4.936   5.429  0.00  0.00    +0.192 HD
ATOM     35  N   UNL     1      -1.210  -3.311   4.507  0.00  0.00    -0.170 NA
ENDBRANCH  26  28
ENDBRANCH  20  23
ENDBRANCH   1  20
TORSDOF 6
