REMARK  Name = ZINC42968588
REMARK  4 active torsions:
REMARK  status: ('A' for Active; 'I' for Inactive)
REMARK    1  A    between atoms: C_3  and  C_19
REMARK    2  A    between atoms: C_7  and  C_9
REMARK    3  A    between atoms: N_21  and  N_22
REMARK    4  A    between atoms: C_23  and  C_25
REMARK                            x       y       z     vdW  Elec       q    Type
REMARK                         _______ _______ _______ _____ _____    ______ ____
ROOT
ATOM      1  C   UNL     1      -0.176   1.133  -0.158  0.00  0.00    +0.021 C 
ATOM      2  C   UNL     1       1.295   1.508   0.161  0.00  0.00    +0.033 C 
ATOM      3  C   UNL     1       2.051   0.820  -1.003  0.00  0.00    +0.163 C 
ATOM      4  N   UNL     1       1.327  -0.444  -1.228  0.00  0.00    -0.289 N 
ATOM      5  C   UNL     1      -0.051  -0.292  -0.739  0.00  0.00    +0.108 C 
ATOM      6  C   UNL     1       1.843  -1.555  -1.790  0.00  0.00    +0.222 C 
ATOM      7  O   UNL     1       3.023  -1.604  -2.065  0.00  0.00    -0.275 OA
ENDROOT
BRANCH   6   8
ATOM      8  C   UNL     1       0.952  -2.737  -2.078  0.00  0.00    +0.048 C 
ATOM      9  C   UNL     1       0.312  -3.221  -0.775  0.00  0.00    +0.019 C 
ATOM     10  C   UNL     1      -0.592  -4.421  -1.067  0.00  0.00    -0.009 C 
ATOM     11  C   UNL     1       0.241  -5.550  -1.677  0.00  0.00    +0.007 C 
ATOM     12  C   UNL     1       0.881  -5.066  -2.979  0.00  0.00    -0.009 C 
ATOM     13  C   UNL     1       1.785  -3.866  -2.687  0.00  0.00    +0.019 C 
ATOM     14  C   UNL     1      -0.214  -4.652  -3.963  0.00  0.00    +0.007 C 
ATOM     15  C   UNL     1      -1.047  -3.522  -3.354  0.00  0.00    -0.009 C 
ATOM     16  C   UNL     1      -1.688  -4.007  -2.051  0.00  0.00    +0.007 C 
ATOM     17  C   UNL     1      -0.143  -2.323  -3.062  0.00  0.00    +0.019 C 
ENDBRANCH   6   8
BRANCH   3  18
ATOM     18  C   UNL     1       3.480   0.546  -0.611  0.00  0.00    +0.250 C 
ATOM     19  O   UNL     1       3.773  -0.505  -0.081  0.00  0.00    -0.272 OA
ATOM     20  N   UNL     1       4.433   1.469  -0.849  0.00  0.00    -0.233 N 
ATOM     21  H   UNL     1       4.199   2.309  -1.273  0.00  0.00    +0.173 HD
BRANCH  20  22
ATOM     22  N   UNL     1       5.762   1.214  -0.484  0.00  0.00    -0.232 N 
ATOM     23  C   UNL     1       6.715   2.137  -0.723  0.00  0.00    +0.258 C 
ATOM     24  O   UNL     1       6.422   3.188  -1.252  0.00  0.00    -0.271 OA
ATOM     25  H   UNL     1       5.995   0.374  -0.061  0.00  0.00    +0.173 HD
BRANCH  23  26
ATOM     26  C   UNL     1       8.144   1.863  -0.330  0.00  0.00    +0.205 C 
ATOM     27  C   UNL     1       8.722   0.703  -1.180  0.00  0.00    +0.043 C 
ATOM     28  C   UNL     1      10.241   1.016  -1.111  0.00  0.00    +0.031 C 
ATOM     29  C   UNL     1      10.257   2.560  -1.084  0.00  0.00    +0.161 C 
ATOM     30  O   UNL     1       8.970   2.999  -0.631  0.00  0.00    -0.367 OA
ENDBRANCH  23  26
ENDBRANCH  20  22
ENDBRANCH   3  18
TORSDOF 4
