REMARK  Name = ZINC63572798
REMARK  4 active torsions:
REMARK  status: ('A' for Active; 'I' for Inactive)
REMARK    1  A    between atoms: C_1  and  C_2
REMARK    2  A    between atoms: C_5  and  C_8
REMARK    3  A    between atoms: N_26  and  C_27
REMARK    4  A    between atoms: C_30  and  C_33
REMARK                            x       y       z     vdW  Elec       q    Type
REMARK                         _______ _______ _______ _____ _____    ______ ____
ROOT
ATOM      1  C   UNL     1      -0.818  -4.624  -0.419  0.00  0.00    +0.134 C 
ATOM      2  C   UNL     1       0.691  -4.844  -0.573  0.00  0.00    +0.131 C 
ATOM      3  C   UNL     1       0.982  -6.246  -0.053  0.00  0.00    -0.035 C 
ATOM      4  C   UNL     1       1.589  -6.894  -1.040  0.00  0.00    +0.001 A 
ATOM      5  C   UNL     1       2.166  -8.246  -1.114  0.00  0.00    +0.030 A 
ATOM      6  C   UNL     1       2.712  -8.600  -2.308  0.00  0.00    +0.042 A 
ATOM      7  C   UNL     1       2.740  -7.753  -3.422  0.00  0.00    +0.022 A 
ATOM      8  C   UNL     1       2.237  -6.494  -3.441  0.00  0.00    +0.027 A 
ATOM      9  C   UNL     1       1.640  -6.008  -2.242  0.00  0.00    +0.043 A 
ATOM     10  N   UNL     1       1.103  -4.829  -1.978  0.00  0.00    -0.375 N 
ATOM     11 CL   UNL     1       3.410 -10.182  -2.458  0.00  0.00    -0.084 Cl
ATOM     12  C   UNL     1       0.539  -6.711   1.313  0.00  0.00    +0.052 C 
ATOM     13  C   UNL     1      -0.959  -6.378   1.431  0.00  0.00    +0.114 C 
ATOM     14  N   UNL     1      -1.194  -5.012   0.950  0.00  0.00    -0.276 N 
ATOM     15  C   UNL     1      -1.758  -4.103   1.769  0.00  0.00    +0.307 C 
ATOM     16  O   UNL     1      -2.121  -3.030   1.329  0.00  0.00    -0.252 OA
ATOM     17  N   UNL     1      -1.919  -4.385   3.078  0.00  0.00    -0.269 N 
ATOM     18  H   UNL     1      -1.545  -5.199   3.448  0.00  0.00    +0.156 HD
ATOM     19  H   UNL     1       0.991  -4.088  -2.594  0.00  0.00    +0.160 HD
ENDROOT
BRANCH   1  24
ATOM     20  C   UNL     1      -2.079   0.947  -1.293  0.00  0.00    +0.044 C 
ATOM     21  C   UNL     1      -1.750  -0.506  -1.065  0.00  0.00    -0.050 A 
ATOM     22  C   UNL     1      -0.699  -0.855  -0.238  0.00  0.00    +0.004 A 
ATOM     23  C   UNL     1      -0.397  -2.188  -0.029  0.00  0.00    +0.006 A 
ATOM     24  C   UNL     1      -1.147  -3.171  -0.646  0.00  0.00    -0.025 A 
ATOM     25  C   UNL     1      -2.199  -2.822  -1.472  0.00  0.00    +0.006 A 
ATOM     26  C   UNL     1      -2.504  -1.490  -1.678  0.00  0.00    +0.004 A 
ENDBRANCH   1  24
BRANCH  17  27
ATOM     27  C   UNL     1      -2.627  -3.501   3.901  0.00  0.00    +0.035 A 
ATOM     28  C   UNL     1      -2.612  -2.139   3.634  0.00  0.00    +0.023 A 
ATOM     29  C   UNL     1      -3.312  -1.270   4.449  0.00  0.00    +0.005 A 
ATOM     30  C   UNL     1      -4.026  -1.755   5.529  0.00  0.00    -0.050 A 
ATOM     31  C   UNL     1      -4.042  -3.111   5.797  0.00  0.00    +0.005 A 
ATOM     32  C   UNL     1      -3.349  -3.986   4.983  0.00  0.00    +0.023 A 
ATOM     33  C   UNL     1      -4.788  -0.804   6.415  0.00  0.00    +0.044 C 
ENDBRANCH  17  27
TORSDOF 2
