REMARK  Name = ZINC02281126
REMARK  7 active torsions:
REMARK  status: ('A' for Active; 'I' for Inactive)
REMARK    1  A    between atoms: C_1  and  C_2
REMARK    2  A    between atoms: C_2  and  C_3
REMARK    3  A    between atoms: C_6  and  N_9
REMARK    4  A    between atoms: N_9  and  C_10
REMARK    5  A    between atoms: C_11  and  C_12
REMARK    6  A    between atoms: C_11  and  C_14
REMARK    7  A    between atoms: C_16  and  C_19
REMARK                            x       y       z     vdW  Elec       q    Type
REMARK                         _______ _______ _______ _____ _____    ______ ____
ROOT
ATOM      1  C   UNL     1       4.153  -2.904   6.775  0.00  0.00    +0.120 A 
ATOM      2  N   UNL     1       5.024  -2.563   5.837  0.00  0.00    -0.238 NA
ATOM      3  C   UNL     1       6.310  -2.844   5.961  0.00  0.00    +0.086 A 
ATOM      4  C   UNL     1       6.749  -3.501   7.081  0.00  0.00    +0.075 A 
ATOM      5  S   UNL     1       5.213  -3.698   7.975  0.00  0.00    -0.074 S 
ENDROOT
BRANCH   3   6
ATOM      6  C   UNL     1       7.266  -2.454   4.899  0.00  0.00    +0.086 A 
ATOM      7  C   UNL     1       6.850  -1.791   3.770  0.00  0.00    +0.028 A 
ATOM      8  C   UNL     1       7.869  -1.447   2.775  0.00  0.00    +0.019 A 
ATOM      9  C   UNL     1       7.586  -0.551   1.738  0.00  0.00    +0.026 A 
ATOM     10  C   UNL     1       8.564  -0.244   0.818  0.00  0.00    +0.019 A 
ATOM     11  C   UNL     1       9.825  -0.819   0.915  0.00  0.00    +0.019 A 
ATOM     12  C   UNL     1      10.117  -1.704   1.932  0.00  0.00    +0.048 A 
ATOM     13  C   UNL     1       9.147  -2.029   2.868  0.00  0.00    +0.139 A 
ATOM     14  O   UNL     1       9.415  -2.902   3.869  0.00  0.00    -0.422 OA
ATOM     15  C   UNL     1       8.704  -2.757   5.013  0.00  0.00    +0.347 A 
ATOM     16  O   UNL     1       9.234  -2.876   6.102  0.00  0.00    -0.244 OA
ATOM     17 BR   UNL     1       8.188   0.965  -0.586  0.00  0.00    -0.050 Br
ENDBRANCH   3   6
BRANCH   1  19
ATOM     18  C   UNL     1       2.052  -2.151   5.742  0.00  0.00    +0.093 C 
ATOM     19  C   UNL     1       2.695  -2.681   6.821  0.00  0.00    +0.098 C 
BRANCH  18  20
ATOM     20  N   UNL     1       2.733  -1.942   4.576  0.00  0.00    -0.319 N 
ATOM     21  H   UNL     1       3.689  -2.102   4.537  0.00  0.00    +0.152 HD
BRANCH  20  25
ATOM     22  C   UNL     1       0.705  -0.620   1.188  0.00  0.00    -0.048 A 
ATOM     23  C   UNL     1       2.068  -0.847   1.131  0.00  0.00    +0.005 A 
ATOM     24  C   UNL     1       2.744  -1.285   2.253  0.00  0.00    +0.023 A 
ATOM     25  C   UNL     1       2.053  -1.498   3.439  0.00  0.00    +0.031 A 
ATOM     26  C   UNL     1       0.683  -1.269   3.493  0.00  0.00    +0.023 A 
ATOM     27  C   UNL     1       0.015  -0.826   2.369  0.00  0.00    +0.005 A 
BRANCH  22  29
ATOM     28  C   UNL     1      -0.029   1.387  -0.069  0.00  0.00    +0.009 C 
ATOM     29  C   UNL     1      -0.030  -0.142  -0.038  0.00  0.00    +0.032 C 
ENDBRANCH  22  29
ENDBRANCH  20  25
ENDBRANCH  18  20
BRANCH  19  30
ATOM     30  C   UNL     1       1.955  -3.022   7.998  0.00  0.00    +0.103 C 
ATOM     31  N   UNL     1       1.368  -3.293   8.933  0.00  0.00    -0.191 NA
ENDBRANCH  19  30
ENDBRANCH   1  19
TORSDOF 6
