REMARK  Name = ZINC02113592
REMARK  1 active torsions:
REMARK  status: ('A' for Active; 'I' for Inactive)
REMARK    1  A    between atoms: C_5  and  N_7
REMARK                            x       y       z     vdW  Elec       q    Type
REMARK                         _______ _______ _______ _____ _____    ______ ____
ROOT
ATOM      1  N   UNL     1       1.029  -2.006   3.850  0.00  0.00    -0.267 N 
ATOM      2  C   UNL     1       0.325  -1.136   3.099  0.00  0.00    +0.307 C 
ATOM      3  O   UNL     1       0.306   0.044   3.391  0.00  0.00    -0.252 OA
ATOM      4  N   UNL     1      -0.358  -1.574   2.023  0.00  0.00    -0.284 N 
ATOM      5  C   UNL     1      -0.257  -2.972   1.588  0.00  0.00    +0.114 C 
ATOM      6  C   UNL     1       0.055  -3.039   0.099  0.00  0.00    +0.027 C 
ATOM      7  C   UNL     1      -0.905  -2.160  -0.703  0.00  0.00    +0.018 C 
ATOM      8  C   UNL     1      -0.765  -0.717  -0.210  0.00  0.00    +0.054 C 
ATOM      9  C   UNL     1      -1.222  -0.661   1.257  0.00  0.00    +0.119 C 
ATOM     10  C   UNL     1       0.687  -0.302  -0.257  0.00  0.00    +0.027 A 
ATOM     11  C   UNL     1       0.954   1.025  -0.389  0.00  0.00    +0.022 A 
ATOM     12  C   UNL     1       2.273   1.491  -0.369  0.00  0.00    +0.007 A 
ATOM     13  C   UNL     1       3.285   0.595  -0.182  0.00  0.00    +0.070 A 
ATOM     14  C   UNL     1       2.975  -0.764  -0.035  0.00  0.00    +0.251 A 
ATOM     15  O   UNL     1       3.865  -1.565   0.201  0.00  0.00    -0.268 OA
ATOM     16  N   UNL     1       1.695  -1.198  -0.153  0.00  0.00    -0.312 N 
ATOM     17  C   UNL     1       1.490  -2.646  -0.201  0.00  0.00    +0.130 C 
ATOM     18  H   UNL     1       1.106  -2.933   3.575  0.00  0.00    +0.156 HD
ENDROOT
BRANCH   1  23
ATOM     19  C   UNL     1       1.850   0.032   6.801  0.00  0.00    +0.002 A 
ATOM     20  C   UNL     1       2.875  -0.712   7.357  0.00  0.00    +0.003 A 
ATOM     21  C   UNL     1       3.289  -1.884   6.753  0.00  0.00    +0.040 A 
ATOM     22  C   UNL     1       2.680  -2.317   5.589  0.00  0.00    +0.145 A 
ATOM     23  C   UNL     1       1.649  -1.571   5.028  0.00  0.00    +0.070 A 
ATOM     24  C   UNL     1       1.240  -0.392   5.636  0.00  0.00    +0.026 A 
ATOM     25  F   UNL     1       3.084  -3.463   4.999  0.00  0.00    -0.204 F 
ENDBRANCH   1  23
TORSDOF 1
