REMARK  Name = ZINC41584684
REMARK  6 active torsions:
REMARK  status: ('A' for Active; 'I' for Inactive)
REMARK    1  A    between atoms: C_4  and  C_7
REMARK    2  A    between atoms: C_10  and  C_12
REMARK    3  A    between atoms: C_17  and  O_37
REMARK    4  A    between atoms: C_18  and  C_23
REMARK    5  A    between atoms: C_23  and  N_24
REMARK    6  A    between atoms: C_29  and  C_31
REMARK                            x       y       z     vdW  Elec       q    Type
REMARK                         _______ _______ _______ _____ _____    ______ ____
ROOT
ATOM      1  C   UNL     1       7.365  -0.074  -0.064  0.00  0.00    +0.092 A 
ATOM      2  C   UNL     1       8.485  -0.890  -0.088  0.00  0.00    +0.029 A 
ATOM      3  C   UNL     1       9.762  -0.274  -0.060  0.00  0.00    +0.019 A 
ATOM      4  C   UNL     1      10.922  -1.032  -0.282  0.00  0.00    +0.015 A 
ATOM      5  C   UNL     1      12.140  -0.420  -0.294  0.00  0.00    +0.046 A 
ATOM      6  C   UNL     1      12.245   0.953  -0.079  0.00  0.00    +0.122 A 
ATOM      7  C   UNL     1      11.113   1.715   0.161  0.00  0.00    +0.020 A 
ATOM      8  C   UNL     1       9.867   1.109   0.185  0.00  0.00    +0.144 A 
ATOM      9  O   UNL     1       8.757   1.835   0.462  0.00  0.00    -0.421 OA
ATOM     10  C   UNL     1       7.588   1.383  -0.052  0.00  0.00    +0.347 A 
ATOM     11  O   UNL     1       6.748   2.151  -0.485  0.00  0.00    -0.244 OA
ENDROOT
BRANCH   1  15
ATOM     12  C   UNL     1       3.699  -0.688  -0.038  0.00  0.00    +0.079 A 
ATOM     13  C   UNL     1       3.727  -2.059  -0.051  0.00  0.00    +0.075 A 
ATOM     14  S   UNL     1       5.491  -2.353  -0.069  0.00  0.00    -0.075 S 
ATOM     15  C   UNL     1       6.003  -0.641  -0.058  0.00  0.00    +0.116 A 
ATOM     16  N   UNL     1       4.835  -0.016  -0.047  0.00  0.00    -0.239 NA
BRANCH  12  20
ATOM     17  C   UNL     1      -0.017   1.379   0.010  0.00  0.00    +0.000 A 
ATOM     18  C   UNL     1       1.169   2.092   0.002  0.00  0.00    +0.001 A 
ATOM     19  C   UNL     1       2.377   1.426  -0.013  0.00  0.00    +0.010 A 
ATOM     20  C   UNL     1       2.402   0.033  -0.021  0.00  0.00    +0.001 A 
ATOM     21  C   UNL     1       1.205  -0.680  -0.013  0.00  0.00    +0.010 A 
ATOM     22  C   UNL     1       0.002  -0.004   0.002  0.00  0.00    +0.001 A 
ENDBRANCH  12  20
ENDBRANCH   1  15
BRANCH   6  23
ATOM     23  O   UNL     1      13.465   1.548  -0.105  0.00  0.00    -0.506 OA
ATOM     24  H   UNL     1      13.730   1.863  -0.980  0.00  0.00    +0.292 HD
ENDBRANCH   6  23
BRANCH   7  25
ATOM     25  C   UNL     1      11.236   3.198   0.398  0.00  0.00    -0.035 C 
BRANCH  25  26
ATOM     26  N   UNL     1      11.141   3.908  -0.885  0.00  0.00    +0.387 N 
ATOM     27  C   UNL     1      12.285   3.545  -1.730  0.00  0.00    -0.078 C 
ATOM     28  C   UNL     1      12.148   4.218  -3.097  0.00  0.00    -0.019 C 
ATOM     29  C   UNL     1      12.112   5.737  -2.910  0.00  0.00    -0.003 C 
ATOM     30  C   UNL     1      10.960   6.099  -1.968  0.00  0.00    -0.011 C 
ATOM     31  C   UNL     1      11.141   5.356  -0.643  0.00  0.00    -0.036 C 
ATOM     32  H   UNL     1      10.285   3.646  -1.350  0.00  0.00    -0.080 HD
BRANCH  31  33
ATOM     33  C   UNL     1      10.010   5.708   0.288  0.00  0.00    -0.043 A 
ATOM     34  C   UNL     1      10.189   6.658   1.283  0.00  0.00    +0.005 A 
ATOM     35  C   UNL     1       9.120   6.951   2.116  0.00  0.00    +0.020 A 
ATOM     36  C   UNL     1       7.920   6.291   1.930  0.00  0.00    +0.111 A 
ATOM     37  N   UNL     1       7.786   5.393   0.974  0.00  0.00    -0.263 NA
ATOM     38  C   UNL     1       8.779   5.094   0.159  0.00  0.00    +0.112 A 
ENDBRANCH  31  33
ENDBRANCH  25  26
ENDBRANCH   7  25
TORSDOF 6
