REMARK  Name = ZINC35671567
REMARK  8 active torsions:
REMARK  status: ('A' for Active; 'I' for Inactive)
REMARK    1  A    between atoms: C_1  and  C_2
REMARK    2  A    between atoms: C_2  and  C_3
REMARK    3  A    between atoms: C_2  and  C_4
REMARK    4  A    between atoms: C_2  and  C_5
REMARK    5  A    between atoms: C_8  and  C_11
REMARK    6  A    between atoms: C_11  and  C_13
REMARK    7  A    between atoms: C_11  and  N_29
REMARK    8  A    between atoms: C_13  and  N_14
REMARK                            x       y       z     vdW  Elec       q    Type
REMARK                         _______ _______ _______ _____ _____    ______ ____
ROOT
ATOM      1  C   UNL     1       2.618  -1.921  -5.006  0.00  0.00    -0.017 C 
ENDROOT
BRANCH   1   2
ATOM      2  N   UNL     1       3.518  -0.940  -5.626  0.00  0.00    +0.385 N 
ATOM      3  C   UNL     1       2.737   0.211  -6.095  0.00  0.00    -0.078 C 
ATOM      4  C   UNL     1       3.678   1.272  -6.669  0.00  0.00    -0.019 C 
ATOM      5  C   UNL     1       4.460   0.673  -7.841  0.00  0.00    -0.004 C 
ATOM      6  C   UNL     1       5.213  -0.570  -7.357  0.00  0.00    -0.019 C 
ATOM      7  C   UNL     1       4.215  -1.563  -6.758  0.00  0.00    -0.078 C 
ATOM      8  H   UNL     1       4.196  -0.629  -4.946  0.00  0.00    -0.081 HD
ENDBRANCH   1   2
BRANCH   1  12
ATOM      9  C   UNL     1       0.494  -0.076  -1.793  0.00  0.00    -0.042 A 
ATOM     10  C   UNL     1      -0.157  -0.959  -2.634  0.00  0.00    +0.004 A 
ATOM     11  C   UNL     1       0.531  -1.556  -3.674  0.00  0.00    +0.002 A 
ATOM     12  C   UNL     1       1.869  -1.270  -3.873  0.00  0.00    -0.059 A 
ATOM     13  C   UNL     1       2.519  -0.386  -3.032  0.00  0.00    +0.002 A 
ATOM     14  C   UNL     1       1.830   0.215  -1.995  0.00  0.00    +0.004 A 
BRANCH   9  16
ATOM     15  C   UNL     1      -0.231   2.094  -0.837  0.00  0.00    +0.015 C 
ATOM     16  C   UNL     1      -0.256   0.575  -0.659  0.00  0.00    -0.013 C 
ATOM     17  C   UNL     1       0.408   0.206   0.669  0.00  0.00    +0.015 C 
ATOM     18  C   UNL     1      -1.705   0.085  -0.658  0.00  0.00    +0.015 C 
ENDBRANCH   9  16
ENDBRANCH   1  12
BRANCH   1  19
ATOM     19  C   UNL     1       3.438  -3.095  -4.467  0.00  0.00    +0.115 C 
BRANCH  19  20
ATOM     20  N   UNL     1       2.534  -4.122  -3.943  0.00  0.00    -0.300 N 
ATOM     21  C   UNL     1       2.230  -4.157  -2.618  0.00  0.00    +0.202 A 
ATOM     22  N   UNL     1       1.439  -5.038  -2.096  0.00  0.00    -0.235 NA
ATOM     23  C   UNL     1       0.841  -6.017  -2.853  0.00  0.00    +0.107 A 
ATOM     24  C   UNL     1      -0.035  -7.030  -2.410  0.00  0.00    +0.081 A 
ATOM     25  C   UNL     1      -0.508  -7.903  -3.363  0.00  0.00    +0.070 A 
ATOM     26  S   UNL     1       0.217  -7.369  -4.880  0.00  0.00    -0.073 S 
ATOM     27  C   UNL     1       1.141  -5.999  -4.229  0.00  0.00    +0.105 A 
ATOM     28  C   UNL     1       1.989  -5.042  -4.775  0.00  0.00    +0.268 A 
ATOM     29  O   UNL     1       2.238  -5.033  -5.969  0.00  0.00    -0.266 OA
ATOM     30  S   UNL     1      -1.597  -9.239  -3.040  0.00  0.00    -0.107 S 
ATOM     31  C   UNL     1      -1.243  -9.572  -1.282  0.00  0.00    +0.171 C 
ATOM     32  C   UNL     1      -1.035  -8.268  -0.567  0.00  0.00    +0.227 C 
ATOM     33  O   UNL     1      -1.450  -8.197   0.571  0.00  0.00    -0.275 OA
ATOM     34  N   UNL     1      -0.443  -7.181  -1.055  0.00  0.00    -0.282 N 
ATOM     35  H   UNL     1      -0.277  -6.443  -0.448  0.00  0.00    +0.155 HD
ENDBRANCH  19  20
ENDBRANCH   1  19
TORSDOF 5
