REMARK  Name = ZINC39029676
REMARK  6 active torsions:
REMARK  status: ('A' for Active; 'I' for Inactive)
REMARK    1  A    between atoms: C_1  and  C_2
REMARK    2  A    between atoms: C_2  and  C_3
REMARK    3  A    between atoms: C_2  and  C_4
REMARK    4  A    between atoms: C_4  and  C_6
REMARK    5  A    between atoms: C_4  and  N_19
REMARK    6  A    between atoms: C_6  and  N_8
REMARK                            x       y       z     vdW  Elec       q    Type
REMARK                         _______ _______ _______ _____ _____    ______ ____
ROOT
ATOM      1  C   UNL     1      -1.375  -0.631  -0.047  0.00  0.00    +0.168 C 
ENDROOT
BRANCH   1   2
ATOM      2  N   UNL     1      -1.989  -0.339  -1.345  0.00  0.00    -0.270 N 
ATOM      3  C   UNL     1      -2.099   1.050  -1.791  0.00  0.00    +0.214 C 
ATOM      4  N   UNL     1      -1.979   1.127  -3.252  0.00  0.00    -0.328 N 
ATOM      5  C   UNL     1      -2.654   0.192  -4.029  0.00  0.00    +0.040 A 
ATOM      6  C   UNL     1      -3.089   0.487  -5.310  0.00  0.00    +0.024 A 
ATOM      7  C   UNL     1      -3.746  -0.479  -6.048  0.00  0.00    +0.002 A 
ATOM      8  C   UNL     1      -3.973  -1.738  -5.517  0.00  0.00    +0.001 A 
ATOM      9  C   UNL     1      -3.551  -2.047  -4.241  0.00  0.00    +0.015 A 
ATOM     10  C   UNL     1      -2.892  -1.081  -3.483  0.00  0.00    +0.058 A 
ATOM     11  C   UNL     1      -2.438  -1.355  -2.108  0.00  0.00    +0.250 C 
ATOM     12  O   UNL     1      -2.473  -2.486  -1.665  0.00  0.00    -0.270 OA
ATOM     13  H   UNL     1      -1.439   1.817  -3.668  0.00  0.00    +0.148 HD
ENDBRANCH   1   2
BRANCH   1  15
ATOM     14  C   UNL     1       0.718  -0.430   1.303  0.00  0.00    +0.009 C 
ATOM     15  C   UNL     1       0.019  -0.003   0.011  0.00  0.00    +0.012 C 
ATOM     16  C   UNL     1       0.839  -0.472  -1.192  0.00  0.00    +0.009 C 
ENDBRANCH   1  15
BRANCH   1  17
ATOM     17  C   UNL     1      -2.230  -0.058   1.054  0.00  0.00    +0.259 C 
ATOM     18  O   UNL     1      -3.255   0.538   0.780  0.00  0.00    -0.272 OA
BRANCH  17  19
ATOM     19  N   UNL     1      -1.865  -0.203   2.323  0.00  0.00    -0.155 NA
ATOM     20  C   UNL     1      -2.563   0.390   3.289  0.00  0.00    +0.164 A 
ATOM     21  N   UNL     1      -3.725   1.082   3.171  0.00  0.00    -0.335 N 
ATOM     22  H   UNL     1      -4.141   1.189   2.302  0.00  0.00    +0.168 HD
ATOM     23  C   UNL     1      -4.313   1.634   4.294  0.00  0.00    +0.055 A 
ATOM     24  C   UNL     1      -5.497   2.377   4.398  0.00  0.00    +0.027 A 
ATOM     25  C   UNL     1      -5.923   2.847   5.619  0.00  0.00    +0.002 A 
ATOM     26  C   UNL     1      -5.200   2.601   6.774  0.00  0.00    +0.001 A 
ATOM     27  C   UNL     1      -4.029   1.869   6.698  0.00  0.00    +0.017 A 
ATOM     28  C   UNL     1      -3.601   1.399   5.479  0.00  0.00    +0.039 A 
ATOM     29  S   UNL     1      -2.210   0.445   4.931  0.00  0.00    -0.052 S 
ENDBRANCH  17  19
ENDBRANCH   1  17
TORSDOF 4
