REMARK  Name = ZINC21142714
REMARK  4 active torsions:
REMARK  status: ('A' for Active; 'I' for Inactive)
REMARK    1  A    between atoms: C_1  and  C_2
REMARK    2  A    between atoms: N_11  and  C_15
REMARK    3  A    between atoms: C_15  and  C_16
REMARK    4  A    between atoms: C_19  and  C_21
REMARK                            x       y       z     vdW  Elec       q    Type
REMARK                         _______ _______ _______ _____ _____    ______ ____
ROOT
ATOM      1  C   UNL     1      -1.740   3.248  -4.168  0.00  0.00    +0.010 C 
ATOM      2  C   UNL     1      -3.037   4.033  -4.379  0.00  0.00    +0.018 C 
ATOM      3  C   UNL     1      -3.025   4.671  -5.771  0.00  0.00    +0.006 C 
ATOM      4  C   UNL     1      -4.312   5.473  -5.973  0.00  0.00    +0.000 C 
ATOM      5  C   UNL     1      -4.398   6.577  -4.917  0.00  0.00    +0.003 C 
ATOM      6  C   UNL     1      -4.415   5.947  -3.522  0.00  0.00    +0.035 C 
ATOM      7  C   UNL     1      -3.148   5.123  -3.318  0.00  0.00    +0.115 C 
ATOM      8  C   UNL     1      -3.133   4.515  -1.935  0.00  0.00    +0.247 C 
ATOM      9  O   UNL     1      -3.932   3.730  -1.469  0.00  0.00    -0.273 OA
ATOM     10  N   UNL     1      -2.043   5.028  -1.327  0.00  0.00    -0.218 N 
ATOM     11  C   UNL     1      -1.383   5.870  -2.131  0.00  0.00    +0.310 C 
ATOM     12  O   UNL     1      -0.371   6.461  -1.805  0.00  0.00    -0.252 OA
ATOM     13  N   UNL     1      -1.962   5.987  -3.341  0.00  0.00    -0.285 N 
ATOM     14  H   UNL     1      -1.718   6.563  -4.246  0.00  0.00    +0.151 HD
ENDROOT
BRANCH  10  15
ATOM     15  C   UNL     1      -1.637   4.707   0.043  0.00  0.00    +0.176 C 
BRANCH  15  16
ATOM     16  C   UNL     1      -0.717   3.513   0.028  0.00  0.00    +0.098 A 
ATOM     17  C   UNL     1       0.628   3.550   0.015  0.00  0.00    +0.222 A 
ATOM     18  O   UNL     1       1.062   2.274   0.004  0.00  0.00    -0.443 OA
ATOM     19  C   UNL     1      -0.018   1.474   0.010  0.00  0.00    +0.227 A 
ATOM     20  N   UNL     1      -1.093   2.226   0.019  0.00  0.00    -0.212 NA
BRANCH  19  21
ATOM     21  C   UNL     1       0.002  -0.004   0.002  0.00  0.00    +0.037 A 
ATOM     22  C   UNL     1      -1.195  -0.721   0.015  0.00  0.00    +0.013 A 
ATOM     23  C   UNL     1      -1.169  -2.101   0.001  0.00  0.00    +0.001 A 
ATOM     24  C   UNL     1       0.040  -2.773  -0.013  0.00  0.00    +0.000 A 
ATOM     25  C   UNL     1       1.230  -2.068  -0.020  0.00  0.00    +0.001 A 
ATOM     26  C   UNL     1       1.218  -0.688  -0.013  0.00  0.00    +0.013 A 
ENDBRANCH  19  21
ENDBRANCH  15  16
ENDBRANCH  10  15
TORSDOF 3
