REMARK  Name = ZINC48422414
REMARK  8 active torsions:
REMARK  status: ('A' for Active; 'I' for Inactive)
REMARK    1  A    between atoms: C_1  and  C_2
REMARK    2  A    between atoms: C_2  and  C_30
REMARK    3  A    between atoms: N_7  and  C_8
REMARK    4  A    between atoms: C_8  and  C_9
REMARK    5  A    between atoms: C_12  and  C_15
REMARK    6  A    between atoms: C_21  and  C_23
REMARK    7  A    between atoms: C_23  and  C_24
REMARK    8  A    between atoms: C_24  and  N_25
REMARK                            x       y       z     vdW  Elec       q    Type
REMARK                         _______ _______ _______ _____ _____    ______ ____
ROOT
ATOM      1  C   UNL     1       2.692  -0.272   2.586  0.00  0.00    -0.033 A 
ATOM      2  C   UNL     1       2.545   0.617   3.636  0.00  0.00    +0.005 A 
ATOM      3  C   UNL     1       3.101   0.335   4.866  0.00  0.00    +0.012 A 
ATOM      4  C   UNL     1       3.814  -0.851   5.050  0.00  0.00    +0.017 A 
ATOM      5  C   UNL     1       3.959  -1.744   3.986  0.00  0.00    +0.012 A 
ATOM      6  C   UNL     1       3.393  -1.452   2.763  0.00  0.00    +0.005 A 
ENDROOT
BRANCH   4   7
ATOM      7  C   UNL     1       4.414  -1.160   6.365  0.00  0.00    +0.141 A 
ATOM      8  N   UNL     1       5.112  -2.319   6.527  0.00  0.00    -0.307 N 
ATOM      9  H   UNL     1       5.213  -2.934   5.784  0.00  0.00    +0.170 HD
ATOM     10  C   UNL     1       5.662  -2.608   7.726  0.00  0.00    +0.252 A 
ATOM     11  O   UNL     1       6.290  -3.640   7.889  0.00  0.00    -0.268 OA
ATOM     12  C   UNL     1       5.497  -1.692   8.784  0.00  0.00    +0.093 A 
ATOM     13  C   UNL     1       4.788  -0.548   8.560  0.00  0.00    +0.050 A 
ATOM     14  N   UNL     1       4.269  -0.307   7.358  0.00  0.00    -0.234 NA
BRANCH  13  15
ATOM     15  C   UNL     1       4.596   0.447   9.675  0.00  0.00    +0.079 C 
BRANCH  15  16
ATOM     16  C   UNL     1       5.673   1.530   9.582  0.00  0.00    +0.149 C 
BRANCH  16  17
ATOM     17  N   UNL     1       5.487   2.498  10.666  0.00  0.00    -0.271 N 
ATOM     18  C   UNL     1       6.418   2.864  11.572  0.00  0.00    +0.108 A 
ATOM     19  C   UNL     1       5.853   3.775  12.399  0.00  0.00    +0.041 A 
ATOM     20  C   UNL     1       4.532   3.972  11.983  0.00  0.00    +0.134 A 
ATOM     21  N   UNL     1       4.314   3.212  10.941  0.00  0.00    -0.180 NA
ENDBRANCH  16  17
ENDBRANCH  15  16
ENDBRANCH  13  15
ENDBRANCH   4   7
BRANCH   1  22
ATOM     22  C   UNL     1       2.080   0.043   1.245  0.00  0.00    +0.120 C 
BRANCH  22  29
ATOM     23  C   UNL     1      -0.019   1.526   0.010  0.00  0.00    +0.025 C 
ATOM     24  C   UNL     1       0.002  -0.004   0.002  0.00  0.00    +0.001 C 
ATOM     25  C   UNL     1      -1.433  -0.534   0.016  0.00  0.00    -0.061 C 
ATOM     26  N   UNL     1      -1.413  -2.003   0.028  0.00  0.00    +0.381 N 
ATOM     27  C   UNL     1      -0.722  -2.475   1.235  0.00  0.00    -0.067 C 
ATOM     28  C   UNL     1       0.720  -1.961   1.231  0.00  0.00    +0.066 C 
ATOM     29  N   UNL     1       0.713  -0.491   1.193  0.00  0.00    -0.297 NA
ATOM     30  C   UNL     1       0.717  -0.498  -1.257  0.00  0.00    +0.025 C 
ATOM     31  H   UNL     1      -2.360  -2.352   0.025  0.00  0.00    -0.086 HD
ATOM     32  H   UNL     1      -0.928  -2.339  -0.790  0.00  0.00    -0.086 HD
ENDBRANCH  22  29
ENDBRANCH   1  22
TORSDOF 6
