REMARK  Name = ZINC21258192
REMARK  11 active torsions:
REMARK  status: ('A' for Active; 'I' for Inactive)
REMARK    1  A    between atoms: C_1  and  C_2
REMARK    2  A    between atoms: C_2  and  O_3
REMARK    3  A    between atoms: O_3  and  C_4
REMARK    4  A    between atoms: C_7  and  C_12
REMARK    5  A    between atoms: C_9  and  O_10
REMARK    6  A    between atoms: O_10  and  C_11
REMARK    7  A    between atoms: C_17  and  C_27
REMARK    8  A    between atoms: C_30  and  O_33
REMARK    9  A    between atoms: O_33  and  C_34
REMARK   10  A    between atoms: C_34  and  C_35
REMARK   11  A    between atoms: C_34  and  C_36
REMARK                            x       y       z     vdW  Elec       q    Type
REMARK                         _______ _______ _______ _____ _____    ______ ____
ROOT
ATOM      1  C   UNL     1       2.175  -1.063   8.693  0.00  0.00    +0.032 C 
ATOM      2  C   UNL     1       2.775  -1.848   7.528  0.00  0.00    +0.059 C 
ATOM      3  C   UNL     1       1.666  -2.356   6.620  0.00  0.00    +0.017 C 
ATOM      4  C   UNL     1       0.544  -1.637   6.453  0.00  0.00    +0.036 C 
ATOM      5  C   UNL     1      -0.616  -2.002   5.557  0.00  0.00    +0.136 C 
ATOM      6  N   UNL     1      -0.577  -3.357   5.049  0.00  0.00    -0.331 N 
ATOM      7  C   UNL     1       0.436  -3.774   4.188  0.00  0.00    +0.049 A 
ATOM      8  C   UNL     1       0.168  -4.144   2.880  0.00  0.00    +0.025 A 
ATOM      9  C   UNL     1       1.213  -4.508   2.048  0.00  0.00    +0.002 A 
ATOM     10  C   UNL     1       2.515  -4.502   2.516  0.00  0.00    +0.002 A 
ATOM     11  C   UNL     1       2.784  -4.149   3.827  0.00  0.00    +0.025 A 
ATOM     12  C   UNL     1       1.738  -3.805   4.665  0.00  0.00    +0.052 A 
ATOM     13  N   UNL     1       1.926  -3.544   6.018  0.00  0.00    -0.316 N 
ATOM     14  C   UNL     1       0.365  -0.420   7.151  0.00  0.00    +0.163 C 
ATOM     15  O   UNL     1      -0.655   0.215   6.970  0.00  0.00    -0.292 OA
ATOM     16  C   UNL     1       1.389   0.115   8.106  0.00  0.00    +0.088 C 
ATOM     17  H   UNL     1      -1.356  -4.077   5.341  0.00  0.00    +0.147 HD
ATOM     18  H   UNL     1       2.316  -4.386   6.609  0.00  0.00    +0.152 HD
ENDROOT
BRANCH   1  22
ATOM     19  C   UNL     1       5.303   0.398  11.217  0.00  0.00    +0.162 A 
ATOM     20  C   UNL     1       5.249   0.777   9.885  0.00  0.00    +0.050 A 
ATOM     21  C   UNL     1       4.237   0.303   9.072  0.00  0.00    +0.008 A 
ATOM     22  C   UNL     1       3.276  -0.550   9.584  0.00  0.00    -0.040 A 
ATOM     23  C   UNL     1       3.321  -0.927  10.913  0.00  0.00    +0.053 A 
ATOM     24  C   UNL     1       4.335  -0.460  11.732  0.00  0.00    +0.162 A 
BRANCH  24  25
ATOM     25  O   UNL     1       4.384  -0.835  13.039  0.00  0.00    -0.491 OA
ATOM     26  C   UNL     1       3.358  -1.717  13.499  0.00  0.00    +0.277 C 
ENDBRANCH  24  25
BRANCH  19  27
ATOM     27  O   UNL     1       6.298   0.863  12.019  0.00  0.00    -0.489 OA
BRANCH  27  29
ATOM     28  C   UNL     1       8.289   2.157  12.470  0.00  0.00    +0.048 C 
ATOM     29  C   UNL     1       7.255   1.740  11.422  0.00  0.00    +0.226 C 
ENDBRANCH  27  29
ENDBRANCH  19  27
ENDBRANCH   1  22
BRANCH   5  30
ATOM     30  C   UNL     1      -0.634  -1.052   4.387  0.00  0.00    -0.023 A 
ATOM     31  C   UNL     1      -1.688  -0.172   4.228  0.00  0.00    +0.009 A 
ATOM     32  C   UNL     1      -1.706   0.699   3.156  0.00  0.00    +0.046 A 
ATOM     33  C   UNL     1      -0.666   0.691   2.239  0.00  0.00    +0.121 A 
ATOM     34  C   UNL     1       0.388  -0.198   2.397  0.00  0.00    +0.046 A 
ATOM     35  C   UNL     1       0.405  -1.063   3.474  0.00  0.00    +0.009 A 
BRANCH  33  36
ATOM     36  O   UNL     1      -0.682   1.547   1.184  0.00  0.00    -0.489 OA
BRANCH  36  37
ATOM     37  C   UNL     1       0.363   1.407   0.219  0.00  0.00    +0.167 C 
ATOM     38  C   UNL     1       1.594   2.188   0.683  0.00  0.00    +0.051 C 
ATOM     39  C   UNL     1      -0.111   1.954  -1.129  0.00  0.00    +0.051 C 
ENDBRANCH  36  37
ENDBRANCH  33  36
ENDBRANCH   5  30
TORSDOF 7
