REMARK  Name = ZINC25445035
REMARK  7 active torsions:
REMARK  status: ('A' for Active; 'I' for Inactive)
REMARK    1  A    between atoms: C_1  and  C_2
REMARK    2  A    between atoms: C_9  and  N_15
REMARK    3  A    between atoms: C_10  and  C_11
REMARK    4  A    between atoms: C_11  and  O_13
REMARK    5  A    between atoms: O_13  and  C_14
REMARK    6  A    between atoms: C_16  and  C_18
REMARK    7  A    between atoms: C_18  and  N_19
REMARK                            x       y       z     vdW  Elec       q    Type
REMARK                         _______ _______ _______ _____ _____    ______ ____
ROOT
ATOM      1  N   UNL     1       4.140   2.571  -5.955  0.00  0.00    -0.278 N 
ATOM      2  C   UNL     1       2.937   2.621  -5.350  0.00  0.00    +0.238 C 
ATOM      3  O   UNL     1       2.579   3.637  -4.793  0.00  0.00    -0.273 OA
ATOM      4  H   UNL     1       4.464   1.649  -6.460  0.00  0.00    +0.155 HD
ENDROOT
BRANCH   1  12
ATOM      5  C   UNL     1       8.468   9.084  -5.737  0.00  0.00    +0.008 C 
ATOM      6  C   UNL     1       7.818   7.792  -6.237  0.00  0.00    -0.009 C 
ATOM      7  C   UNL     1       8.835   6.647  -6.179  0.00  0.00    +0.008 C 
ATOM      8  C   UNL     1       8.278   5.420  -6.903  0.00  0.00    +0.037 C 
ATOM      9  C   UNL     1       6.894   5.108  -6.346  0.00  0.00    -0.021 A 
ATOM     10  C   UNL     1       6.196   6.037  -5.658  0.00  0.00    -0.004 A 
ATOM     11  S   UNL     1       4.678   5.234  -5.226  0.00  0.00    -0.077 S 
ATOM     12  C   UNL     1       4.968   3.683  -5.942  0.00  0.00    +0.086 A 
ATOM     13  C   UNL     1       6.230   3.825  -6.504  0.00  0.00    +0.091 A 
ATOM     14  C   UNL     1       6.622   7.437  -5.342  0.00  0.00    +0.046 C 
BRANCH  13  15
ATOM     15  C   UNL     1       6.868   2.723  -7.228  0.00  0.00    +0.342 C 
ATOM     16  O   UNL     1       6.695   2.602  -8.426  0.00  0.00    -0.245 OA
BRANCH  15  17
ATOM     17  O   UNL     1       7.647   1.843  -6.567  0.00  0.00    -0.464 OA
ATOM     18  C   UNL     1       8.247   0.777  -7.349  0.00  0.00    +0.280 C 
ENDBRANCH  15  17
ENDBRANCH  13  15
ENDBRANCH   1  12
BRANCH   2  19
ATOM     19  C   UNL     1       2.036   1.413  -5.364  0.00  0.00    +0.222 C 
BRANCH  19  20
ATOM     20  N   UNL     1       0.797   1.719  -4.645  0.00  0.00    -0.290 N 
ATOM     21  C   UNL     1      -0.258   2.237  -5.327  0.00  0.00    +0.203 A 
ATOM     22  N   UNL     1      -1.380   2.524  -4.723  0.00  0.00    -0.230 NA
ATOM     23  C   UNL     1      -1.523   2.317  -3.416  0.00  0.00    +0.116 A 
ATOM     24  C   UNL     1      -0.491   1.786  -2.631  0.00  0.00    +0.076 A 
ATOM     25  C   UNL     1       0.726   1.481  -3.322  0.00  0.00    +0.263 A 
ATOM     26  O   UNL     1       1.680   1.016  -2.723  0.00  0.00    -0.267 OA
ATOM     27  C   UNL     1      -0.791   1.612  -1.202  0.00  0.00    -0.023 A 
ATOM     28  C   UNL     1      -2.016   1.978  -0.789  0.00  0.00    -0.004 A 
ATOM     29  S   UNL     1      -2.838   2.565  -2.252  0.00  0.00    -0.073 S 
ATOM     30  C   UNL     1      -2.207   1.760   0.688  0.00  0.00    +0.043 C 
ATOM     31  C   UNL     1      -0.772   1.602   1.246  0.00  0.00    +0.010 C 
ATOM     32  C   UNL     1      -0.013   1.086   0.008  0.00  0.00    +0.037 C 
ENDBRANCH  19  20
ENDBRANCH   2  19
TORSDOF 5
