REMARK  Name = ZINC63567679
REMARK  9 active torsions:
REMARK  status: ('A' for Active; 'I' for Inactive)
REMARK    1  A    between atoms: C_1  and  C_2
REMARK    2  A    between atoms: C_2  and  O_3
REMARK    3  A    between atoms: O_3  and  C_4
REMARK    4  A    between atoms: C_4  and  C_6
REMARK    5  A    between atoms: C_8  and  C_27
REMARK    6  A    between atoms: C_11  and  N_13
REMARK    7  A    between atoms: C_14  and  C_16
REMARK    8  A    between atoms: C_16  and  S_17
REMARK    9  A    between atoms: S_17  and  C_18
REMARK                            x       y       z     vdW  Elec       q    Type
REMARK                         _______ _______ _______ _____ _____    ______ ____
ROOT
ATOM      1  N   UNL     1       1.072  -0.913   4.406  0.00  0.00    -0.299 N 
ATOM      2  C   UNL     1       1.264  -0.895   5.740  0.00  0.00    +0.224 C 
ATOM      3  O   UNL     1       2.292  -1.334   6.210  0.00  0.00    -0.275 OA
ATOM      4  H   UNL     1       0.249  -0.562   4.030  0.00  0.00    +0.150 HD
ENDROOT
BRANCH   1   9
ATOM      5  C   UNL     1       1.499  -2.372   2.471  0.00  0.00    +0.064 C 
ATOM      6  C   UNL     1       1.618  -3.667   2.625  0.00  0.00    +0.005 C 
ATOM      7  C   UNL     1       2.350  -4.183   3.851  0.00  0.00    +0.102 C 
ATOM      8  S   UNL     1       3.188  -2.646   4.433  0.00  0.00    -0.121 S 
ATOM      9  C   UNL     1       2.105  -1.462   3.524  0.00  0.00    +0.169 C 
BRANCH   7  10
ATOM     10  C   UNL     1       3.354  -5.243   3.478  0.00  0.00    -0.031 A 
ATOM     11  C   UNL     1       4.388  -4.941   2.611  0.00  0.00    +0.005 A 
ATOM     12  C   UNL     1       5.309  -5.912   2.269  0.00  0.00    +0.000 A 
ATOM     13  C   UNL     1       5.198  -7.186   2.794  0.00  0.00    +0.000 A 
ATOM     14  C   UNL     1       4.165  -7.488   3.662  0.00  0.00    +0.000 A 
ATOM     15  C   UNL     1       3.246  -6.515   4.007  0.00  0.00    +0.005 A 
ENDBRANCH   7  10
BRANCH   5  16
ATOM     16  C   UNL     1       0.801  -1.813   1.304  0.00  0.00    +0.338 C 
ATOM     17  O   UNL     1       0.321  -2.556   0.470  0.00  0.00    -0.245 OA
BRANCH  16  18
ATOM     18  O   UNL     1       0.693  -0.477   1.160  0.00  0.00    -0.462 OA
BRANCH  18  20
ATOM     19  C   UNL     1      -0.019   1.526   0.010  0.00  0.00    +0.048 C 
ATOM     20  C   UNL     1       0.002  -0.004   0.002  0.00  0.00    +0.229 C 
ENDBRANCH  18  20
ENDBRANCH  16  18
ENDBRANCH   5  16
ENDBRANCH   1   9
BRANCH   2  21
ATOM     21  C   UNL     1       0.201  -0.331   6.647  0.00  0.00    +0.168 C 
BRANCH  21  22
ATOM     22  S   UNL     1       0.752  -0.448   8.371  0.00  0.00    -0.106 S 
BRANCH  22  23
ATOM     23  C   UNL     1      -0.621   0.263   9.320  0.00  0.00    +0.236 C 
ATOM     24  N   UNL     1      -1.864  -0.462   9.028  0.00  0.00    -0.355 N 
ATOM     25  C   UNL     1      -2.703   0.392   8.519  0.00  0.00    +0.061 A 
ATOM     26  C   UNL     1      -4.086   0.268   8.036  0.00  0.00    +0.027 A 
ATOM     27  C   UNL     1      -4.720   1.352   7.548  0.00  0.00    +0.002 A 
ATOM     28  C   UNL     1      -4.112   2.619   7.479  0.00  0.00    +0.002 A 
ATOM     29  C   UNL     1      -2.850   2.843   7.895  0.00  0.00    +0.027 A 
ATOM     30  C   UNL     1      -2.060   1.732   8.445  0.00  0.00    +0.061 A 
ATOM     31  N   UNL     1      -0.847   1.655   8.912  0.00  0.00    -0.355 N 
ATOM     32  H   UNL     1      -2.029  -1.405   9.187  0.00  0.00    +0.162 HD
ATOM     33  H   UNL     1      -0.211   2.384   8.978  0.00  0.00    +0.162 HD
ENDBRANCH  22  23
ENDBRANCH  21  22
ENDBRANCH   2  21
TORSDOF 8
