REMARK  Name = ZINC10550914
REMARK  11 active torsions:
REMARK  status: ('A' for Active; 'I' for Inactive)
REMARK    1  A    between atoms: C_1  and  C_2
REMARK    2  A    between atoms: C_5  and  N_11
REMARK    3  A    between atoms: C_6  and  N_8
REMARK    4  A    between atoms: C_12  and  C_14
REMARK    5  A    between atoms: C_14  and  C_16
REMARK    6  A    between atoms: C_14  and  O_22
REMARK    7  A    between atoms: O_22  and  C_23
REMARK    8  A    between atoms: C_23  and  C_25
REMARK    9  A    between atoms: C_28  and  N_33
REMARK   10  A    between atoms: C_30  and  O_31
REMARK   11  A    between atoms: O_31  and  C_32
REMARK                            x       y       z     vdW  Elec       q    Type
REMARK                         _______ _______ _______ _____ _____    ______ ____
ROOT
ATOM      1  C   UNL     1      -2.417   1.061  -0.014  0.00  0.00    +0.292 C 
ENDROOT
BRANCH   1   2
ATOM      2  C   UNL     1      -2.855   0.807  -1.434  0.00  0.00    +0.002 A 
ATOM      3  C   UNL     1      -2.674   1.780  -2.398  0.00  0.00    +0.008 A 
ATOM      4  C   UNL     1      -3.071   1.545  -3.701  0.00  0.00    +0.000 A 
ATOM      5  C   UNL     1      -3.659   0.340  -4.038  0.00  0.00    +0.000 A 
ATOM      6  C   UNL     1      -3.844  -0.632  -3.072  0.00  0.00    +0.000 A 
ATOM      7  C   UNL     1      -3.443  -0.398  -1.770  0.00  0.00    +0.008 A 
ENDBRANCH   1   2
BRANCH   1   9
ATOM      8  N   UNL     1      -4.694   1.201   0.941  0.00  0.00    -0.280 N 
ATOM      9  C   UNL     1      -3.506   1.797   0.723  0.00  0.00    +0.263 C 
ATOM     10  O   UNL     1      -3.312   2.927   1.120  0.00  0.00    -0.271 OA
ATOM     11  H   UNL     1      -4.872   0.323   0.568  0.00  0.00    +0.155 HD
BRANCH   8  16
ATOM     12  C   UNL     1      -8.658   3.822   4.040  0.00  0.00    +0.044 C 
ATOM     13  C   UNL     1      -7.605   3.126   3.217  0.00  0.00    -0.048 A 
ATOM     14  C   UNL     1      -6.774   3.863   2.393  0.00  0.00    +0.005 A 
ATOM     15  C   UNL     1      -5.808   3.228   1.637  0.00  0.00    +0.026 A 
ATOM     16  C   UNL     1      -5.672   1.847   1.706  0.00  0.00    +0.064 A 
ATOM     17  C   UNL     1      -6.511   1.109   2.529  0.00  0.00    +0.148 A 
ATOM     18  C   UNL     1      -7.472   1.751   3.287  0.00  0.00    +0.038 A 
BRANCH  17  19
ATOM     19  N   UNL     1      -6.374  -0.363   2.600  0.00  0.00    +0.058 N 
ATOM     20  O   UNL     1      -7.171  -1.019   3.246  0.00  0.00    -0.126 OA
ATOM     21  O   UNL     1      -5.462  -0.918   2.013  0.00  0.00    -0.126 OA
ENDBRANCH  17  19
ENDBRANCH   8  16
ENDBRANCH   1   9
BRANCH   1  22
ATOM     22  O   UNL     1      -1.207   1.863  -0.018  0.00  0.00    -0.443 OA
BRANCH  22  23
ATOM     23  C   UNL     1      -0.033   1.200  -0.044  0.00  0.00    +0.344 C 
ATOM     24  O   UNL     1      -0.022  -0.015  -0.064  0.00  0.00    -0.245 OA
BRANCH  23  25
ATOM     25  C   UNL     1       1.233   1.948  -0.055  0.00  0.00    +0.102 A 
ATOM     26  C   UNL     1       1.223   3.347  -0.032  0.00  0.00    +0.040 A 
ATOM     27  C   UNL     1       2.399   4.040  -0.042  0.00  0.00    +0.063 A 
ATOM     28  C   UNL     1       3.617   3.361  -0.075  0.00  0.00    +0.047 A 
ATOM     29  C   UNL     1       3.643   1.972  -0.099  0.00  0.00    +0.070 A 
ATOM     30  C   UNL     1       2.457   1.260  -0.083  0.00  0.00    +0.136 A 
ATOM     31 CL   UNL     1       2.379   5.776  -0.012  0.00  0.00    -0.082 Cl
BRANCH  28  32
ATOM     32  N   UNL     1       4.810   4.076  -0.085  0.00  0.00    -0.357 N 
ATOM     33  H   UNL     1       4.794   5.046  -0.069  0.00  0.00    +0.142 HD
ATOM     34  H   UNL     1       5.658   3.606  -0.108  0.00  0.00    +0.142 HD
ENDBRANCH  28  32
BRANCH  30  35
ATOM     35  O   UNL     1       2.476  -0.097  -0.099  0.00  0.00    -0.494 OA
ATOM     36  C   UNL     1       3.759  -0.727  -0.127  0.00  0.00    +0.277 C 
ENDBRANCH  30  35
ENDBRANCH  23  25
ENDBRANCH  22  23
ENDBRANCH   1  22
TORSDOF 9
