REMARK  Name = ZINC33045318
REMARK  5 active torsions:
REMARK  status: ('A' for Active; 'I' for Inactive)
REMARK    1  A    between atoms: C_5  and  C_7
REMARK    2  A    between atoms: C_7  and  N_8
REMARK    3  A    between atoms: N_11  and  C_15
REMARK    4  A    between atoms: C_15  and  C_16
REMARK    5  A    between atoms: N_18  and  C_19
REMARK                            x       y       z     vdW  Elec       q    Type
REMARK                         _______ _______ _______ _____ _____    ______ ____
ROOT
ATOM      1  N   UNL     1       6.211  -1.337   2.249  0.00  0.00    -0.191 NA
ATOM      2  C   UNL     1       5.350  -0.803   3.323  0.00  0.00    +0.092 C 
ATOM      3  C   UNL     1       4.829   0.569   2.878  0.00  0.00    -0.026 C 
ATOM      4  N   UNL     1       4.602   0.550   1.423  0.00  0.00    +0.446 N 
ATOM      5  S   UNL     1       5.540  -0.709   0.852  0.00  0.00    +0.016 S 
ATOM      6  O   UNL     1       4.655  -1.691   0.332  0.00  0.00    -0.173 OA
ATOM      7  O   UNL     1       6.597  -0.138   0.093  0.00  0.00    -0.173 OA
ATOM      8  H   UNL     1       3.889   1.352   1.180  0.00  0.00    -0.043 HD
ENDROOT
BRANCH   1   9
ATOM      9  C   UNL     1       7.379  -2.211   2.377  0.00  0.00    +0.143 C 
BRANCH   9  14
ATOM     10  C   UNL     1      10.601  -0.308   1.877  0.00  0.00    +0.000 A 
ATOM     11  C   UNL     1      10.851   0.155   3.155  0.00  0.00    +0.001 A 
ATOM     12  C   UNL     1       9.977  -0.147   4.183  0.00  0.00    +0.020 A 
ATOM     13  C   UNL     1       8.853  -0.913   3.931  0.00  0.00    +0.045 A 
ATOM     14  C   UNL     1       8.603  -1.376   2.651  0.00  0.00    -0.013 A 
ATOM     15  C   UNL     1       9.481  -1.077   1.626  0.00  0.00    +0.006 A 
ATOM     16 CL   UNL     1       7.755  -1.294   5.221  0.00  0.00    -0.083 Cl
ENDBRANCH   9  14
ENDBRANCH   1   9
BRANCH   4  17
ATOM     17  C   UNL     1       3.745   1.447   0.644  0.00  0.00    +0.054 C 
BRANCH  17  18
ATOM     18  C   UNL     1       2.331   0.926   0.654  0.00  0.00    +0.200 C 
ATOM     19  O   UNL     1       2.066  -0.095   1.254  0.00  0.00    -0.278 OA
ATOM     20  N   UNL     1       1.362   1.593  -0.002  0.00  0.00    -0.314 N 
ATOM     21  H   UNL     1       1.602   2.518  -0.546  0.00  0.00    +0.149 HD
BRANCH  20  22
ATOM     22  C   UNL     1      -0.013   1.086   0.008  0.00  0.00    +0.073 C 
ATOM     23  C   UNL     1      -0.729   1.579   1.267  0.00  0.00    +0.022 C 
ATOM     24  C   UNL     1      -2.164   1.050   1.278  0.00  0.00    +0.002 C 
ATOM     25  C   UNL     1      -2.904   1.556   0.038  0.00  0.00    +0.000 C 
ATOM     26  C   UNL     1      -2.188   1.063  -1.221  0.00  0.00    +0.002 C 
ATOM     27  C   UNL     1      -0.753   1.593  -1.232  0.00  0.00    +0.022 C 
ENDBRANCH  20  22
ENDBRANCH  17  18
ENDBRANCH   4  17
TORSDOF 5
