REMARK  Name = ZINC62854725
REMARK  8 active torsions:
REMARK  status: ('A' for Active; 'I' for Inactive)
REMARK    1  A    between atoms: C_1  and  C_2
REMARK    2  A    between atoms: C_2  and  C_3
REMARK    3  A    between atoms: C_3  and  C_9
REMARK    4  A    between atoms: N_11  and  C_12
REMARK    5  A    between atoms: C_18  and  C_20
REMARK    6  A    between atoms: C_20  and  C_21
REMARK    7  A    between atoms: C_20  and  C_22
REMARK    8  A    between atoms: C_20  and  C_23
REMARK                            x       y       z     vdW  Elec       q    Type
REMARK                         _______ _______ _______ _____ _____    ______ ____
ROOT
ATOM      1  C   UNL     1      -0.240   0.494  -2.503  0.00  0.00    +0.218 C 
ATOM      2  O   UNL     1      -1.215  -0.006  -3.023  0.00  0.00    -0.275 OA
ATOM      3  N   UNL     1       0.203   1.697  -2.918  0.00  0.00    -0.312 N 
ATOM      4  H   UNL     1       0.926   2.137  -2.445  0.00  0.00    +0.149 HD
ENDROOT
BRANCH   1   5
ATOM      5  C   UNL     1       0.476  -0.231  -1.392  0.00  0.00    +0.032 C 
ATOM      6  C   UNL     1       1.973  -0.302  -1.708  0.00  0.00    +0.012 C 
ATOM      7  C   UNL     1       2.176  -1.122  -2.986  0.00  0.00    -0.018 C 
ATOM      8  C   UNL     1       1.556  -2.508  -2.800  0.00  0.00    -0.083 C 
ATOM      9  N   UNL     1       0.120  -2.373  -2.527  0.00  0.00    +0.380 N 
ATOM     10  C   UNL     1      -0.081  -1.650  -1.265  0.00  0.00    -0.066 C 
ATOM     11  H   UNL     1      -0.318  -1.863  -3.279  0.00  0.00    -0.086 HD
ATOM     12  H   UNL     1      -0.296  -3.290  -2.458  0.00  0.00    -0.086 HD
BRANCH   5  14
ATOM     13  C   UNL     1       0.987   1.868  -0.137  0.00  0.00    +0.005 C 
ATOM     14  C   UNL     1       0.267   0.520  -0.075  0.00  0.00    +0.011 C 
ENDBRANCH   5  14
ENDBRANCH   1   5
BRANCH   3  15
ATOM     15  C   UNL     1      -0.406   2.339  -4.086  0.00  0.00    +0.077 C 
ATOM     16  C   UNL     1       0.631   2.451  -5.205  0.00  0.00    +0.022 C 
ATOM     17  C   UNL     1       1.815   3.290  -4.722  0.00  0.00    +0.002 C 
ATOM     18  C   UNL     1       1.326   4.688  -4.338  0.00  0.00    +0.000 C 
ATOM     19  C   UNL     1       0.289   4.576  -3.218  0.00  0.00    +0.006 C 
ATOM     20  C   UNL     1      -0.895   3.736  -3.702  0.00  0.00    +0.015 C 
BRANCH  20  21
ATOM     21  C   UNL     1      -1.932   3.624  -2.582  0.00  0.00    -0.033 C 
ATOM     22  C   UNL     1      -1.240   3.190  -1.288  0.00  0.00    +0.011 C 
ATOM     23  C   UNL     1      -2.603   4.983  -2.370  0.00  0.00    +0.011 C 
ATOM     24  C   UNL     1      -2.989   2.588  -2.968  0.00  0.00    +0.011 C 
ENDBRANCH  20  21
ENDBRANCH   3  15
TORSDOF 4
