REMARK  Name = ZINC10785279
REMARK  3 active torsions:
REMARK  status: ('A' for Active; 'I' for Inactive)
REMARK    1  A    between atoms: C_3  and  S_6
REMARK    2  A    between atoms: S_6  and  N_9
REMARK    3  A    between atoms: C_14  and  C_16
REMARK                            x       y       z     vdW  Elec       q    Type
REMARK                         _______ _______ _______ _____ _____    ______ ____
ROOT
ATOM      1  C   UNL     1      -1.583   5.133  -0.088  0.00  0.00    +0.238 C 
ATOM      2  O   UNL     1      -0.533   5.729  -0.201  0.00  0.00    -0.274 OA
ATOM      3  N   UNL     1      -2.744   5.816  -0.052  0.00  0.00    -0.263 N 
ATOM      4  C   UNL     1      -2.739   7.199  -0.143  0.00  0.00    +0.166 A 
ATOM      5  N   UNL     1      -1.715   8.012  -0.262  0.00  0.00    -0.223 NA
ATOM      6  C   UNL     1      -1.858   9.352  -0.344  0.00  0.00    +0.100 A 
ATOM      7  C   UNL     1      -0.846  10.333  -0.478  0.00  0.00    +0.068 A 
ATOM      8  C   UNL     1      -1.165  11.665  -0.542  0.00  0.00    +0.023 A 
ATOM      9  C   UNL     1      -2.481  12.099  -0.479  0.00  0.00    +0.022 A 
ATOM     10  C   UNL     1      -3.496  11.168  -0.348  0.00  0.00    +0.057 A 
ATOM     11  C   UNL     1      -3.186   9.831  -0.283  0.00  0.00    +0.060 A 
ATOM     12  S   UNL     1      -4.122   8.330  -0.120  0.00  0.00    -0.051 S 
ATOM     13 CL   UNL     1      -5.151  11.685  -0.267  0.00  0.00    -0.082 Cl
ATOM     14 CL   UNL     1       0.817   9.843  -0.562  0.00  0.00    -0.081 Cl
ATOM     15  H   UNL     1      -3.584   5.340   0.038  0.00  0.00    +0.157 HD
ENDROOT
BRANCH   1  21
ATOM     16  N   UNL     1      -0.908   3.056  -1.158  0.00  0.00    -0.164 NA
ATOM     17  C   UNL     1      -0.671   1.607  -1.197  0.00  0.00    +0.110 C 
ATOM     18  C   UNL     1       0.060   1.192   0.083  0.00  0.00    +0.017 C 
ATOM     19  C   UNL     1      -0.739   1.666   1.299  0.00  0.00    +0.003 C 
ATOM     20  C   UNL     1      -0.848   3.192   1.277  0.00  0.00    +0.030 C 
ATOM     21  C   UNL     1      -1.589   3.630   0.010  0.00  0.00    +0.166 C 
BRANCH  16  22
ATOM     22  S   UNL     1      -0.415   4.026  -2.407  0.00  0.00    +0.068 S 
ATOM     23  O   UNL     1      -0.348   3.199  -3.561  0.00  0.00    -0.152 OA
ATOM     24  O   UNL     1      -1.220   5.196  -2.355  0.00  0.00    -0.152 OA
BRANCH  22  27
ATOM     25  C   UNL     1       3.593   4.518  -2.003  0.00  0.00    +0.010 A 
ATOM     26  C   UNL     1       2.402   3.931  -2.388  0.00  0.00    +0.036 A 
ATOM     27  C   UNL     1       1.235   4.532  -2.054  0.00  0.00    +0.143 A 
ATOM     28  S   UNL     1       1.802   5.968  -1.157  0.00  0.00    -0.077 S 
ATOM     29  C   UNL     1       3.558   5.672  -1.294  0.00  0.00    +0.047 A 
ENDBRANCH  22  27
ENDBRANCH  16  22
ENDBRANCH   1  21
TORSDOF 3
