REMARK  Name = ZINC66596520
REMARK  10 active torsions:
REMARK  status: ('A' for Active; 'I' for Inactive)
REMARK    1  A    between atoms: C_1  and  C_2
REMARK    2  A    between atoms: C_2  and  C_3
REMARK    3  A    between atoms: C_3  and  C_4
REMARK    4  A    between atoms: C_4  and  N_5
REMARK    5  A    between atoms: C_10  and  C_12
REMARK    6  A    between atoms: C_12  and  N_13
REMARK    7  A    between atoms: N_16  and  C_17
REMARK    8  A    between atoms: C_23  and  C_25
REMARK    9  A    between atoms: C_25  and  C_26
REMARK   10  A    between atoms: C_25  and  C_27
REMARK                            x       y       z     vdW  Elec       q    Type
REMARK                         _______ _______ _______ _____ _____    ______ ____
ROOT
ATOM      1  N   UNL     1      -0.382  -2.466   0.802  0.00  0.00    -0.301 N 
ATOM      2  C   UNL     1      -1.631  -2.900   0.544  0.00  0.00    +0.300 C 
ATOM      3  O   UNL     1      -2.216  -3.589   1.358  0.00  0.00    -0.253 OA
ATOM      4  N   UNL     1      -2.233  -2.571  -0.617  0.00  0.00    -0.296 N 
ATOM      5  H   UNL     1       0.085  -1.917   0.153  0.00  0.00    +0.150 HD
ATOM      6  H   UNL     1      -1.766  -2.022  -1.266  0.00  0.00    +0.151 HD
ENDROOT
BRANCH   4   7
ATOM      7  C   UNL     1      -3.591  -3.043  -0.897  0.00  0.00    +0.077 C 
ATOM      8  C   UNL     1      -4.604  -2.084  -0.268  0.00  0.00    +0.041 C 
ATOM      9  C   UNL     1      -6.022  -2.599  -0.534  0.00  0.00    +0.109 C 
ATOM     10  N   UNL     1      -6.192  -2.792  -1.980  0.00  0.00    -0.301 N 
ATOM     11  C   UNL     1      -5.218  -3.624  -2.701  0.00  0.00    +0.109 C 
ATOM     12  C   UNL     1      -3.809  -3.097  -2.411  0.00  0.00    +0.041 C 
ATOM     13  C   UNL     1      -7.221  -2.217  -2.634  0.00  0.00    +0.218 C 
ATOM     14  O   UNL     1      -8.074  -1.619  -2.014  0.00  0.00    -0.275 OA
BRANCH  13  15
ATOM     15  C   UNL     1      -7.311  -2.318  -4.135  0.00  0.00    +0.069 C 
ATOM     16  C   UNL     1      -7.827  -3.705  -4.522  0.00  0.00    +0.017 C 
ATOM     17  C   UNL     1      -8.273  -1.251  -4.660  0.00  0.00    +0.017 C 
ENDBRANCH  13  15
ENDBRANCH   4   7
BRANCH   1  18
ATOM     18  C   UNL     1       0.272  -2.824   2.063  0.00  0.00    +0.090 C 
BRANCH  18  24
ATOM     19  N   UNL     1       2.409  -2.405   0.946  0.00  0.00    +0.383 N 
ATOM     20  C   UNL     1       3.739  -1.794   1.058  0.00  0.00    -0.078 C 
ATOM     21  C   UNL     1       3.600  -0.272   1.139  0.00  0.00    -0.019 C 
ATOM     22  C   UNL     1       2.764   0.094   2.368  0.00  0.00    -0.003 C 
ATOM     23  C   UNL     1       1.406  -0.608   2.277  0.00  0.00    -0.014 C 
ATOM     24  C   UNL     1       1.626  -2.118   2.154  0.00  0.00    -0.051 C 
ATOM     25  H   UNL     1       1.934  -2.026   0.141  0.00  0.00    -0.081 HD
BRANCH  19  26
ATOM     26  C   UNL     1       2.551  -3.858   0.790  0.00  0.00    -0.078 C 
BRANCH  26  27
ATOM     27  C   UNL     1       3.219  -4.165  -0.552  0.00  0.00    -0.019 C 
BRANCH  27  29
ATOM     28  C   UNL     1       4.034  -5.985  -2.057  0.00  0.00    +0.004 C 
ATOM     29  C   UNL     1       3.366  -5.679  -0.714  0.00  0.00    -0.005 C 
ENDBRANCH  27  29
ENDBRANCH  26  27
ENDBRANCH  19  26
ENDBRANCH  18  24
ENDBRANCH   1  18
TORSDOF 7
