REMARK  Name = ZINC15900708
REMARK  7 active torsions:
REMARK  status: ('A' for Active; 'I' for Inactive)
REMARK    1  A    between atoms: C_1  and  C_2
REMARK    2  A    between atoms: C_5  and  C_35
REMARK    3  A    between atoms: N_8  and  S_10
REMARK    4  A    between atoms: S_10  and  C_13
REMARK    5  A    between atoms: C_17  and  C_19
REMARK    6  A    between atoms: N_21  and  N_22
REMARK    7  A    between atoms: C_23  and  C_25
REMARK                            x       y       z     vdW  Elec       q    Type
REMARK                         _______ _______ _______ _____ _____    ______ ____
ROOT
ATOM      1  C   UNL     1       4.837  -1.807  -2.811  0.00  0.00    +0.260 C 
ATOM      2  O   UNL     1       5.250  -0.819  -2.236  0.00  0.00    -0.269 OA
ATOM      3  N   UNL     1       5.254  -2.083  -4.063  0.00  0.00    -0.230 N 
ATOM      4  H   UNL     1       4.924  -2.872  -4.521  0.00  0.00    +0.173 HD
ENDROOT
BRANCH   1   9
ATOM      5  C   UNL     1       2.547  -3.268  -0.217  0.00  0.00    +0.106 A 
ATOM      6  C   UNL     1       2.078  -4.392  -0.874  0.00  0.00    +0.028 A 
ATOM      7  C   UNL     1       2.503  -4.677  -2.159  0.00  0.00    +0.003 A 
ATOM      8  C   UNL     1       3.399  -3.842  -2.794  0.00  0.00    +0.013 A 
ATOM      9  C   UNL     1       3.876  -2.707  -2.137  0.00  0.00    +0.040 A 
ATOM     10  C   UNL     1       3.438  -2.421  -0.843  0.00  0.00    +0.041 A 
BRANCH   5  11
ATOM     11  S   UNL     1       1.999  -2.914   1.419  0.00  0.00    +0.061 S 
ATOM     12  O   UNL     1       2.998  -2.098   2.015  0.00  0.00    -0.153 OA
ATOM     13  O   UNL     1       1.587  -4.150   1.986  0.00  0.00    -0.153 OA
BRANCH  11  19
ATOM     14  C   UNL     1      -0.019   1.526   0.010  0.00  0.00    +0.009 C 
ATOM     15  C   UNL     1       0.002  -0.004   0.002  0.00  0.00    +0.002 C 
ATOM     16  C   UNL     1      -1.433  -0.534   0.015  0.00  0.00    +0.009 C 
ATOM     17  C   UNL     1      -1.414  -2.064  -0.027  0.00  0.00    +0.002 C 
ATOM     18  C   UNL     1      -0.692  -2.596   1.215  0.00  0.00    +0.112 C 
ATOM     19  N   UNL     1       0.639  -1.977   1.288  0.00  0.00    -0.176 NA
ATOM     20  C   UNL     1       0.742  -0.512   1.244  0.00  0.00    +0.112 C 
ATOM     21  C   UNL     1      -2.850  -2.592  -0.049  0.00  0.00    +0.009 C 
ENDBRANCH  11  19
ENDBRANCH   5  11
ENDBRANCH   1   9
BRANCH   3  22
ATOM     22  N   UNL     1       6.164  -1.231  -4.701  0.00  0.00    -0.234 N 
ATOM     23  C   UNL     1       6.581  -1.506  -5.953  0.00  0.00    +0.235 C 
ATOM     24  O   UNL     1       6.169  -2.492  -6.526  0.00  0.00    -0.274 OA
ATOM     25  H   UNL     1       6.494  -0.442  -4.243  0.00  0.00    +0.173 HD
BRANCH  23  26
ATOM     26  C   UNL     1       7.561  -0.590  -6.640  0.00  0.00    +0.049 C 
ATOM     27  C   UNL     1       6.955   0.811  -6.752  0.00  0.00    +0.019 C 
ATOM     28  C   UNL     1       7.950   1.742  -7.450  0.00  0.00    -0.009 C 
ATOM     29  C   UNL     1       8.255   1.205  -8.849  0.00  0.00    +0.007 C 
ATOM     30  C   UNL     1       8.861  -0.196  -8.737  0.00  0.00    -0.009 C 
ATOM     31  C   UNL     1       7.866  -1.127  -8.040  0.00  0.00    +0.019 C 
ATOM     32  C   UNL     1      10.154  -0.129  -7.923  0.00  0.00    +0.007 C 
ATOM     33  C   UNL     1       9.848   0.408  -6.523  0.00  0.00    -0.009 C 
ATOM     34  C   UNL     1       9.243   1.809  -6.635  0.00  0.00    +0.007 C 
ATOM     35  C   UNL     1       8.854  -0.523  -5.826  0.00  0.00    +0.019 C 
ENDBRANCH  23  26
ENDBRANCH   3  22
TORSDOF 5
