REMARK  Name = ZINC00628877
REMARK  7 active torsions:
REMARK  status: ('A' for Active; 'I' for Inactive)
REMARK    1  A    between atoms: C_1  and  C_2
REMARK    2  A    between atoms: C_3  and  C_26
REMARK    3  A    between atoms: C_4  and  C_16
REMARK    4  A    between atoms: C_10  and  C_14
REMARK    5  A    between atoms: C_10  and  C_15
REMARK    6  A    between atoms: C_26  and  O_28
REMARK    7  A    between atoms: O_28  and  C_29
REMARK                            x       y       z     vdW  Elec       q    Type
REMARK                         _______ _______ _______ _____ _____    ______ ____
ROOT
ATOM      1  C   UNL     1       0.217  -4.194   0.818  0.00  0.00    +0.061 C 
ATOM      2  C   UNL     1       0.073  -2.753   0.399  0.00  0.00    +0.016 C 
ATOM      3  C   UNL     1      -1.135  -2.165   0.434  0.00  0.00    +0.065 C 
ATOM      4  C   UNL     1      -1.317  -0.735   0.017  0.00  0.00    +0.094 C 
ATOM      5  C   UNL     1       0.002  -0.004   0.002  0.00  0.00    +0.024 C 
ATOM      6  C   UNL     1       1.167  -0.685  -0.022  0.00  0.00    +0.016 C 
ATOM      7  N   UNL     1       1.173  -2.054  -0.015  0.00  0.00    -0.321 N 
ATOM      8  C   UNL     1       2.490   0.040  -0.061  0.00  0.00    +0.058 C 
ATOM      9  C   UNL     1       2.365   1.377   0.673  0.00  0.00    -0.023 C 
ATOM     10  C   UNL     1       1.259   2.199   0.002  0.00  0.00    +0.086 C 
ATOM     11  C   UNL     1      -0.017   1.402   0.010  0.00  0.00    +0.162 C 
ATOM     12  O   UNL     1      -1.084   1.984   0.018  0.00  0.00    -0.292 OA
ATOM     13  C   UNL     1       2.002   1.127   2.138  0.00  0.00    +0.011 C 
ATOM     14  C   UNL     1       3.692   2.133   0.594  0.00  0.00    +0.011 C 
ATOM     15  H   UNL     1       2.073  -2.591  -0.346  0.00  0.00    +0.152 HD
ENDROOT
BRANCH   4  16
ATOM     16  C   UNL     1      -1.921  -0.695  -1.363  0.00  0.00    -0.010 A 
ATOM     17  C   UNL     1      -1.375  -1.183  -2.488  0.00  0.00    +0.088 A 
ATOM     18  N   UNL     1      -2.215  -0.967  -3.546  0.00  0.00    -0.360 N 
ATOM     19  H   UNL     1      -1.931  -1.308  -4.552  0.00  0.00    +0.165 HD
ATOM     20  C   UNL     1      -3.347  -0.309  -3.119  0.00  0.00    +0.047 A 
ATOM     21  C   UNL     1      -3.212  -0.111  -1.732  0.00  0.00    +0.004 A 
ATOM     22  C   UNL     1      -4.222   0.539  -1.020  0.00  0.00    +0.010 A 
ATOM     23  C   UNL     1      -5.338   0.979  -1.675  0.00  0.00    +0.001 A 
ATOM     24  C   UNL     1      -5.476   0.785  -3.043  0.00  0.00    +0.002 A 
ATOM     25  C   UNL     1      -4.491   0.147  -3.764  0.00  0.00    +0.026 A 
ENDBRANCH   4  16
BRANCH   3  26
ATOM     26  C   UNL     1      -2.256  -2.908   0.873  0.00  0.00    +0.337 C 
ATOM     27  O   UNL     1      -2.121  -4.069   1.213  0.00  0.00    -0.245 OA
BRANCH  26  28
ATOM     28  O   UNL     1      -3.474  -2.330   0.913  0.00  0.00    -0.465 OA
ATOM     29  C   UNL     1      -4.561  -3.139   1.366  0.00  0.00    +0.280 C 
ENDBRANCH  26  28
ENDBRANCH   3  26
TORSDOF 3
