REMARK  Name = ZINC17360493
REMARK  6 active torsions:
REMARK  status: ('A' for Active; 'I' for Inactive)
REMARK    1  A    between atoms: C_6  and  C_7
REMARK    2  A    between atoms: C_7  and  C_8
REMARK    3  A    between atoms: N_10  and  C_11
REMARK    4  A    between atoms: C_13  and  S_18
REMARK    5  A    between atoms: C_16  and  O_17
REMARK    6  A    between atoms: S_18  and  N_21
REMARK                            x       y       z     vdW  Elec       q    Type
REMARK                         _______ _______ _______ _____ _____    ______ ____
ROOT
ATOM      1  C   UNL     1      -2.568   1.411   3.115  0.00  0.00    +0.077 A 
ATOM      2  C   UNL     1      -1.858   1.031   1.985  0.00  0.00    +0.055 A 
ATOM      3  C   UNL     1      -0.946   1.900   1.417  0.00  0.00    +0.107 A 
ATOM      4  C   UNL     1      -0.735   3.147   1.975  0.00  0.00    +0.032 A 
ATOM      5  C   UNL     1      -1.442   3.536   3.098  0.00  0.00    +0.049 A 
ATOM      6  C   UNL     1      -2.358   2.670   3.673  0.00  0.00    +0.138 A 
ENDROOT
BRANCH   1   9
ATOM      7  C   UNL     1      -3.365  -0.797   3.510  0.00  0.00    +0.222 C 
ATOM      8  O   UNL     1      -2.394  -1.239   2.932  0.00  0.00    -0.275 OA
ATOM      9  N   UNL     1      -3.494   0.532   3.692  0.00  0.00    -0.282 N 
ATOM     10  H   UNL     1      -4.227   0.880   4.223  0.00  0.00    +0.155 HD
BRANCH   7  11
ATOM     11  C   UNL     1      -4.427  -1.734   4.025  0.00  0.00    +0.131 C 
BRANCH  11  17
ATOM     12  C   UNL     1      -4.458  -3.721   2.503  0.00  0.00    +0.005 A 
ATOM     13  C   UNL     1      -4.105  -5.022   2.197  0.00  0.00    +0.015 A 
ATOM     14  C   UNL     1      -3.348  -5.761   3.089  0.00  0.00    +0.018 A 
ATOM     15  C   UNL     1      -2.941  -5.195   4.284  0.00  0.00    +0.015 A 
ATOM     16  C   UNL     1      -3.290  -3.892   4.586  0.00  0.00    +0.005 A 
ATOM     17  C   UNL     1      -4.046  -3.154   3.694  0.00  0.00    -0.039 A 
ATOM     18 BR   UNL     1      -2.870  -7.543   2.675  0.00  0.00    -0.050 Br
ENDBRANCH  11  17
ENDBRANCH   7  11
ENDBRANCH   1   9
BRANCH   3  19
ATOM     19  S   UNL     1      -0.046   1.414  -0.017  0.00  0.00    +0.061 S 
ATOM     20  O   UNL     1      -0.023  -0.006  -0.021  0.00  0.00    -0.153 OA
ATOM     21  O   UNL     1       1.141   2.196  -0.035  0.00  0.00    -0.153 OA
BRANCH  19  22
ATOM     22  N   UNL     1      -0.936   1.877  -1.335  0.00  0.00    -0.177 NA
ATOM     23  C   UNL     1      -1.951   1.057  -2.013  0.00  0.00    +0.109 C 
ATOM     24  C   UNL     1      -2.496   1.888  -3.194  0.00  0.00    +0.018 C 
ATOM     25  C   UNL     1      -1.352   2.901  -3.461  0.00  0.00    +0.018 C 
ATOM     26  C   UNL     1      -0.839   3.176  -2.025  0.00  0.00    +0.109 C 
ENDBRANCH  19  22
ENDBRANCH   3  19
BRANCH   6  27
ATOM     27  O   UNL     1      -3.050   3.049   4.781  0.00  0.00    -0.505 OA
ATOM     28  H   UNL     1      -2.613   2.825   5.614  0.00  0.00    +0.292 HD
ENDBRANCH   6  27
TORSDOF 6
