REMARK  Name = ZINC36377897
REMARK  10 active torsions:
REMARK  status: ('A' for Active; 'I' for Inactive)
REMARK    1  A    between atoms: C_1  and  C_2
REMARK    2  A    between atoms: C_2  and  C_27
REMARK    3  A    between atoms: C_5  and  C_8
REMARK    4  A    between atoms: C_5  and  N_19
REMARK    5  A    between atoms: C_13  and  O_18
REMARK    6  A    between atoms: C_20  and  O_22
REMARK    7  A    between atoms: O_22  and  C_23
REMARK    8  A    between atoms: C_23  and  C_24
REMARK    9  A    between atoms: C_23  and  C_25
REMARK   10  A    between atoms: C_23  and  C_26
REMARK                            x       y       z     vdW  Elec       q    Type
REMARK                         _______ _______ _______ _____ _____    ______ ____
ROOT
ATOM      1  C   UNL     1      -0.011   1.522   0.239  0.00  0.00    +0.074 C 
ATOM      2  C   UNL     1       0.012  -0.008   0.234  0.00  0.00    +0.165 C 
ATOM      3  O   UNL     1       0.581  -0.472  -0.993  0.00  0.00    -0.347 OA
ATOM      4  C   UNL     1       1.932  -0.049  -1.199  0.00  0.00    +0.196 C 
ATOM      5  C   UNL     1       2.791  -0.540  -0.028  0.00  0.00    +0.109 C 
ATOM      6  C   UNL     1       2.165  -0.054   1.284  0.00  0.00    +0.196 C 
ATOM      7  O   UNL     1       0.799  -0.477   1.331  0.00  0.00    -0.347 OA
ATOM      8  C   UNL     1      -1.417  -0.540   0.367  0.00  0.00    +0.074 C 
ENDROOT
BRANCH   5   9
ATOM      9  C   UNL     1       4.186   0.014  -0.158  0.00  0.00    -0.019 A 
ATOM     10  C   UNL     1       4.379   1.250  -0.772  0.00  0.00    +0.006 A 
ATOM     11  C   UNL     1       5.626   1.779  -0.905  0.00  0.00    +0.009 A 
ATOM     12  C   UNL     1       6.738   1.071  -0.417  0.00  0.00    -0.014 A 
ATOM     13  C   UNL     1       8.039   1.585  -0.537  0.00  0.00    +0.054 A 
ATOM     14  C   UNL     1       9.096   0.870  -0.051  0.00  0.00    +0.117 A 
ATOM     15  C   UNL     1       8.899  -0.371   0.565  0.00  0.00    +0.046 A 
ATOM     16  C   UNL     1       7.652  -0.897   0.695  0.00  0.00    +0.012 A 
ATOM     17  C   UNL     1       6.541  -0.186   0.207  0.00  0.00    -0.017 A 
ATOM     18  C   UNL     1       5.238  -0.698   0.331  0.00  0.00    +0.014 A 
BRANCH  14  19
ATOM     19  O   UNL     1      10.354   1.369  -0.167  0.00  0.00    -0.507 OA
ATOM     20  H   UNL     1      10.631   1.915   0.581  0.00  0.00    +0.292 HD
ENDBRANCH  14  19
ENDBRANCH   5   9
BRANCH   5  21
ATOM     21  N   UNL     1       2.839  -2.005  -0.036  0.00  0.00    -0.267 N 
ATOM     22  C   UNL     1       3.337  -2.657  -1.105  0.00  0.00    +0.402 C 
ATOM     23  O   UNL     1       3.831  -2.032  -2.022  0.00  0.00    -0.226 OA
ATOM     24  H   UNL     1       2.512  -2.505   0.729  0.00  0.00    +0.153 HD
BRANCH  22  25
ATOM     25  O   UNL     1       3.288  -4.002  -1.156  0.00  0.00    -0.445 OA
BRANCH  25  26
ATOM     26  C   UNL     1       3.835  -4.627  -2.319  0.00  0.00    +0.107 C 
ATOM     27  C   UNL     1       5.316  -4.265  -2.444  0.00  0.00    +0.055 C 
ATOM     28  C   UNL     1       3.689  -6.145  -2.197  0.00  0.00    +0.055 C 
ATOM     29  C   UNL     1       3.084  -4.141  -3.560  0.00  0.00    +0.055 C 
ENDBRANCH  25  26
ENDBRANCH  22  25
ENDBRANCH   5  21
TORSDOF 5
