REMARK  Name = ZINC39372488
REMARK  9 active torsions:
REMARK  status: ('A' for Active; 'I' for Inactive)
REMARK    1  A    between atoms: C_1  and  O_2
REMARK    2  A    between atoms: O_2  and  C_3
REMARK    3  A    between atoms: C_6  and  C_11
REMARK    4  A    between atoms: C_8  and  O_9
REMARK    5  A    between atoms: O_9  and  C_10
REMARK    6  A    between atoms: C_15  and  S_24
REMARK    7  A    between atoms: N_17  and  C_18
REMARK    8  A    between atoms: S_24  and  C_25
REMARK    9  A    between atoms: C_25  and  C_26
REMARK                            x       y       z     vdW  Elec       q    Type
REMARK                         _______ _______ _______ _____ _____    ______ ____
ROOT
ATOM      1  C   UNL     1      -4.840  -2.525  -0.117  0.00  0.00    +0.189 C 
ATOM      2  N   UNL     1      -4.845  -3.786  -0.892  0.00  0.00    -0.230 NA
ATOM      3  N   UNL     1      -6.249  -3.965  -1.292  0.00  0.00    -0.226 NA
ATOM      4  C   UNL     1      -6.693  -2.576  -1.583  0.00  0.00    +0.218 C 
ATOM      5  N   UNL     1      -6.017  -1.755  -0.557  0.00  0.00    -0.284 N 
ATOM      6  H   UNL     1      -4.528  -4.559  -0.326  0.00  0.00    +0.143 HD
ATOM      7  H   UNL     1      -6.321  -4.547  -2.112  0.00  0.00    +0.143 HD
ENDROOT
BRANCH   1  11
ATOM      8  C   UNL     1      -1.262  -0.323  -0.917  0.00  0.00    +0.162 A 
ATOM      9  C   UNL     1      -1.521  -0.788   0.362  0.00  0.00    +0.050 A 
ATOM     10  C   UNL     1      -2.679  -1.500   0.618  0.00  0.00    +0.010 A 
ATOM     11  C   UNL     1      -3.580  -1.748  -0.401  0.00  0.00    -0.008 A 
ATOM     12  C   UNL     1      -3.327  -1.287  -1.679  0.00  0.00    +0.056 A 
ATOM     13  C   UNL     1      -2.172  -0.569  -1.941  0.00  0.00    +0.162 A 
BRANCH   8  15
ATOM     14  C   UNL     1       0.764   0.591  -0.070  0.00  0.00    +0.277 C 
ATOM     15  O   UNL     1      -0.124   0.377  -1.169  0.00  0.00    -0.491 OA
ENDBRANCH   8  15
BRANCH  13  16
ATOM     16  O   UNL     1      -1.925  -0.109  -3.196  0.00  0.00    -0.491 OA
ATOM     17  C   UNL     1      -2.903  -0.399  -4.197  0.00  0.00    +0.277 C 
ENDBRANCH  13  16
ENDBRANCH   1  11
BRANCH   5  18
ATOM     18  C   UNL     1      -6.415  -0.498  -0.095  0.00  0.00    +0.033 A 
ATOM     19  C   UNL     1      -5.746   0.097   0.967  0.00  0.00    +0.023 A 
ATOM     20  C   UNL     1      -6.141   1.340   1.420  0.00  0.00    +0.002 A 
ATOM     21  C   UNL     1      -7.202   1.992   0.819  0.00  0.00    +0.000 A 
ATOM     22  C   UNL     1      -7.870   1.402  -0.239  0.00  0.00    +0.002 A 
ATOM     23  C   UNL     1      -7.476   0.162  -0.701  0.00  0.00    +0.023 A 
ENDBRANCH   5  18
BRANCH   4  24
ATOM     24  S   UNL     1      -8.495  -2.439  -1.425  0.00  0.00    -0.114 S 
BRANCH  24  25
ATOM     25  C   UNL     1      -8.824  -2.941   0.287  0.00  0.00    +0.146 C 
BRANCH  25  26
ATOM     26  C   UNL     1     -10.305  -2.871   0.555  0.00  0.00    +0.118 A 
ATOM     27  N   UNL     1     -11.143  -3.850   0.370  0.00  0.00    -0.232 NA
ATOM     28  C   UNL     1     -12.395  -3.449   0.710  0.00  0.00    +0.089 A 
ATOM     29  C   UNL     1     -13.642  -4.078   0.708  0.00  0.00    +0.030 A 
ATOM     30  C   UNL     1     -14.751  -3.393   1.118  0.00  0.00    +0.002 A 
ATOM     31  C   UNL     1     -14.654  -2.075   1.537  0.00  0.00    +0.002 A 
ATOM     32  C   UNL     1     -13.433  -1.433   1.546  0.00  0.00    +0.028 A 
ATOM     33  C   UNL     1     -12.296  -2.112   1.134  0.00  0.00    +0.066 A 
ATOM     34  N   UNL     1     -10.960  -1.778   1.030  0.00  0.00    -0.341 N 
ATOM     35  H   UNL     1     -10.563  -0.921   1.252  0.00  0.00    +0.167 HD
ENDBRANCH  25  26
ENDBRANCH  24  25
ENDBRANCH   4  24
TORSDOF 7
