REMARK  Name = ZINC39391647
REMARK  12 active torsions:
REMARK  status: ('A' for Active; 'I' for Inactive)
REMARK    1  A    between atoms: C_1  and  C_2
REMARK    2  A    between atoms: C_2  and  C_3
REMARK    3  A    between atoms: C_3  and  C_5
REMARK    4  A    between atoms: C_3  and  S_17
REMARK    5  A    between atoms: N_7  and  C_8
REMARK    6  A    between atoms: C_8  and  C_10
REMARK    7  A    between atoms: C_8  and  C_11
REMARK    8  A    between atoms: S_17  and  C_18
REMARK    9  A    between atoms: C_19  and  C_33
REMARK   10  A    between atoms: C_20  and  C_27
REMARK   11  A    between atoms: C_21  and  C_25
REMARK   12  A    between atoms: C_22  and  N_24
REMARK                            x       y       z     vdW  Elec       q    Type
REMARK                         _______ _______ _______ _____ _____    ______ ____
ROOT
ATOM      1  C   UNL     1       2.863  -0.474  -3.001  0.00  0.00    +0.118 A 
ATOM      2  C   UNL     1       4.180  -0.196  -3.415  0.00  0.00    +0.093 A 
ATOM      3  C   UNL     1       4.552  -0.481  -4.743  0.00  0.00    +0.023 A 
ATOM      4  C   UNL     1       3.580  -1.034  -5.600  0.00  0.00    +0.100 A 
ATOM      5  C   UNL     1       2.288  -1.277  -5.098  0.00  0.00    +0.136 A 
ATOM      6  N   UNL     1       1.983  -0.999  -3.841  0.00  0.00    -0.224 NA
ENDROOT
BRANCH   3   7
ATOM      7  C   UNL     1       5.924  -0.206  -5.225  0.00  0.00    -0.015 A 
ATOM      8  C   UNL     1       6.395   1.106  -5.287  0.00  0.00    +0.008 A 
ATOM      9  C   UNL     1       7.676   1.355  -5.737  0.00  0.00    +0.001 A 
ATOM     10  C   UNL     1       8.492   0.307  -6.125  0.00  0.00    +0.000 A 
ATOM     11  C   UNL     1       8.030  -0.996  -6.065  0.00  0.00    +0.001 A 
ATOM     12  C   UNL     1       6.754  -1.259  -5.613  0.00  0.00    +0.008 A 
ENDBRANCH   3   7
BRANCH   5  13
ATOM     13  N   UNL     1       1.326  -1.819  -5.928  0.00  0.00    -0.342 N 
ATOM     14  H   UNL     1       1.544  -2.029  -6.849  0.00  0.00    +0.144 HD
ATOM     15  H   UNL     1       0.434  -1.989  -5.588  0.00  0.00    +0.144 HD
ENDBRANCH   5  13
BRANCH   4  16
ATOM     16  C   UNL     1       3.901  -1.343  -6.961  0.00  0.00    +0.103 C 
ATOM     17  N   UNL     1       4.156  -1.588  -8.040  0.00  0.00    -0.191 NA
ENDBRANCH   4  16
BRANCH   2  18
ATOM     18  C   UNL     1       5.126   0.367  -2.499  0.00  0.00    +0.102 C 
ATOM     19  N   UNL     1       5.877   0.814  -1.772  0.00  0.00    -0.191 NA
ENDBRANCH   2  18
BRANCH   1  20
ATOM     20  S   UNL     1       2.381  -0.124  -1.343  0.00  0.00    -0.092 S 
BRANCH  20  21
ATOM     21  C   UNL     1       0.624  -0.575  -1.292  0.00  0.00    +0.138 C 
BRANCH  21  22
ATOM     22  C   UNL     1       0.484  -2.068  -1.437  0.00  0.00    +0.227 C 
ATOM     23  O   UNL     1       1.398  -2.797  -1.115  0.00  0.00    -0.275 OA
ATOM     24  N   UNL     1      -0.657  -2.594  -1.925  0.00  0.00    -0.308 N 
ATOM     25  H   UNL     1      -1.388  -2.011  -2.183  0.00  0.00    +0.149 HD
BRANCH  24  26
ATOM     26  C   UNL     1      -0.793  -4.046  -2.065  0.00  0.00    +0.100 C 
ATOM     27  C   UNL     1      -1.257  -4.646  -0.737  0.00  0.00    +0.033 C 
BRANCH  26  28
ATOM     28  C   UNL     1      -1.807  -4.354  -3.137  0.00  0.00    -0.027 A 
ATOM     29  C   UNL     1      -2.956  -3.592  -3.240  0.00  0.00    +0.005 A 
ATOM     30  C   UNL     1      -3.886  -3.875  -4.223  0.00  0.00    +0.000 A 
ATOM     31  C   UNL     1      -3.667  -4.918  -5.103  0.00  0.00    +0.000 A 
ATOM     32  C   UNL     1      -2.518  -5.679  -5.000  0.00  0.00    +0.000 A 
ATOM     33  C   UNL     1      -1.585  -5.394  -4.020  0.00  0.00    +0.005 A 
ENDBRANCH  26  28
ENDBRANCH  24  26
ENDBRANCH  21  22
BRANCH  21  35
ATOM     34  C   UNL     1       0.038   1.394   0.129  0.00  0.00    +0.005 C 
ATOM     35  C   UNL     1       0.023  -0.133   0.043  0.00  0.00    +0.020 C 
ENDBRANCH  21  35
ENDBRANCH  20  21
ENDBRANCH   1  20
TORSDOF 10
