REMARK  Name = ZINC27987143
REMARK  11 active torsions:
REMARK  status: ('A' for Active; 'I' for Inactive)
REMARK    1  A    between atoms: C_4  and  C_7
REMARK    2  A    between atoms: C_8  and  C_18
REMARK    3  A    between atoms: N_10  and  C_12
REMARK    4  A    between atoms: C_18  and  N_19
REMARK    5  A    between atoms: N_19  and  C_20
REMARK    6  A    between atoms: C_20  and  C_21
REMARK    7  A    between atoms: C_21  and  N_22
REMARK    8  A    between atoms: N_22  and  C_23
REMARK    9  A    between atoms: C_23  and  C_24
REMARK   10  A    between atoms: N_26  and  C_35
REMARK   11  A    between atoms: C_28  and  C_29
REMARK                            x       y       z     vdW  Elec       q    Type
REMARK                         _______ _______ _______ _____ _____    ______ ____
ROOT
ATOM      1  C   UNL     1       5.536   2.834   2.545  0.00  0.00    -0.067 C 
ENDROOT
BRANCH   1   2
ATOM      2  N   UNL     1       4.210   3.245   2.064  0.00  0.00    +0.383 N 
ATOM      3  H   UNL     1       3.788   2.433   1.454  0.00  0.00    -0.085 HD
ATOM      4  H   UNL     1       4.323   4.148   1.446  0.00  0.00    -0.085 HD
BRANCH   2   5
ATOM      5  C   UNL     1       3.308   3.531   3.188  0.00  0.00    -0.043 C 
BRANCH   5   7
ATOM      6  C   UNL     1       0.952   3.086   2.185  0.00  0.00    +0.094 A 
ATOM      7  C   UNL     1       1.961   3.949   2.657  0.00  0.00    -0.019 A 
ATOM      8  C   UNL     1       1.506   5.216   2.550  0.00  0.00    +0.116 A 
ATOM      9  N   UNL     1       0.252   5.167   2.029  0.00  0.00    -0.239 N 
ATOM     10  N   UNL     1      -0.070   3.822   1.804  0.00  0.00    -0.166 NA
BRANCH   6  14
ATOM     11  C   UNL     1       1.177  -1.157   2.005  0.00  0.00    +0.000 A 
ATOM     12  C   UNL     1      -0.028  -0.542   2.293  0.00  0.00    +0.001 A 
ATOM     13  C   UNL     1      -0.107   0.834   2.353  0.00  0.00    +0.010 A 
ATOM     14  C   UNL     1       1.031   1.605   2.123  0.00  0.00    +0.002 A 
ATOM     15  C   UNL     1       2.243   0.981   1.834  0.00  0.00    +0.010 A 
ATOM     16  C   UNL     1       2.310  -0.396   1.776  0.00  0.00    +0.001 A 
ENDBRANCH   6  14
BRANCH   9  17
ATOM     17  C   UNL     1      -0.571   6.268   1.759  0.00  0.00    +0.065 A 
ATOM     18  C   UNL     1      -0.124   7.554   2.031  0.00  0.00    +0.028 A 
ATOM     19  C   UNL     1      -0.936   8.637   1.759  0.00  0.00    +0.002 A 
ATOM     20  C   UNL     1      -2.197   8.442   1.226  0.00  0.00    +0.000 A 
ATOM     21  C   UNL     1      -2.647   7.162   0.958  0.00  0.00    +0.002 A 
ATOM     22  C   UNL     1      -1.837   6.074   1.223  0.00  0.00    +0.028 A 
ENDBRANCH   9  17
ENDBRANCH   5   7
ENDBRANCH   2   5
ENDBRANCH   1   2
BRANCH   1  23
ATOM     23  C   UNL     1       6.445   2.546   1.349  0.00  0.00    +0.062 C 
BRANCH  23  24
ATOM     24  N   UNL     1       7.771   2.135   1.829  0.00  0.00    -0.314 NA
ATOM     25  H   UNL     1       8.207   2.942   2.435  0.00  0.00    +0.122 HD
BRANCH  24  26
ATOM     26  C   UNL     1       8.672   1.848   0.705  0.00  0.00    +0.120 C 
BRANCH  26  27
ATOM     27  C   UNL     1      10.054   1.556   1.232  0.00  0.00    +0.012 A 
ATOM     28  C   UNL     1      10.639   0.340   1.298  0.00  0.00    +0.120 A 
ATOM     29  N   UNL     1      11.879   0.502   1.829  0.00  0.00    -0.239 N 
ATOM     30  N   UNL     1      12.057   1.864   2.105  0.00  0.00    -0.166 NA
ATOM     31  C   UNL     1      10.962   2.502   1.748  0.00  0.00    +0.098 A 
BRANCH  31  32
ATOM     32  C   UNL     1      10.726   3.962   1.867  0.00  0.00    +0.002 A 
ATOM     33  C   UNL     1      10.128   4.661   0.820  0.00  0.00    +0.010 A 
ATOM     34  C   UNL     1       9.906   6.018   0.939  0.00  0.00    +0.001 A 
ATOM     35  C   UNL     1      10.285   6.686   2.090  0.00  0.00    +0.000 A 
ATOM     36  C   UNL     1      10.883   5.997   3.130  0.00  0.00    +0.001 A 
ATOM     37  C   UNL     1      11.105   4.639   3.024  0.00  0.00    +0.010 A 
ENDBRANCH  31  32
BRANCH  29  38
ATOM     38  C   UNL     1      12.813  -0.515   2.064  0.00  0.00    +0.065 A 
ATOM     39  C   UNL     1      12.504  -1.831   1.747  0.00  0.00    +0.028 A 
ATOM     40  C   UNL     1      13.429  -2.831   1.976  0.00  0.00    +0.002 A 
ATOM     41  C   UNL     1      14.658  -2.524   2.530  0.00  0.00    +0.000 A 
ATOM     42  C   UNL     1      14.967  -1.215   2.852  0.00  0.00    +0.002 A 
ATOM     43  C   UNL     1      14.048  -0.210   2.620  0.00  0.00    +0.028 A 
ENDBRANCH  29  38
ENDBRANCH  26  27
ENDBRANCH  24  26
ENDBRANCH  23  24
ENDBRANCH   1  23
TORSDOF 11
