REMARK  Name = ZINC51052682
REMARK  10 active torsions:
REMARK  status: ('A' for Active; 'I' for Inactive)
REMARK    1  A    between atoms: C_1  and  C_2
REMARK    2  A    between atoms: C_2  and  C_3
REMARK    3  A    between atoms: C_3  and  C_4
REMARK    4  A    between atoms: C_4  and  C_5
REMARK    5  A    between atoms: C_4  and  N_6
REMARK    6  A    between atoms: C_7  and  C_9
REMARK    7  A    between atoms: N_13  and  C_15
REMARK    8  A    between atoms: C_15  and  C_16
REMARK    9  A    between atoms: C_21  and  C_25
REMARK   10  A    between atoms: C_22  and  C_24
REMARK                            x       y       z     vdW  Elec       q    Type
REMARK                         _______ _______ _______ _____ _____    ______ ____
ROOT
ATOM      1  C   UNL     1       0.343  -4.238  -2.611  0.00  0.00    +0.058 C 
ATOM      2  C   UNL     1       1.450  -3.279  -3.058  0.00  0.00    +0.009 C 
ATOM      3  C   UNL     1       2.101  -3.824  -4.333  0.00  0.00    -0.018 C 
ATOM      4  C   UNL     1       2.628  -5.236  -4.066  0.00  0.00    -0.078 C 
ATOM      5  N   UNL     1       1.518  -6.110  -3.669  0.00  0.00    +0.386 N 
ATOM      6  C   UNL     1       0.936  -5.634  -2.409  0.00  0.00    -0.065 C 
ATOM      7  H   UNL     1       0.811  -6.103  -4.389  0.00  0.00    -0.081 HD
ENDROOT
BRANCH   1   9
ATOM      8  N   UNL     1      -0.834  -2.537  -1.256  0.00  0.00    -0.313 N 
ATOM      9  C   UNL     1      -0.252  -3.751  -1.315  0.00  0.00    +0.215 C 
ATOM     10  O   UNL     1      -0.206  -4.451  -0.326  0.00  0.00    -0.276 OA
ATOM     11  H   UNL     1      -0.871  -1.977  -2.047  0.00  0.00    +0.149 HD
BRANCH   8  12
ATOM     12  C   UNL     1      -1.413  -2.063   0.004  0.00  0.00    +0.070 C 
ATOM     13  C   UNL     1      -2.841  -2.594   0.141  0.00  0.00    +0.028 C 
BRANCH  12  14
ATOM     14  C   UNL     1      -1.433  -0.534   0.013  0.00  0.00    +0.022 C 
BRANCH  14  16
ATOM     15  C   UNL     1      -0.019   1.526   0.010  0.00  0.00    +0.004 C 
ATOM     16  C   UNL     1       0.002  -0.004   0.002  0.00  0.00    -0.002 C 
ENDBRANCH  14  16
ENDBRANCH  12  14
ENDBRANCH   8  12
ENDBRANCH   1   9
BRANCH   5  17
ATOM     17  C   UNL     1       2.017  -7.481  -3.490  0.00  0.00    +0.019 C 
BRANCH  17  18
ATOM     18  C   UNL     1       2.494  -8.018  -4.814  0.00  0.00    +0.202 C 
ATOM     19  O   UNL     1       2.427  -7.328  -5.809  0.00  0.00    -0.277 OA
ATOM     20  N   UNL     1       2.997  -9.267  -4.893  0.00  0.00    -0.266 N 
ATOM     21  C   UNL     1       3.438  -9.763  -6.114  0.00  0.00    +0.165 A 
ATOM     22  N   UNL     1       3.447  -9.163  -7.285  0.00  0.00    -0.230 NA
ATOM     23  C   UNL     1       3.903  -9.775  -8.362  0.00  0.00    +0.050 A 
ATOM     24  C   UNL     1       4.357 -11.043  -8.204  0.00  0.00    +0.011 A 
ATOM     25  S   UNL     1       4.096 -11.274  -6.453  0.00  0.00    -0.057 S 
ATOM     26  C   UNL     1       4.930 -11.992  -9.224  0.00  0.00    +0.053 C 
ATOM     27  C   UNL     1       3.917  -9.096  -9.707  0.00  0.00    +0.066 C 
ATOM     28  H   UNL     1       3.051  -9.819  -4.097  0.00  0.00    +0.157 HD
ENDBRANCH  17  18
ENDBRANCH   5  17
TORSDOF 6
