REMARK  Name = ZINC03191394
REMARK  9 active torsions:
REMARK  status: ('A' for Active; 'I' for Inactive)
REMARK    1  A    between atoms: C_1  and  C_2
REMARK    2  A    between atoms: C_2  and  O_3
REMARK    3  A    between atoms: O_3  and  C_4
REMARK    4  A    between atoms: C_4  and  C_6
REMARK    5  A    between atoms: C_7  and  N_27
REMARK    6  A    between atoms: C_11  and  C_13
REMARK    7  A    between atoms: C_16  and  C_19
REMARK    8  A    between atoms: C_19  and  C_20
REMARK    9  A    between atoms: C_19  and  C_21
REMARK                            x       y       z     vdW  Elec       q    Type
REMARK                         _______ _______ _______ _____ _____    ______ ____
ROOT
ATOM      1  C   UNL     1      -0.479   5.827   1.397  0.00  0.00    +0.105 C 
ATOM      2  C   UNL     1      -0.259   4.985   2.440  0.00  0.00    +0.195 C 
ATOM      3  O   UNL     1      -0.607   3.691   2.377  0.00  0.00    -0.446 OA
ATOM      4  C   UNL     1      -0.772   3.098   1.179  0.00  0.00    +0.115 C 
ATOM      5  C   UNL     1      -1.017   3.817   0.069  0.00  0.00    +0.045 C 
ATOM      6  C   UNL     1      -1.117   5.322   0.134  0.00  0.00    +0.097 C 
ATOM      7  C   UNL     1      -1.185   3.195  -1.184  0.00  0.00    +0.163 C 
ATOM      8  O   UNL     1      -1.425   3.877  -2.160  0.00  0.00    -0.292 OA
ATOM      9  C   UNL     1      -1.072   1.703  -1.335  0.00  0.00    +0.080 C 
ATOM     10  C   UNL     1      -0.135   1.165  -0.247  0.00  0.00    +0.016 C 
ATOM     11  C   UNL     1      -0.676   1.591   1.119  0.00  0.00    +0.075 C 
ENDROOT
BRANCH   6  12
ATOM     12  C   UNL     1      -2.569   5.728   0.110  0.00  0.00    -0.035 A 
ATOM     13  C   UNL     1      -3.426   5.287   1.101  0.00  0.00    +0.005 A 
ATOM     14  C   UNL     1      -4.756   5.663   1.082  0.00  0.00    +0.004 A 
ATOM     15  C   UNL     1      -5.231   6.472   0.066  0.00  0.00    -0.045 A 
ATOM     16  C   UNL     1      -4.375   6.909  -0.927  0.00  0.00    +0.004 A 
ATOM     17  C   UNL     1      -3.044   6.537  -0.905  0.00  0.00    +0.005 A 
BRANCH  15  18
ATOM     18  C   UNL     1      -6.682   6.877   0.042  0.00  0.00    +0.013 C 
ATOM     19  C   UNL     1      -7.560   5.626  -0.040  0.00  0.00    +0.012 C 
ATOM     20  C   UNL     1      -7.017   7.652   1.318  0.00  0.00    +0.012 C 
ENDBRANCH  15  18
ENDBRANCH   6  12
BRANCH   2  21
ATOM     21  N   UNL     1       0.329   5.466   3.579  0.00  0.00    -0.329 N 
ATOM     22  H   UNL     1       0.412   4.897   4.359  0.00  0.00    +0.145 HD
ATOM     23  H   UNL     1       0.661   6.377   3.605  0.00  0.00    +0.145 HD
ENDBRANCH   2  21
BRANCH   1  24
ATOM     24  C   UNL     1      -0.107   7.177   1.500  0.00  0.00    +0.341 C 
ATOM     25  O   UNL     1       0.917   7.569   0.969  0.00  0.00    -0.245 OA
BRANCH  24  26
ATOM     26  O   UNL     1      -0.884   8.041   2.187  0.00  0.00    -0.462 OA
BRANCH  26  28
ATOM     27  C   UNL     1      -1.446  10.222   3.065  0.00  0.00    +0.048 C 
ATOM     28  C   UNL     1      -0.445   9.400   2.251  0.00  0.00    +0.229 C 
ENDBRANCH  26  28
ENDBRANCH  24  26
ENDBRANCH   1  24
TORSDOF 6
