REMARK  Name = ZINC05073118
REMARK  6 active torsions:
REMARK  status: ('A' for Active; 'I' for Inactive)
REMARK    1  A    between atoms: C_1  and  C_2
REMARK    2  A    between atoms: C_5  and  C_11
REMARK    3  A    between atoms: C_7  and  N_8
REMARK    4  A    between atoms: C_11  and  O_13
REMARK    5  A    between atoms: O_13  and  N_14
REMARK    6  A    between atoms: C_15  and  C_16
REMARK                            x       y       z     vdW  Elec       q    Type
REMARK                         _______ _______ _______ _____ _____    ______ ____
ROOT
ATOM      1  O   UNL     1       0.471  -4.863  -1.263  0.00  0.00    -0.310 OA
ENDROOT
BRANCH   1   2
ATOM      2  N   UNL     1       0.771  -6.243  -1.164  0.00  0.00    -0.059 NA
ATOM      3  C   UNL     1       0.711  -7.000  -2.221  0.00  0.00    +0.163 C 
ATOM      4  N   UNL     1       0.354  -6.456  -3.442  0.00  0.00    -0.340 N 
ATOM      5  H   UNL     1       0.148  -5.511  -3.510  0.00  0.00    +0.144 HD
ATOM      6  H   UNL     1       0.309  -7.020  -4.229  0.00  0.00    +0.144 HD
BRANCH   3   7
ATOM      7  C   UNL     1       1.025  -8.443  -2.117  0.00  0.00    +0.018 A 
ATOM      8  C   UNL     1       1.380  -8.995  -0.886  0.00  0.00    +0.013 A 
ATOM      9  C   UNL     1       1.671 -10.340  -0.795  0.00  0.00    +0.021 A 
ATOM     10  C   UNL     1       1.612 -11.142  -1.923  0.00  0.00    +0.041 A 
ATOM     11  C   UNL     1       1.261 -10.599  -3.147  0.00  0.00    +0.021 A 
ATOM     12  C   UNL     1       0.961  -9.256  -3.249  0.00  0.00    +0.013 A 
ATOM     13 CL   UNL     1       1.980 -12.834  -1.801  0.00  0.00    -0.084 Cl
ENDBRANCH   3   7
ENDBRANCH   1   2
BRANCH   1  14
ATOM     14  C   UNL     1       0.571  -4.196  -0.099  0.00  0.00    +0.366 C 
ATOM     15  O   UNL     1       0.895  -4.785   0.913  0.00  0.00    -0.243 OA
BRANCH  14  20
ATOM     16  C   UNL     1      -0.538   1.447   0.089  0.00  0.00    +0.046 C 
ATOM     17  C   UNL     1      -0.247  -0.031   0.040  0.00  0.00    -0.020 A 
ATOM     18  C   UNL     1      -0.350  -0.714  -1.160  0.00  0.00    +0.006 A 
ATOM     19  C   UNL     1      -0.086  -2.066  -1.212  0.00  0.00    +0.015 A 
ATOM     20  C   UNL     1       0.287  -2.747  -0.051  0.00  0.00    +0.063 A 
ATOM     21  C   UNL     1       0.390  -2.052   1.156  0.00  0.00    +0.048 A 
ATOM     22  C   UNL     1       0.127  -0.698   1.192  0.00  0.00    +0.130 A 
BRANCH  22  23
ATOM     23  N   UNL     1       0.241   0.042   2.470  0.00  0.00    +0.057 N 
ATOM     24  O   UNL     1       0.675   1.171   2.478  0.00  0.00    -0.126 OA
ATOM     25  O   UNL     1      -0.101  -0.482   3.504  0.00  0.00    -0.126 OA
ENDBRANCH  22  23
ENDBRANCH  14  20
ENDBRANCH   1  14
TORSDOF 5
