REMARK  Name = ZINC39890520
REMARK  8 active torsions:
REMARK  status: ('A' for Active; 'I' for Inactive)
REMARK    1  A    between atoms: C_1  and  C_2
REMARK    2  A    between atoms: C_5  and  C_8
REMARK    3  A    between atoms: C_8  and  N_9
REMARK    4  A    between atoms: C_24  and  C_37
REMARK    5  A    between atoms: N_32  and  C_33
REMARK    6  A    between atoms: C_33  and  C_34
REMARK    7  A    between atoms: C_34  and  C_35
REMARK    8  A    between atoms: C_35  and  O_36
REMARK                            x       y       z     vdW  Elec       q    Type
REMARK                         _______ _______ _______ _____ _____    ______ ____
ROOT
ATOM      1  N   UNL     1       1.447  -4.746  -0.032  0.00  0.00    -0.264 N 
ATOM      2  C   UNL     1       2.175  -4.983  -1.184  0.00  0.00    +0.043 A 
ATOM      3  C   UNL     1       1.792  -4.841  -2.519  0.00  0.00    +0.024 A 
ATOM      4  C   UNL     1       2.734  -5.154  -3.486  0.00  0.00    +0.002 A 
ATOM      5  C   UNL     1       4.002  -5.589  -3.157  0.00  0.00    +0.000 A 
ATOM      6  C   UNL     1       4.397  -5.733  -1.831  0.00  0.00    +0.008 A 
ATOM      7  C   UNL     1       3.465  -5.423  -0.864  0.00  0.00    +0.011 A 
ATOM      8  C   UNL     1       3.536  -5.454   0.629  0.00  0.00    +0.174 C 
ATOM      9  C   UNL     1       2.168  -4.994   1.082  0.00  0.00    +0.253 C 
ATOM     10  O   UNL     1       1.790  -4.873   2.228  0.00  0.00    -0.272 OA
ATOM     11  C   UNL     1       3.867  -6.805   1.160  0.00  0.00    +0.084 A 
ATOM     12  C   UNL     1       3.207  -8.105   0.994  0.00  0.00    +0.199 A 
ATOM     13  O   UNL     1       2.305  -8.297   0.198  0.00  0.00    -0.287 OA
ATOM     14  C   UNL     1       3.743  -9.163   1.887  0.00  0.00    +0.065 A 
ATOM     15  C   UNL     1       3.098 -10.396   1.987  0.00  0.00    +0.018 A 
ATOM     16  C   UNL     1       3.600 -11.358   2.819  0.00  0.00    -0.050 A 
ATOM     17  C   UNL     1       4.745 -11.110   3.563  0.00  0.00    +0.007 A 
ATOM     18  C   UNL     1       5.395  -9.900   3.474  0.00  0.00    +0.047 A 
ATOM     19  C   UNL     1       4.906  -8.904   2.629  0.00  0.00    +0.139 A 
ATOM     20  O   UNL     1       5.570  -7.728   2.546  0.00  0.00    -0.450 OA
ATOM     21  C   UNL     1       4.998  -6.682   1.918  0.00  0.00    +0.200 A 
ATOM     22  C   UNL     1       5.420  -5.270   1.895  0.00  0.00    +0.284 C 
ATOM     23  O   UNL     1       6.391  -4.824   2.472  0.00  0.00    -0.267 OA
ATOM     24  N   UNL     1       4.569  -4.545   1.138  0.00  0.00    -0.273 N 
ATOM     25  C   UNL     1       2.907 -12.691   2.929  0.00  0.00    +0.044 C 
ENDROOT
BRANCH   1  26
ATOM     26  C   UNL     1       0.059  -4.275  -0.021  0.00  0.00    +0.148 C 
BRANCH  26  31
ATOM     27  C   UNL     1      -0.018   1.503   0.010  0.00  0.00    +0.044 C 
ATOM     28  C   UNL     1       0.002  -0.004   0.002  0.00  0.00    -0.050 A 
ATOM     29  C   UNL     1       0.006  -0.689  -1.199  0.00  0.00    +0.003 A 
ATOM     30  C   UNL     1       0.025  -2.071  -1.206  0.00  0.00    +0.005 A 
ATOM     31  C   UNL     1       0.040  -2.768  -0.013  0.00  0.00    -0.030 A 
ATOM     32  C   UNL     1       0.037  -2.084   1.188  0.00  0.00    +0.005 A 
ATOM     33  C   UNL     1       0.023  -0.702   1.195  0.00  0.00    +0.003 A 
ENDBRANCH  26  31
ENDBRANCH   1  26
BRANCH  24  34
ATOM     34  C   UNL     1       4.661  -3.107   0.871  0.00  0.00    +0.112 C 
BRANCH  34  35
ATOM     35  C   UNL     1       3.885  -2.339   1.943  0.00  0.00    +0.047 C 
BRANCH  35  36
ATOM     36  C   UNL     1       3.981  -0.838   1.665  0.00  0.00    +0.157 C 
BRANCH  36  37
ATOM     37  O   UNL     1       3.256  -0.121   2.666  0.00  0.00    -0.395 OA
ATOM     38  H   UNL     1       3.273   0.839   2.552  0.00  0.00    +0.209 HD
ENDBRANCH  36  37
ENDBRANCH  35  36
ENDBRANCH  34  35
ENDBRANCH  24  34
TORSDOF 6
