REMARK  Name = ZINC62826763
REMARK  3 active torsions:
REMARK  status: ('A' for Active; 'I' for Inactive)
REMARK    1  A    between atoms: C_5  and  C_7
REMARK    2  A    between atoms: C_9  and  C_12
REMARK    3  A    between atoms: C_17  and  N_18
REMARK                            x       y       z     vdW  Elec       q    Type
REMARK                         _______ _______ _______ _____ _____    ______ ____
ROOT
ATOM      1  C   UNL     1       1.806  -2.584   0.597  0.00  0.00    +0.203 A 
ATOM      2  N   UNL     1       0.631  -3.229   0.524  0.00  0.00    -0.187 NA
ATOM      3  C   UNL     1       0.834  -4.501   0.264  0.00  0.00    +0.261 A 
ATOM      4  O   UNL     1       2.160  -4.703   0.164  0.00  0.00    -0.332 OA
ATOM      5  N   UNL     1       2.774  -3.441   0.379  0.00  0.00    -0.056 NA
ENDROOT
BRANCH   1  10
ATOM      6  C   UNL     1       1.034   1.019   1.344  0.00  0.00    +0.001 A 
ATOM      7  C   UNL     1       2.305   1.565   1.389  0.00  0.00    +0.001 A 
ATOM      8  C   UNL     1       3.413   0.767   1.176  0.00  0.00    +0.016 A 
ATOM      9  C   UNL     1       3.258  -0.582   0.919  0.00  0.00    +0.029 A 
ATOM     10  C   UNL     1       1.980  -1.137   0.874  0.00  0.00    +0.036 A 
ATOM     11  C   UNL     1       0.867  -0.327   1.089  0.00  0.00    +0.013 A 
ATOM     12 BR   UNL     1       4.775  -1.672   0.628  0.00  0.00    -0.050 Br
ENDBRANCH   1  10
BRANCH   3  13
ATOM     13  C   UNL     1      -0.212  -5.530   0.110  0.00  0.00    +0.061 A 
ATOM     14  C   UNL     1      -1.254  -5.617   1.035  0.00  0.00    +0.015 A 
ATOM     15  C   UNL     1      -2.228  -6.580   0.886  0.00  0.00    +0.002 A 
ATOM     16  C   UNL     1      -2.180  -7.465  -0.179  0.00  0.00    +0.017 A 
ATOM     17  C   UNL     1      -1.156  -7.392  -1.103  0.00  0.00    +0.039 A 
ATOM     18  C   UNL     1      -0.168  -6.424  -0.971  0.00  0.00    +0.051 A 
ATOM     19 BR   UNL     1      -1.101  -8.606  -2.551  0.00  0.00    -0.048 Br
BRANCH  18  20
ATOM     20  N   UNL     1       0.862  -6.344  -1.902  0.00  0.00    -0.357 N 
ATOM     21  H   UNL     1       1.499  -5.614  -1.860  0.00  0.00    +0.142 HD
ATOM     22  H   UNL     1       0.944  -7.019  -2.594  0.00  0.00    +0.142 HD
ENDBRANCH  18  20
ENDBRANCH   3  13
TORSDOF 3
