REMARK  Name = ZINC39687559
REMARK  8 active torsions:
REMARK  status: ('A' for Active; 'I' for Inactive)
REMARK    1  A    between atoms: C_1  and  C_2
REMARK    2  A    between atoms: C_2  and  C_3
REMARK    3  A    between atoms: C_3  and  C_4
REMARK    4  A    between atoms: C_4  and  C_6
REMARK    5  A    between atoms: C_4  and  C_7
REMARK    6  A    between atoms: C_11  and  C_20
REMARK    7  A    between atoms: N_22  and  C_23
REMARK    8  A    between atoms: C_30  and  C_35
REMARK                            x       y       z     vdW  Elec       q    Type
REMARK                         _______ _______ _______ _____ _____    ______ ____
ROOT
ATOM      1  C   UNL     1       1.341  -2.523  -2.629  0.00  0.00    +0.218 C 
ATOM      2  O   UNL     1       1.672  -1.744  -3.497  0.00  0.00    -0.275 OA
ATOM      3  N   UNL     1       1.425  -3.850  -2.847  0.00  0.00    -0.300 N 
ATOM      4  C   UNL     1       1.064  -4.948  -1.919  0.00  0.00    +0.121 C 
ATOM      5  C   UNL     1       0.397  -6.014  -2.817  0.00  0.00    +0.100 C 
ATOM      6  C   UNL     1       0.952  -5.744  -4.226  0.00  0.00    -0.004 C 
ATOM      7  C   UNL     1       1.895  -4.542  -4.071  0.00  0.00    +0.115 C 
ATOM      8  C   UNL     1      -0.184  -5.395  -5.183  0.00  0.00    -0.010 C 
ATOM      9  C   UNL     1       0.386  -5.187  -6.589  0.00  0.00    -0.082 C 
ATOM     10  N   UNL     1       1.066  -6.411  -7.030  0.00  0.00    +0.379 N 
ATOM     11  C   UNL     1       2.214  -6.687  -6.158  0.00  0.00    -0.082 C 
ATOM     12  C   UNL     1       1.722  -6.959  -4.733  0.00  0.00    -0.010 C 
ATOM     13  H   UNL     1       0.421  -7.185  -6.990  0.00  0.00    -0.086 HD
ATOM     14  H   UNL     1       1.387  -6.292  -7.979  0.00  0.00    -0.086 HD
ENDROOT
BRANCH   5  15
ATOM     15  C   UNL     1       0.777  -7.398  -2.358  0.00  0.00    +0.218 C 
ATOM     16  O   UNL     1       1.855  -7.590  -1.838  0.00  0.00    -0.275 OA
ATOM     17  N   UNL     1      -0.082  -8.423  -2.526  0.00  0.00    -0.312 N 
ATOM     18  H   UNL     1      -0.945  -8.270  -2.942  0.00  0.00    +0.149 HD
BRANCH  17  19
ATOM     19  C   UNL     1       0.287  -9.769  -2.079  0.00  0.00    +0.076 C 
ATOM     20  C   UNL     1       1.101 -10.463  -3.173  0.00  0.00    +0.041 C 
ATOM     21  C   UNL     1       1.515 -11.857  -2.689  0.00  0.00    +0.108 C 
ATOM     22  N   UNL     1       0.311 -12.590  -2.276  0.00  0.00    -0.316 N 
ATOM     23  C   UNL     1      -0.592 -11.972  -1.295  0.00  0.00    +0.108 C 
ATOM     24  C   UNL     1      -0.981 -10.577  -1.795  0.00  0.00    +0.041 C 
ATOM     25  C   UNL     1       0.030 -13.845  -2.804  0.00  0.00    +0.102 A 
ATOM     26  C   UNL     1       0.429 -14.987  -2.116  0.00  0.00    -0.012 A 
ATOM     27  C   UNL     1       0.144 -16.230  -2.652  0.00  0.00    +0.008 A 
ATOM     28  C   UNL     1      -0.534 -16.289  -3.863  0.00  0.00    +0.018 A 
ATOM     29  C   UNL     1      -0.900 -15.116  -4.492  0.00  0.00    +0.084 A 
ATOM     30  N   UNL     1      -0.619 -13.944  -3.954  0.00  0.00    -0.349 N 
ATOM     31  C   UNL     1       1.163 -14.872  -0.805  0.00  0.00    +0.047 C 
ATOM     32  H   UNL     1      -0.891 -13.135  -4.414  0.00  0.00    +0.167 HD
ENDBRANCH  17  19
ENDBRANCH   5  15
BRANCH   1  33
ATOM     33  C   UNL     1       0.834  -2.007  -1.307  0.00  0.00    +0.072 C 
ATOM     34  C   UNL     1       1.741  -2.509  -0.182  0.00  0.00    +0.017 C 
BRANCH  33  35
ATOM     35  C   UNL     1       0.838  -0.477  -1.321  0.00  0.00    +0.012 C 
BRANCH  35  37
ATOM     36  C   UNL     1       0.211   1.576  -0.043  0.00  0.00    +0.004 C 
ATOM     37  C   UNL     1       0.207   0.046  -0.029  0.00  0.00    -0.003 C 
ENDBRANCH  35  37
ENDBRANCH  33  35
ENDBRANCH   1  33
TORSDOF 5
