REMARK  Name = ZINC01434491
REMARK  8 active torsions:
REMARK  status: ('A' for Active; 'I' for Inactive)
REMARK    1  A    between atoms: C_1  and  O_2
REMARK    2  A    between atoms: O_2  and  C_3
REMARK    3  A    between atoms: C_5  and  C_10
REMARK    4  A    between atoms: C_8  and  O_9
REMARK    5  A    between atoms: N_11  and  N_12
REMARK    6  A    between atoms: C_13  and  C_15
REMARK    7  A    between atoms: C_15  and  N_16
REMARK    8  A    between atoms: N_16  and  C_17
REMARK                            x       y       z     vdW  Elec       q    Type
REMARK                         _______ _______ _______ _____ _____    ______ ____
ROOT
ATOM      1  N   UNL     1      -0.288   1.272  -2.443  0.00  0.00    -0.206 N 
ATOM      2  C   UNL     1      -0.742   1.585  -1.213  0.00  0.00    +0.249 C 
ATOM      3  O   UNL     1      -1.736   2.268  -1.088  0.00  0.00    -0.272 OA
ATOM      4  H   UNL     1       0.507   0.726  -2.543  0.00  0.00    +0.177 HD
ENDROOT
BRANCH   1   6
ATOM      5  C   UNL     1      -0.530   1.435  -4.763  0.00  0.00    +0.138 C 
ATOM      6  N   UNL     1      -0.966   1.736  -3.578  0.00  0.00    -0.188 NA
BRANCH   5   9
ATOM      7  C   UNL     1      -1.447   2.061  -8.350  0.00  0.00    +0.162 A 
ATOM      8  C   UNL     1      -0.774   1.601  -7.233  0.00  0.00    +0.058 A 
ATOM      9  C   UNL     1      -1.243   1.924  -5.957  0.00  0.00    -0.002 A 
ATOM     10  C   UNL     1      -2.392   2.706  -5.816  0.00  0.00    +0.013 A 
ATOM     11  C   UNL     1      -3.054   3.167  -6.934  0.00  0.00    +0.050 A 
ATOM     12  C   UNL     1      -2.588   2.846  -8.201  0.00  0.00    +0.158 A 
BRANCH   7  14
ATOM     13  C   UNL     1       0.182   0.940  -9.671  0.00  0.00    +0.277 C 
ATOM     14  O   UNL     1      -0.994   1.748  -9.593  0.00  0.00    -0.491 OA
ENDBRANCH   7  14
BRANCH  12  15
ATOM     15  O   UNL     1      -3.248   3.298  -9.300  0.00  0.00    -0.503 OA
ATOM     16  H   UNL     1      -3.939   2.701  -9.618  0.00  0.00    +0.292 HD
ENDBRANCH  12  15
ENDBRANCH   5   9
ENDBRANCH   1   6
BRANCH   2  17
ATOM     17  C   UNL     1      -0.013   1.086   0.008  0.00  0.00    +0.199 C 
BRANCH  17  18
ATOM     18  N   UNL     1      -0.698   1.558   1.213  0.00  0.00    -0.334 N 
ATOM     19  H   UNL     1      -1.495   2.106   1.135  0.00  0.00    +0.147 HD
BRANCH  18  20
ATOM     20  C   UNL     1      -0.204   1.220   2.476  0.00  0.00    +0.042 A 
ATOM     21  C   UNL     1       0.937   0.437   2.590  0.00  0.00    +0.025 A 
ATOM     22  C   UNL     1       1.423   0.105   3.840  0.00  0.00    +0.017 A 
ATOM     23  C   UNL     1       0.775   0.552   4.978  0.00  0.00    +0.019 A 
ATOM     24  C   UNL     1      -0.362   1.332   4.868  0.00  0.00    +0.032 A 
ATOM     25  C   UNL     1      -0.850   1.673   3.621  0.00  0.00    +0.040 A 
ATOM     26 BR   UNL     1      -2.400   2.746   3.471  0.00  0.00    -0.048 Br
ATOM     27 BR   UNL     1       1.445   0.095   6.686  0.00  0.00    -0.050 Br
ENDBRANCH  18  20
ENDBRANCH  17  18
ENDBRANCH   2  17
TORSDOF 7
