REMARK  Name = ZINC05310184
REMARK  6 active torsions:
REMARK  status: ('A' for Active; 'I' for Inactive)
REMARK    1  A    between atoms: C_1  and  C_2
REMARK    2  A    between atoms: C_3  and  C_28
REMARK    3  A    between atoms: C_11  and  C_13
REMARK    4  A    between atoms: C_13  and  C_15
REMARK    5  A    between atoms: C_13  and  S_16
REMARK    6  A    between atoms: S_16  and  C_17
REMARK                            x       y       z     vdW  Elec       q    Type
REMARK                         _______ _______ _______ _____ _____    ______ ____
ROOT
ATOM      1  C   UNL     1       0.090  -3.432   4.547  0.00  0.00    +0.117 C 
ATOM      2  C   UNL     1       1.535  -3.832   4.850  0.00  0.00    +0.027 C 
ENDROOT
BRANCH   1  13
ATOM      3  C   UNL     1      -0.018   1.503   0.010  0.00  0.00    +0.045 C 
ATOM      4  C   UNL     1       0.002  -0.004   0.002  0.00  0.00    -0.026 A 
ATOM      5  C   UNL     1       0.006  -0.677  -1.160  0.00  0.00    -0.008 A 
ATOM      6  S   UNL     1       0.032  -2.385  -0.648  0.00  0.00    -0.073 S 
ATOM      7  C   UNL     1       0.037  -2.144   1.110  0.00  0.00    +0.116 A 
ATOM      8  C   UNL     1       0.024  -0.745   1.250  0.00  0.00    +0.075 A 
ATOM      9  C   UNL     1       0.029  -0.257   2.597  0.00  0.00    +0.260 A 
ATOM     10  O   UNL     1       0.014   0.942   2.821  0.00  0.00    -0.267 OA
ATOM     11  N   UNL     1       0.051  -1.142   3.611  0.00  0.00    -0.309 N 
ATOM     12  H   UNL     1       0.054  -0.817   4.525  0.00  0.00    +0.170 HD
ATOM     13  C   UNL     1       0.067  -2.480   3.380  0.00  0.00    +0.124 A 
ATOM     14  N   UNL     1       0.053  -2.956   2.163  0.00  0.00    -0.225 NA
ATOM     15  C   UNL     1      -0.009  -0.122  -2.561  0.00  0.00    +0.052 C 
ENDBRANCH   1  13
BRANCH   1  16
ATOM     16  S   UNL     1      -0.631  -2.623   6.002  0.00  0.00    -0.077 S 
BRANCH  16  17
ATOM     17  C   UNL     1      -0.668  -3.894   7.222  0.00  0.00    +0.170 A 
ATOM     18  N   UNL     1      -0.249  -5.124   7.042  0.00  0.00    -0.202 NA
ATOM     19  H   UNL     1      -1.493  -2.932   8.888  0.00  0.00    +0.168 HD
ATOM     20  C   UNL     1      -0.422  -5.838   8.182  0.00  0.00    +0.179 A 
ATOM     21  C   UNL     1      -0.992  -4.968   9.129  0.00  0.00    +0.087 A 
ATOM     22  N   UNL     1      -1.132  -3.744   8.498  0.00  0.00    -0.332 N 
ATOM     23  C   UNL     1      -1.280  -5.438  10.401  0.00  0.00    +0.051 A 
ATOM     24  C   UNL     1      -0.991  -6.763  10.692  0.00  0.00    +0.061 A 
ATOM     25  C   UNL     1      -0.429  -7.568   9.715  0.00  0.00    +0.133 A 
ATOM     26  N   UNL     1      -0.163  -7.101   8.512  0.00  0.00    -0.233 NA
ATOM     27 CL   UNL     1      -1.329  -7.407  12.269  0.00  0.00    -0.082 Cl
ENDBRANCH  16  17
ENDBRANCH   1  16
TORSDOF 3
