REMARK  Name = ZINC39938706
REMARK  11 active torsions:
REMARK  status: ('A' for Active; 'I' for Inactive)
REMARK    1  A    between atoms: C_1  and  C_2
REMARK    2  A    between atoms: C_2  and  C_4
REMARK    3  A    between atoms: C_2  and  O_35
REMARK    4  A    between atoms: C_4  and  C_6
REMARK    5  A    between atoms: C_4  and  N_21
REMARK    6  A    between atoms: C_6  and  O_8
REMARK    7  A    between atoms: O_8  and  C_9
REMARK    8  A    between atoms: C_9  and  C_10
REMARK    9  A    between atoms: C_10  and  C_12
REMARK   10  A    between atoms: N_21  and  S_22
REMARK   11  A    between atoms: S_22  and  C_25
REMARK                            x       y       z     vdW  Elec       q    Type
REMARK                         _______ _______ _______ _____ _____    ______ ____
ROOT
ATOM      1  C   UNL     1       0.791  -0.580   1.206  0.00  0.00    +0.213 C 
ENDROOT
BRANCH   1   3
ATOM      2  C   UNL     1      -0.339   1.334   0.064  0.00  0.00    +0.040 C 
ATOM      3  C   UNL     1      -0.084  -0.174   0.018  0.00  0.00    +0.141 C 
BRANCH   3   4
ATOM      4  O   UNL     1       0.584  -0.507  -1.201  0.00  0.00    -0.390 OA
ATOM      5  H   UNL     1       0.778  -1.450  -1.298  0.00  0.00    +0.210 HD
ENDBRANCH   3   4
ENDBRANCH   1   3
BRANCH   1   6
ATOM      6  C   UNL     1       0.923  -2.081   1.243  0.00  0.00    +0.329 C 
ATOM      7  O   UNL     1       0.541  -2.697   2.209  0.00  0.00    -0.249 OA
BRANCH   6   8
ATOM      8  O   UNL     1       1.466  -2.732   0.203  0.00  0.00    -0.455 OA
BRANCH   8   9
ATOM      9  C   UNL     1       1.561  -4.155   0.306  0.00  0.00    +0.311 C 
BRANCH   9  10
ATOM     10  C   UNL     1       2.191  -4.708  -0.946  0.00  0.00    +0.199 C 
ATOM     11  O   UNL     1       2.527  -3.958  -1.840  0.00  0.00    -0.289 OA
BRANCH  10  12
ATOM     12  C   UNL     1       2.391  -6.099  -1.080  0.00  0.00    +0.026 C 
ATOM     13  C   UNL     1       2.957  -6.763  -2.153  0.00  0.00    +0.006 A 
ATOM     14  C   UNL     1       3.487  -6.321  -3.388  0.00  0.00    +0.010 A 
ATOM     15  C   UNL     1       3.987  -7.212  -4.273  0.00  0.00    +0.001 A 
ATOM     16  C   UNL     1       4.008  -8.593  -4.022  0.00  0.00    +0.002 A 
ATOM     17  C   UNL     1       3.526  -9.118  -2.875  0.00  0.00    +0.026 A 
ATOM     18  C   UNL     1       2.963  -8.217  -1.856  0.00  0.00    +0.043 A 
ATOM     19  N   UNL     1       2.440  -8.446  -0.685  0.00  0.00    -0.380 N 
ATOM     20  C   UNL     1       2.037  -7.175  -0.076  0.00  0.00    +0.152 C 
ATOM     21  H   UNL     1       2.338  -9.320  -0.278  0.00  0.00    +0.160 HD
ENDBRANCH  10  12
ENDBRANCH   9  10
ENDBRANCH   8   9
ENDBRANCH   6   8
ENDBRANCH   1   6
BRANCH   1  22
ATOM     22  N   UNL     1       0.173  -0.113   2.449  0.00  0.00    -0.174 NA
ATOM     23  H   UNL     1      -0.793  -0.096   2.534  0.00  0.00    +0.149 HD
BRANCH  22  24
ATOM     24  S   UNL     1       1.124   0.384   3.711  0.00  0.00    +0.059 S 
ATOM     25  O   UNL     1       0.242   0.794   4.747  0.00  0.00    -0.153 OA
ATOM     26  O   UNL     1       2.106  -0.625   3.901  0.00  0.00    -0.153 OA
BRANCH  24  27
ATOM     27  C   UNL     1       1.982   1.828   3.179  0.00  0.00    +0.106 A 
ATOM     28  C   UNL     1       3.186   1.696   2.490  0.00  0.00    +0.029 A 
ATOM     29  C   UNL     1       3.874   2.791   2.065  0.00  0.00    +0.010 A 
ATOM     30  C   UNL     1       3.365   4.075   2.324  0.00  0.00    -0.018 A 
ATOM     31  C   UNL     1       4.046   5.229   1.901  0.00  0.00    +0.008 A 
ATOM     32  C   UNL     1       3.523   6.457   2.168  0.00  0.00    +0.001 A 
ATOM     33  C   UNL     1       2.318   6.589   2.857  0.00  0.00    +0.001 A 
ATOM     34  C   UNL     1       1.631   5.494   3.282  0.00  0.00    +0.008 A 
ATOM     35  C   UNL     1       2.140   4.209   3.024  0.00  0.00    -0.016 A 
ATOM     36  C   UNL     1       1.456   3.055   3.442  0.00  0.00    +0.037 A 
ENDBRANCH  24  27
ENDBRANCH  22  24
ENDBRANCH   1  22
TORSDOF 10
