REMARK  Name = ZINC40313311
REMARK  14 active torsions:
REMARK  status: ('A' for Active; 'I' for Inactive)
REMARK    1  A    between atoms: C_1  and  C_2
REMARK    2  A    between atoms: C_6  and  O_8
REMARK    3  A    between atoms: O_8  and  C_9
REMARK    4  A    between atoms: C_9  and  C_10
REMARK    5  A    between atoms: C_10  and  C_12
REMARK    6  A    between atoms: C_10  and  O_39
REMARK    7  A    between atoms: C_12  and  N_13
REMARK    8  A    between atoms: N_13  and  C_14
REMARK    9  A    between atoms: C_15  and  C_28
REMARK   10  A    between atoms: C_20  and  C_24
REMARK   11  A    between atoms: C_24  and  C_25
REMARK   12  A    between atoms: C_24  and  C_26
REMARK   13  A    between atoms: C_24  and  C_27
REMARK   14  A    between atoms: N_30  and  C_31
REMARK                            x       y       z     vdW  Elec       q    Type
REMARK                         _______ _______ _______ _____ _____    ______ ____
ROOT
ATOM      1  C   UNL     1       0.365  -8.252   5.117  0.00  0.00    +0.078 A 
ATOM      2  C   UNL     1       0.391  -8.962   6.309  0.00  0.00    +0.068 A 
ATOM      3  C   UNL     1       0.530 -10.406   6.217  0.00  0.00    -0.023 A 
ATOM      4  C   UNL     1       0.617 -10.874   4.954  0.00  0.00    -0.004 A 
ATOM      5  S   UNL     1       0.511  -9.433   3.933  0.00  0.00    -0.078 S 
ATOM      6  C   UNL     1       0.764 -12.303   4.532  0.00  0.00    +0.046 C 
ATOM      7  C   UNL     1       0.423 -13.198   5.733  0.00  0.00    -0.000 C 
ATOM      8  C   UNL     1       1.173 -12.681   6.964  0.00  0.00    +0.009 C 
ATOM      9  C   UNL     1       0.579 -11.345   7.413  0.00  0.00    +0.037 C 
ENDROOT
BRANCH   7  10
ATOM     10  C   UNL     1       0.850 -14.637   5.436  0.00  0.00    -0.035 C 
ATOM     11  C   UNL     1       2.357 -14.680   5.181  0.00  0.00    +0.011 C 
ATOM     12  C   UNL     1       0.509 -15.527   6.634  0.00  0.00    +0.011 C 
ATOM     13  C   UNL     1       0.108 -15.144   4.198  0.00  0.00    +0.011 C 
ENDBRANCH   7  10
BRANCH   2  14
ATOM     14  C   UNL     1       0.284  -8.286   7.603  0.00  0.00    +0.247 C 
ATOM     15  O   UNL     1      -0.810  -8.103   8.106  0.00  0.00    -0.270 OA
ATOM     16  N   UNL     1       1.396  -7.865   8.238  0.00  0.00    -0.307 N 
ATOM     17  H   UNL     1       2.267  -8.011   7.838  0.00  0.00    +0.149 HD
BRANCH  16  18
ATOM     18  C   UNL     1       1.288  -7.189   9.533  0.00  0.00    +0.096 C 
ATOM     19  C   UNL     1       1.062  -5.683   9.315  0.00  0.00    +0.046 C 
ATOM     20  C   UNL     1       1.266  -4.921  10.647  0.00  0.00    +0.168 C 
ATOM     21  S   UNL     1       2.463  -5.990  11.545  0.00  0.00    -0.029 S 
ATOM     22  O   UNL     1       1.848  -6.481  12.728  0.00  0.00    -0.174 OA
ATOM     23  O   UNL     1       3.710  -5.315  11.633  0.00  0.00    -0.174 OA
ATOM     24  C   UNL     1       2.611  -7.369  10.331  0.00  0.00    +0.188 C 
ENDBRANCH  16  18
ENDBRANCH   2  14
BRANCH   1  25
ATOM     25  N   UNL     1       0.242  -6.886   4.944  0.00  0.00    -0.335 N 
ATOM     26  H   UNL     1       0.165  -6.304   5.717  0.00  0.00    +0.147 HD
BRANCH  25  27
ATOM     27  C   UNL     1       0.228  -6.317   3.594  0.00  0.00    +0.136 C 
BRANCH  27  28
ATOM     28  C   UNL     1       0.083  -4.796   3.683  0.00  0.00    +0.169 C 
BRANCH  28  29
ATOM     29  O   UNL     1      -1.140  -4.473   4.349  0.00  0.00    -0.387 OA
ATOM     30  H   UNL     1      -1.930  -4.810   3.905  0.00  0.00    +0.210 HD
ENDBRANCH  28  29
BRANCH  28  31
ATOM     31  C   UNL     1       0.069  -4.202   2.274  0.00  0.00    +0.261 C 
BRANCH  31  32
ATOM     32  O   UNL     1       0.050  -2.776   2.358  0.00  0.00    -0.489 OA
BRANCH  32  38
ATOM     33  C   UNL     1      -0.018   1.503   0.010  0.00  0.00    +0.044 C 
ATOM     34  C   UNL     1       0.002  -0.004   0.002  0.00  0.00    -0.047 A 
ATOM     35  C   UNL     1       0.006  -0.688  -1.200  0.00  0.00    +0.003 A 
ATOM     36  C   UNL     1       0.024  -2.071  -1.211  0.00  0.00    +0.004 A 
ATOM     37  C   UNL     1       0.039  -2.772  -0.020  0.00  0.00    +0.045 A 
ATOM     38  C   UNL     1       0.035  -2.088   1.186  0.00  0.00    +0.121 A 
ATOM     39  C   UNL     1       0.023  -0.700   1.195  0.00  0.00    +0.049 A 
ENDBRANCH  32  38
ENDBRANCH  31  32
ENDBRANCH  28  31
ENDBRANCH  27  28
ENDBRANCH  25  27
ENDBRANCH   1  25
TORSDOF 10
