REMARK  Name = ZINC08935090
REMARK  6 active torsions:
REMARK  status: ('A' for Active; 'I' for Inactive)
REMARK    1  A    between atoms: C_1  and  C_2
REMARK    2  A    between atoms: C_5  and  C_32
REMARK    3  A    between atoms: C_6  and  N_8
REMARK    4  A    between atoms: N_21  and  N_22
REMARK    5  A    between atoms: C_23  and  C_24
REMARK    6  A    between atoms: C_29  and  O_30
REMARK                            x       y       z     vdW  Elec       q    Type
REMARK                         _______ _______ _______ _____ _____    ______ ____
ROOT
ATOM      1  N   UNL     1       0.252  -2.795   2.382  0.00  0.00    -0.283 N 
ATOM      2  C   UNL     1       0.245  -2.118   3.586  0.00  0.00    +0.225 A 
ATOM      3  N   UNL     1       0.030  -0.806   3.610  0.00  0.00    -0.179 NA
ATOM      4  C   UNL     1       0.024  -0.155   4.769  0.00  0.00    +0.241 A 
ATOM      5  N   UNL     1       0.233  -0.815   5.904  0.00  0.00    -0.180 NA
ATOM      6  C   UNL     1       0.447  -2.127   5.880  0.00  0.00    +0.224 A 
ATOM      7  N   UNL     1       0.448  -2.779   4.721  0.00  0.00    -0.181 NA
ATOM      8  N   UNL     1       0.664  -2.812   7.058  0.00  0.00    -0.295 N 
ATOM      9  C   UNL     1       0.910  -4.263   7.056  0.00  0.00    +0.136 C 
ATOM     10  C   UNL     1       2.171  -4.541   7.883  0.00  0.00    +0.179 C 
ATOM     11  O   UNL     1       2.039  -3.921   9.164  0.00  0.00    -0.377 OA
ATOM     12  C   UNL     1       1.929  -2.496   9.117  0.00  0.00    +0.179 C 
ATOM     13  C   UNL     1       0.661  -2.113   8.353  0.00  0.00    +0.136 C 
ATOM     14  N   UNL     1      -0.199   1.208   4.793  0.00  0.00    -0.205 N 
ATOM     15  H   UNL     1       0.494  -3.734   2.355  0.00  0.00    +0.155 HD
ATOM     16  H   UNL     1      -0.280   1.701   3.962  0.00  0.00    +0.177 HD
ENDROOT
BRANCH   1  22
ATOM     17  C   UNL     1      -1.666   1.145   0.155  0.00  0.00    +0.044 C 
ATOM     18  C   UNL     1      -1.022  -0.216   0.093  0.00  0.00    -0.049 A 
ATOM     19  C   UNL     1      -0.771  -0.806  -1.132  0.00  0.00    +0.004 A 
ATOM     20  C   UNL     1      -0.181  -2.055  -1.193  0.00  0.00    +0.005 A 
ATOM     21  C   UNL     1       0.160  -2.717  -0.030  0.00  0.00    -0.029 A 
ATOM     22  C   UNL     1      -0.091  -2.127   1.202  0.00  0.00    +0.037 A 
ATOM     23  C   UNL     1      -0.679  -0.870   1.260  0.00  0.00    +0.027 A 
ATOM     24  C   UNL     1       0.802  -4.079  -0.097  0.00  0.00    +0.045 C 
ENDBRANCH   1  22
BRANCH  14  25
ATOM     25  N   UNL     1      -0.307   1.877   6.019  0.00  0.00    -0.187 NA
ATOM     26  C   UNL     1      -0.611   3.139   6.044  0.00  0.00    +0.142 C 
BRANCH  26  27
ATOM     27  C   UNL     1      -0.619   3.870   7.324  0.00  0.00    +0.037 A 
ATOM     28  C   UNL     1      -1.059   5.194   7.374  0.00  0.00    +0.028 A 
ATOM     29  C   UNL     1      -1.064   5.872   8.576  0.00  0.00    +0.019 A 
ATOM     30  C   UNL     1      -0.633   5.245   9.733  0.00  0.00    +0.019 A 
ATOM     31  C   UNL     1      -0.195   3.935   9.696  0.00  0.00    +0.047 A 
ATOM     32  C   UNL     1      -0.190   3.237   8.499  0.00  0.00    +0.126 A 
ATOM     33 BR   UNL     1      -1.660   7.666   8.643  0.00  0.00    -0.050 Br
BRANCH  32  34
ATOM     34  O   UNL     1       0.236   1.948   8.463  0.00  0.00    -0.506 OA
ATOM     35  H   UNL     1       1.194   1.852   8.374  0.00  0.00    +0.292 HD
ENDBRANCH  32  34
ENDBRANCH  26  27
ENDBRANCH  14  25
TORSDOF 4
