REMARK  Name = ZINC16976315
REMARK  10 active torsions:
REMARK  status: ('A' for Active; 'I' for Inactive)
REMARK    1  A    between atoms: C_1  and  C_2
REMARK    2  A    between atoms: C_2  and  O_3
REMARK    3  A    between atoms: O_3  and  C_4
REMARK    4  A    between atoms: C_6  and  C_19
REMARK    5  A    between atoms: C_9  and  O_10
REMARK    6  A    between atoms: O_10  and  C_11
REMARK    7  A    between atoms: C_11  and  C_12
REMARK    8  A    between atoms: C_24  and  C_29
REMARK    9  A    between atoms: C_31  and  N_35
REMARK   10  A    between atoms: C_32  and  C_33
REMARK                            x       y       z     vdW  Elec       q    Type
REMARK                         _______ _______ _______ _____ _____    ______ ____
ROOT
ATOM      1  C   UNL     1       4.324  -3.176   2.786  0.00  0.00    +0.162 A 
ATOM      2  C   UNL     1       4.069  -2.666   1.523  0.00  0.00    +0.054 A 
ATOM      3  C   UNL     1       3.951  -1.301   1.340  0.00  0.00    -0.031 A 
ATOM      4  C   UNL     1       4.076  -0.443   2.417  0.00  0.00    +0.008 A 
ATOM      5  C   UNL     1       4.324  -0.946   3.680  0.00  0.00    +0.050 A 
ATOM      6  C   UNL     1       4.449  -2.312   3.870  0.00  0.00    +0.162 A 
ENDROOT
BRANCH   3   7
ATOM      7  C   UNL     1       3.680  -0.748  -0.035  0.00  0.00    +0.103 C 
ATOM      8  C   UNL     1       2.382   0.011  -0.020  0.00  0.00    +0.072 A 
ATOM      9  C   UNL     1       2.372   1.390  -0.013  0.00  0.00    +0.141 A 
ATOM     10  C   UNL     1       1.133   2.064   0.002  0.00  0.00    +0.067 A 
ATOM     11  C   UNL     1      -0.016   1.355   0.009  0.00  0.00    +0.019 A 
ATOM     12  N   UNL     1       0.002  -0.004   0.002  0.00  0.00    -0.326 N 
ATOM     13  H   UNL     1      -0.943  -0.567   0.008  0.00  0.00    +0.169 HD
ATOM     14  C   UNL     1       1.165  -0.682  -0.013  0.00  0.00    +0.257 A 
ATOM     15  O   UNL     1       1.159  -1.903  -0.020  0.00  0.00    -0.267 OA
ATOM     16  C   UNL     1      -1.337   2.080   0.020  0.00  0.00    +0.063 C 
ATOM     17  O   UNL     1       3.522   2.096  -0.019  0.00  0.00    -0.441 OA
ATOM     18  C   UNL     1       4.667   1.509  -0.407  0.00  0.00    +0.199 C 
ATOM     19  C   UNL     1       4.807   0.163  -0.437  0.00  0.00    +0.098 C 
BRANCH  18  20
ATOM     20  N   UNL     1       5.726   2.297  -0.782  0.00  0.00    -0.328 N 
ATOM     21  H   UNL     1       6.671   1.833  -1.102  0.00  0.00    +0.145 HD
ATOM     22  H   UNL     1       5.630   3.393  -0.763  0.00  0.00    +0.145 HD
ENDBRANCH  18  20
BRANCH  19  23
ATOM     23  C   UNL     1       6.052  -0.405  -0.860  0.00  0.00    +0.101 C 
ATOM     24  N   UNL     1       7.039  -0.856  -1.196  0.00  0.00    -0.191 NA
ENDBRANCH  19  23
ENDBRANCH   3   7
BRANCH   1  25
ATOM     25  O   UNL     1       4.445  -4.519   2.967  0.00  0.00    -0.489 OA
BRANCH  25  27
ATOM     26  C   UNL     1       4.472  -6.813   2.207  0.00  0.00    +0.048 C 
ATOM     27  C   UNL     1       4.305  -5.345   1.810  0.00  0.00    +0.226 C 
ENDBRANCH  25  27
ENDBRANCH   1  25
BRANCH   6  28
ATOM     28  O   UNL     1       4.693  -2.809   5.112  0.00  0.00    -0.484 OA
BRANCH  28  29
ATOM     29  C   UNL     1       4.809  -1.863   6.177  0.00  0.00    +0.264 C 
BRANCH  29  30
ATOM     30  C   UNL     1       5.078  -2.591   7.469  0.00  0.00    -0.010 A 
ATOM     31  C   UNL     1       4.023  -3.000   8.264  0.00  0.00    +0.008 A 
ATOM     32  C   UNL     1       4.269  -3.673   9.446  0.00  0.00    +0.020 A 
ATOM     33  C   UNL     1       5.571  -3.928   9.839  0.00  0.00    +0.041 A 
ATOM     34  C   UNL     1       6.626  -3.514   9.046  0.00  0.00    +0.020 A 
ATOM     35  C   UNL     1       6.379  -2.845   7.861  0.00  0.00    +0.008 A 
ATOM     36 CL   UNL     1       5.880  -4.767  11.326  0.00  0.00    -0.084 Cl
ENDBRANCH  29  30
ENDBRANCH  28  29
ENDBRANCH   6  28
TORSDOF 8
