REMARK  Name = ZINC04806717
REMARK  5 active torsions:
REMARK  status: ('A' for Active; 'I' for Inactive)
REMARK    1  A    between atoms: C_1  and  O_2
REMARK    2  A    between atoms: O_2  and  C_3
REMARK    3  A    between atoms: C_8  and  O_9
REMARK    4  A    between atoms: O_9  and  C_10
REMARK    5  A    between atoms: C_12  and  C_16
REMARK                            x       y       z     vdW  Elec       q    Type
REMARK                         _______ _______ _______ _____ _____    ______ ____
ROOT
ATOM      1  C   UNL     1      -7.266   0.361   0.039  0.00  0.00    +0.162 A 
ATOM      2  C   UNL     1      -6.092  -0.365   0.029  0.00  0.00    +0.066 A 
ATOM      3  C   UNL     1      -4.869   0.304   0.027  0.00  0.00    +0.089 A 
ATOM      4  C   UNL     1      -4.833   1.719   0.034  0.00  0.00    +0.085 A 
ATOM      5  C   UNL     1      -6.029   2.437   0.044  0.00  0.00    +0.078 A 
ATOM      6  C   UNL     1      -7.234   1.760   0.047  0.00  0.00    +0.164 A 
ATOM      7  N   UNL     1      -3.629   2.342   0.037  0.00  0.00    -0.212 NA
ATOM      8  C   UNL     1      -2.511   1.666   0.023  0.00  0.00    +0.233 A 
ATOM      9  O   UNL     1      -2.458   0.323   0.015  0.00  0.00    -0.403 OA
ATOM     10  C   UNL     1      -3.590  -0.416   0.017  0.00  0.00    +0.348 A 
ATOM     11  O   UNL     1      -3.550  -1.632   0.010  0.00  0.00    -0.244 OA
ENDROOT
BRANCH   8  12
ATOM     12  C   UNL     1      -1.240   2.416   0.021  0.00  0.00    +0.055 A 
ATOM     13  C   UNL     1      -1.250   3.813   0.033  0.00  0.00    +0.016 A 
ATOM     14  C   UNL     1      -0.059   4.508   0.025  0.00  0.00    +0.021 A 
ATOM     15  C   UNL     1       1.146   3.824   0.011  0.00  0.00    +0.042 A 
ATOM     16  C   UNL     1       1.164   2.440   0.004  0.00  0.00    +0.040 A 
ATOM     17  C   UNL     1      -0.021   1.732   0.012  0.00  0.00    +0.055 A 
ATOM     18 CL   UNL     1       0.002  -0.004   0.002  0.00  0.00    -0.083 Cl
ATOM     19 CL   UNL     1       2.640   4.708   0.002  0.00  0.00    -0.083 Cl
ENDBRANCH   8  12
BRANCH   1  21
ATOM     20  C   UNL     1      -8.425  -1.715   0.035  0.00  0.00    +0.277 C 
ATOM     21  O   UNL     1      -8.462  -0.287   0.043  0.00  0.00    -0.491 OA
ENDBRANCH   1  21
BRANCH   6  22
ATOM     22  O   UNL     1      -8.398   2.459   0.056  0.00  0.00    -0.491 OA
ATOM     23  C   UNL     1      -8.298   3.885   0.064  0.00  0.00    +0.277 C 
ENDBRANCH   6  22
TORSDOF 3
