REMARK  Name = ZINC61949886
REMARK  8 active torsions:
REMARK  status: ('A' for Active; 'I' for Inactive)
REMARK    1  A    between atoms: C_1  and  C_2
REMARK    2  A    between atoms: C_2  and  C_4
REMARK    3  A    between atoms: C_2  and  N_23
REMARK    4  A    between atoms: C_4  and  C_6
REMARK    5  A    between atoms: C_4  and  N_13
REMARK    6  A    between atoms: N_13  and  C_14
REMARK    7  A    between atoms: N_13  and  C_15
REMARK    8  A    between atoms: C_18  and  C_21
REMARK                            x       y       z     vdW  Elec       q    Type
REMARK                         _______ _______ _______ _____ _____    ______ ____
ROOT
ATOM      1  C   UNL     1      -1.177  -0.255   0.243  0.00  0.00    +0.089 C 
ENDROOT
BRANCH   1   2
ATOM      2  C   UNL     1      -1.490  -1.728   0.285  0.00  0.00    -0.029 A 
ATOM      3  C   UNL     1      -1.560  -2.386   1.499  0.00  0.00    +0.006 A 
ATOM      4  C   UNL     1      -1.847  -3.737   1.538  0.00  0.00    +0.015 A 
ATOM      5  C   UNL     1      -2.065  -4.432   0.362  0.00  0.00    +0.018 A 
ATOM      6  C   UNL     1      -1.996  -3.773  -0.853  0.00  0.00    +0.015 A 
ATOM      7  C   UNL     1      -1.713  -2.421  -0.891  0.00  0.00    +0.006 A 
ATOM      8 BR   UNL     1      -2.458  -6.281   0.414  0.00  0.00    -0.050 Br
ENDBRANCH   1   2
BRANCH   1  10
ATOM      9  C   UNL     1       0.504   1.492   0.847  0.00  0.00    -0.012 C 
ATOM     10  C   UNL     1       0.196  -0.007   0.871  0.00  0.00    -0.053 C 
BRANCH  10  11
ATOM     11  N   UNL     1       0.192  -0.483   2.260  0.00  0.00    +0.381 N 
ATOM     12  H   UNL     1      -0.653  -0.176   2.719  0.00  0.00    -0.090 HD
ATOM     13  H   UNL     1       0.233  -1.491   2.270  0.00  0.00    -0.090 HD
ATOM     14  H   UNL     1       0.993  -0.110   2.746  0.00  0.00    -0.090 HD
ENDBRANCH  10  11
ENDBRANCH   1  10
BRANCH   1  15
ATOM     15  N   UNL     1      -2.197   0.483   0.993  0.00  0.00    -0.327 N 
ATOM     16  C   UNL     1      -2.978  -0.197   2.030  0.00  0.00    +0.130 C 
BRANCH  15  17
ATOM     17  C   UNL     1      -2.425   1.829   0.720  0.00  0.00    +0.030 A 
ATOM     18  C   UNL     1      -1.742   2.451  -0.321  0.00  0.00    +0.024 A 
ATOM     19  C   UNL     1      -1.964   3.782  -0.594  0.00  0.00    +0.020 A 
ATOM     20  C   UNL     1      -2.877   4.508   0.176  0.00  0.00    +0.052 A 
ATOM     21  C   UNL     1      -3.562   3.880   1.221  0.00  0.00    +0.020 A 
ATOM     22  C   UNL     1      -3.339   2.547   1.485  0.00  0.00    +0.024 A 
BRANCH  20  23
ATOM     23  C   UNL     1      -3.111   5.893  -0.104  0.00  0.00    +0.099 C 
ATOM     24  N   UNL     1      -3.296   6.991  -0.326  0.00  0.00    -0.191 NA
ENDBRANCH  20  23
ENDBRANCH  15  17
ENDBRANCH   1  15
TORSDOF 6
