REMARK  Name = ZINC64684644
REMARK  8 active torsions:
REMARK  status: ('A' for Active; 'I' for Inactive)
REMARK    1  A    between atoms: CG_7  and  CB_10
REMARK    2  A    between atoms: CB_10  and  CA_11
REMARK    3  A    between atoms: CA_11  and  C_13
REMARK    4  A    between atoms: CA_11  and  N_16
REMARK    5  A    between atoms: C_17  and  C_19
REMARK    6  A    between atoms: C_19  and  S_20
REMARK    7  A    between atoms: S_20  and  C_21
REMARK    8  A    between atoms: N_26  and  C_27
REMARK                            x       y       z     vdW  Elec       q    Type
REMARK                         _______ _______ _______ _____ _____    ______ ____
ROOT
ATOM      1  N   TRP A   1       1.712  -4.162  -2.020  0.00  0.00    -0.301 N 
ATOM      2  C   UNK A   0       1.907  -4.157  -3.354  0.00  0.00    +0.224 C 
ATOM      3  O   UNK A   0       1.043  -3.732  -4.091  0.00  0.00    -0.275 OA
ATOM      4  H   TRP A   1       2.403  -4.501  -1.431  0.00  0.00    +0.150 HD
ENDROOT
BRANCH   1   5
ATOM      5  CA  TRP A   1       0.457  -3.653  -1.462  0.00  0.00    +0.190 C 
BRANCH   5   6
ATOM      6  C   TRP A   1      -0.578  -4.750  -1.471  0.00  0.00    +0.376 C 
ATOM      7  O   TRP A   1      -1.759  -4.472  -1.586  0.00  0.00    -0.244 OA
ATOM      8  OXT TRP A   1      -0.233  -5.914  -1.365  0.00  0.00    -0.244 OA
ENDBRANCH   5   6
BRANCH   5   9
ATOM      9  CB  TRP A   1       0.691  -3.186  -0.024  0.00  0.00    +0.067 C 
BRANCH   9  16
ATOM     10  CZ3 TRP A   1      -0.016   1.348   0.009  0.00  0.00    +0.001 A 
ATOM     11  CH2 TRP A   1       1.166   2.101   0.002  0.00  0.00    +0.002 A 
ATOM     12  CZ2 TRP A   1       2.391   1.535  -0.013  0.00  0.00    +0.026 A 
ATOM     13  CE2 TRP A   1       2.529   0.120  -0.022  0.00  0.00    +0.043 A 
ATOM     14  NE1 TRP A   1       3.587  -0.654  -0.037  0.00  0.00    -0.380 N 
ATOM     15  CD1 TRP A   1       3.143  -2.053  -0.041  0.00  0.00    +0.144 C 
ATOM     16  CG  TRP A   1       1.631  -2.008  -0.025  0.00  0.00    -0.039 C 
ATOM     17  CD2 TRP A   1       1.295  -0.698  -0.014  0.00  0.00    -0.001 A 
ATOM     18  CE3 TRP A   1       0.002  -0.004   0.002  0.00  0.00    +0.010 A 
ATOM     19  HE1 TRP A   1       4.509  -0.353  -0.045  0.00  0.00    +0.160 HD
ENDBRANCH   9  16
ENDBRANCH   5   9
ENDBRANCH   1   5
BRANCH   2  20
ATOM     20  C   UNK A   0       3.198  -4.679  -3.929  0.00  0.00    +0.168 C 
BRANCH  20  21
ATOM     21  S   UNK A   0       3.156  -4.540  -5.737  0.00  0.00    -0.108 S 
BRANCH  21  22
ATOM     22  C   UNK A   0       4.760  -5.201  -6.266  0.00  0.00    +0.241 C 
ATOM     23  N   UNK A   0       4.945  -6.573  -5.762  0.00  0.00    -0.238 N 
ATOM     24  N   UNK A   0       6.072  -6.532  -4.931  0.00  0.00    -0.177 NA
ATOM     25  C   UNK A   0       6.572  -5.353  -4.871  0.00  0.00    +0.210 C 
ATOM     26  N   UNK A   0       5.861  -4.445  -5.646  0.00  0.00    -0.258 N 
ATOM     27  H   UNK A   0       4.398  -7.348  -5.964  0.00  0.00    +0.171 HD
BRANCH  26  28
ATOM     28  C   UNK A   0       6.135  -3.083  -5.808  0.00  0.00    +0.072 A 
ATOM     29  C   UNK A   0       5.573  -2.153  -4.943  0.00  0.00    +0.026 A 
ATOM     30  C   UNK A   0       5.846  -0.808  -5.104  0.00  0.00    +0.002 A 
ATOM     31  C   UNK A   0       6.677  -0.387  -6.126  0.00  0.00    +0.003 A 
ATOM     32  C   UNK A   0       7.239  -1.309  -6.990  0.00  0.00    +0.040 A 
ATOM     33  C   UNK A   0       6.975  -2.657  -6.831  0.00  0.00    +0.145 A 
ATOM     34  F   UNK A   0       7.529  -3.558  -7.672  0.00  0.00    -0.204 F 
ENDBRANCH  26  28
ENDBRANCH  21  22
ENDBRANCH  20  21
ENDBRANCH   2  20
TORSDOF 8
