REMARK  Name = ZINC14472613
REMARK  4 active torsions:
REMARK  status: ('A' for Active; 'I' for Inactive)
REMARK    1  A    between atoms: C_4  and  N_7
REMARK    2  A    between atoms: N_7  and  C_8
REMARK    3  A    between atoms: C_21  and  C_24
REMARK    4  A    between atoms: C_26  and  N_31
REMARK                            x       y       z     vdW  Elec       q    Type
REMARK                         _______ _______ _______ _____ _____    ______ ____
ROOT
ATOM      1  C   UNL     1       0.666   0.386   0.233  0.00  0.00    +0.032 A 
ATOM      2  C   UNL     1       0.471   1.559  -0.485  0.00  0.00    +0.025 A 
ATOM      3  C   UNL     1      -0.773   1.838  -1.013  0.00  0.00    +0.025 A 
ATOM      4  C   UNL     1      -1.825   0.949  -0.825  0.00  0.00    +0.031 A 
ATOM      5  C   UNL     1      -1.638  -0.223  -0.114  0.00  0.00    -0.018 A 
ATOM      6  C   UNL     1      -0.385  -0.498   0.418  0.00  0.00    +0.029 A 
ATOM      7  C   UNL     1      -2.743  -1.214   0.134  0.00  0.00    +0.049 C 
ATOM      8  C   UNL     1      -2.918  -1.341   1.642  0.00  0.00    -0.023 C 
ATOM      9  C   UNL     1      -3.890  -0.567   2.055  0.00  0.00    -0.030 C 
ATOM     10  C   UNL     1      -4.505   0.183   0.887  0.00  0.00    +0.033 C 
ATOM     11  C   UNL     1      -4.115  -0.691  -0.328  0.00  0.00    +0.029 C 
ATOM     12  C   UNL     1      -4.016   0.142  -1.591  0.00  0.00    +0.106 C 
ATOM     13  N   UNL     1      -3.079   1.251  -1.375  0.00  0.00    -0.336 N 
ATOM     14  H   UNL     1      -3.320   2.163  -1.605  0.00  0.00    +0.147 HD
ENDROOT
BRANCH  12  15
ATOM     15  C   UNL     1      -3.520  -0.720  -2.724  0.00  0.00    -0.007 A 
ATOM     16  C   UNL     1      -2.200  -0.643  -3.124  0.00  0.00    +0.039 A 
ATOM     17  C   UNL     1      -1.744  -1.437  -4.160  0.00  0.00    +0.127 A 
ATOM     18  C   UNL     1      -2.611  -2.300  -4.803  0.00  0.00    +0.034 A 
ATOM     19  C   UNL     1      -3.933  -2.374  -4.407  0.00  0.00    +0.022 A 
ATOM     20  C   UNL     1      -4.389  -1.583  -3.367  0.00  0.00    +0.046 A 
ATOM     21 CL   UNL     1      -6.050  -1.674  -2.869  0.00  0.00    -0.083 Cl
BRANCH  17  22
ATOM     22  N   UNL     1      -0.328  -1.359  -4.584  0.00  0.00    +0.056 N 
ATOM     23  O   UNL     1       0.072  -2.055  -5.500  0.00  0.00    -0.126 OA
ATOM     24  O   UNL     1       0.436  -0.598  -4.018  0.00  0.00    -0.126 OA
ENDBRANCH  17  22
ENDBRANCH  12  15
BRANCH   1  25
ATOM     25  N   UNL     1       1.926   0.096   0.770  0.00  0.00    -0.314 N 
ATOM     26  H   UNL     1       2.727   0.429   0.335  0.00  0.00    +0.152 HD
BRANCH  25  30
ATOM     27  C   UNL     1       2.235  -2.194   4.234  0.00  0.00    +0.000 A 
ATOM     28  C   UNL     1       3.244  -2.232   3.289  0.00  0.00    +0.002 A 
ATOM     29  C   UNL     1       3.145  -1.474   2.139  0.00  0.00    +0.023 A 
ATOM     30  C   UNL     1       2.030  -0.672   1.932  0.00  0.00    +0.031 A 
ATOM     31  C   UNL     1       1.020  -0.632   2.886  0.00  0.00    +0.023 A 
ATOM     32  C   UNL     1       1.123  -1.397   4.031  0.00  0.00    +0.002 A 
ENDBRANCH  25  30
ENDBRANCH   1  25
TORSDOF 4
