REMARK  Name = ZINC63517330
REMARK  8 active torsions:
REMARK  status: ('A' for Active; 'I' for Inactive)
REMARK    1  A    between atoms: C_1  and  N_2
REMARK    2  A    between atoms: N_2  and  C_3
REMARK    3  A    between atoms: N_2  and  C_16
REMARK    4  A    between atoms: C_3  and  C_4
REMARK    5  A    between atoms: C_4  and  C_5
REMARK    6  A    between atoms: C_5  and  N_6
REMARK    7  A    between atoms: C_14  and  N_15
REMARK    8  A    between atoms: C_16  and  C_17
REMARK                            x       y       z     vdW  Elec       q    Type
REMARK                         _______ _______ _______ _____ _____    ______ ____
ROOT
ATOM      1  C   UNL     1       0.184   0.005   2.437  0.00  0.00    +0.003 C 
ENDROOT
BRANCH   1   2
ATOM      2  C   UNL     1       0.796  -0.495   1.128  0.00  0.00    -0.077 C 
BRANCH   2   4
ATOM      3  C   UNL     1       0.275   1.548  -0.016  0.00  0.00    -0.096 C 
ATOM      4  N   UNL     1       0.073   0.093  -0.007  0.00  0.00    +0.381 N 
ATOM      5  H   UNL     1      -0.911  -0.110   0.079  0.00  0.00    -0.082 HD
BRANCH   4   6
ATOM      6  C   UNL     1       0.582  -0.479  -1.261  0.00  0.00    -0.042 C 
BRANCH   6   7
ATOM      7  C   UNL     1      -0.251   0.018  -2.415  0.00  0.00    -0.044 A 
ATOM      8  C   UNL     1       0.253   0.986  -3.264  0.00  0.00    +0.003 A 
ATOM      9  C   UNL     1      -0.510   1.443  -4.322  0.00  0.00    +0.002 A 
ATOM     10  C   UNL     1      -1.778   0.933  -4.532  0.00  0.00    +0.021 A 
ATOM     11  C   UNL     1      -2.284  -0.035  -3.683  0.00  0.00    +0.059 A 
ATOM     12  C   UNL     1      -1.516  -0.497  -2.627  0.00  0.00    +0.061 A 
ATOM     13 CL   UNL     1      -2.146  -1.718  -1.565  0.00  0.00    -0.082 Cl
ATOM     14 CL   UNL     1      -3.876  -0.675  -3.946  0.00  0.00    -0.082 Cl
ENDBRANCH   6   7
ENDBRANCH   4   6
ENDBRANCH   2   4
ENDBRANCH   1   2
BRANCH   1  15
ATOM     15  C   UNL     1       0.937  -0.607   3.620  0.00  0.00    +0.123 C 
BRANCH  15  16
ATOM     16  N   UNL     1       0.350  -0.128   4.874  0.00  0.00    -0.315 N 
ATOM     17  C   UNL     1       0.779   0.937   5.610  0.00  0.00    +0.201 A 
ATOM     18  N   UNL     1       0.029   1.080   6.663  0.00  0.00    -0.231 NA
ATOM     19  C   UNL     1      -0.926   0.119   6.671  0.00  0.00    +0.147 A 
ATOM     20  C   UNL     1      -0.735  -0.664   5.520  0.00  0.00    +0.165 A 
ATOM     21  N   UNL     1      -1.556  -1.683   5.288  0.00  0.00    -0.216 NA
ATOM     22  C   UNL     1      -2.538  -1.956   6.121  0.00  0.00    +0.225 A 
ATOM     23  N   UNL     1      -2.759  -1.247   7.213  0.00  0.00    -0.219 NA
ATOM     24  C   UNL     1      -1.985  -0.215   7.532  0.00  0.00    +0.147 A 
BRANCH  24  25
ATOM     25  N   UNL     1      -2.225   0.522   8.678  0.00  0.00    -0.341 N 
ATOM     26  H   UNL     1      -1.660   1.280   8.895  0.00  0.00    +0.144 HD
ATOM     27  H   UNL     1      -2.959   0.281   9.265  0.00  0.00    +0.144 HD
ENDBRANCH  24  25
ENDBRANCH  15  16
ENDBRANCH   1  15
TORSDOF 7
