REMARK  Name = ZINC61595415
REMARK  4 active torsions:
REMARK  status: ('A' for Active; 'I' for Inactive)
REMARK    1  A    between atoms: C_4  and  S_11
REMARK    2  A    between atoms: C_6  and  C_9
REMARK    3  A    between atoms: S_11  and  C_12
REMARK    4  A    between atoms: N_18  and  C_19
REMARK                            x       y       z     vdW  Elec       q    Type
REMARK                         _______ _______ _______ _____ _____    ______ ____
ROOT
ATOM      1  C   UNL     1       4.660   0.008  -2.555  0.00  0.00    +0.193 A 
ATOM      2  N   UNL     1       5.114   0.680  -1.536  0.00  0.00    -0.145 NA
ATOM      3  N   UNL     1       6.476   0.932  -1.754  0.00  0.00    -0.226 N 
ATOM      4  H   UNL     1       7.073   1.413  -1.161  0.00  0.00    +0.194 HD
ATOM      5  C   UNL     1       6.803   0.381  -2.941  0.00  0.00    +0.345 A 
ATOM      6  O   UNL     1       7.904   0.398  -3.464  0.00  0.00    -0.245 OA
ATOM      7  N   UNL     1       5.693  -0.197  -3.442  0.00  0.00    -0.268 N 
ENDROOT
BRANCH   7   8
ATOM      8  C   UNL     1       5.600  -0.917  -4.714  0.00  0.00    +0.094 C 
ATOM      9  C   UNL     1       6.905  -1.208  -5.458  0.00  0.00    +0.027 C 
ATOM     10  C   UNL     1       5.943  -0.144  -5.990  0.00  0.00    +0.027 C 
ENDBRANCH   7   8
BRANCH   1  11
ATOM     11  S   UNL     1       3.003  -0.553  -2.760  0.00  0.00    -0.081 S 
BRANCH  11  15
ATOM     12  C   UNL     1      -0.019   1.526   0.010  0.00  0.00    +0.001 C 
ATOM     13  C   UNL     1       1.417   2.055  -0.000  0.00  0.00    +0.001 C 
ATOM     14  C   UNL     1       2.133   1.562  -1.259  0.00  0.00    +0.016 C 
ATOM     15  C   UNL     1       2.154   0.032  -1.268  0.00  0.00    +0.071 C 
ATOM     16  C   UNL     1       0.718  -0.497  -1.257  0.00  0.00    +0.105 C 
ATOM     17  C   UNL     1       0.002  -0.004   0.002  0.00  0.00    +0.019 C 
BRANCH  16  18
ATOM     18  C   UNL     1       0.006  -0.010  -2.449  0.00  0.00    +0.067 C 
ATOM     19  N   UNL     1      -0.543   0.366  -3.370  0.00  0.00    -0.196 NA
ENDBRANCH  16  18
ENDBRANCH  11  15
ENDBRANCH   1  11
TORSDOF 4
