REMARK  Name = ZINC09254419
REMARK  7 active torsions:
REMARK  status: ('A' for Active; 'I' for Inactive)
REMARK    1  A    between atoms: C_1  and  C_2
REMARK    2  A    between atoms: C_9  and  C_19
REMARK    3  A    between atoms: C_12  and  C_13
REMARK    4  A    between atoms: N_21  and  N_22
REMARK    5  A    between atoms: C_23  and  C_25
REMARK    6  A    between atoms: C_25  and  C_27
REMARK    7  A    between atoms: C_25  and  N_28
REMARK                            x       y       z     vdW  Elec       q    Type
REMARK                         _______ _______ _______ _____ _____    ______ ____
ROOT
ATOM      1  C   UNL     1       2.456   1.285   0.470  0.00  0.00    +0.264 C 
ATOM      2  O   UNL     1       2.411   0.080   0.628  0.00  0.00    -0.269 OA
ATOM      3  N   UNL     1       1.331   2.020   0.573  0.00  0.00    -0.230 N 
ATOM      4  H   UNL     1       1.366   2.981   0.447  0.00  0.00    +0.173 HD
ENDROOT
BRANCH   1  13
ATOM      5  C   UNL     1       8.426  -1.283  -0.239  0.00  0.00    +0.051 C 
ATOM      6  C   UNL     1       7.220  -0.386  -0.143  0.00  0.00    +0.040 A 
ATOM      7  C   UNL     1       7.351   1.009  -0.339  0.00  0.00    +0.196 A 
ATOM      8  O   UNL     1       8.432   1.515  -0.589  0.00  0.00    -0.287 OA
ATOM      9  C   UNL     1       6.126   1.827  -0.230  0.00  0.00    +0.065 A 
ATOM     10  C   UNL     1       6.161   3.209  -0.409  0.00  0.00    +0.015 A 
ATOM     11  C   UNL     1       4.999   3.946  -0.301  0.00  0.00    +0.002 A 
ATOM     12  C   UNL     1       3.797   3.323  -0.020  0.00  0.00    +0.017 A 
ATOM     13  C   UNL     1       3.742   1.942   0.167  0.00  0.00    +0.081 A 
ATOM     14  C   UNL     1       4.915   1.181   0.059  0.00  0.00    +0.151 A 
ATOM     15  O   UNL     1       4.891  -0.154   0.230  0.00  0.00    -0.454 OA
ATOM     16  C   UNL     1       5.996  -0.911   0.134  0.00  0.00    +0.142 A 
BRANCH  16  17
ATOM     17  C   UNL     1       5.877  -2.369   0.336  0.00  0.00    +0.018 A 
ATOM     18  C   UNL     1       4.939  -3.104  -0.392  0.00  0.00    +0.011 A 
ATOM     19  C   UNL     1       4.838  -4.467  -0.202  0.00  0.00    +0.001 A 
ATOM     20  C   UNL     1       5.655  -5.103   0.715  0.00  0.00    +0.000 A 
ATOM     21  C   UNL     1       6.584  -4.380   1.443  0.00  0.00    +0.001 A 
ATOM     22  C   UNL     1       6.699  -3.018   1.260  0.00  0.00    +0.011 A 
ENDBRANCH  16  17
ENDBRANCH   1  13
BRANCH   3  23
ATOM     23  N   UNL     1       0.110   1.396   0.861  0.00  0.00    -0.233 N 
ATOM     24  C   UNL     1      -1.016   2.130   0.958  0.00  0.00    +0.249 C 
ATOM     25  O   UNL     1      -0.971   3.332   0.801  0.00  0.00    -0.272 OA
ATOM     26  H   UNL     1       0.075   0.435   0.986  0.00  0.00    +0.173 HD
BRANCH  24  27
ATOM     27  C   UNL     1      -2.330   1.458   1.261  0.00  0.00    +0.157 C 
ATOM     28  C   UNL     1      -2.647   0.439   0.165  0.00  0.00    +0.038 C 
BRANCH  27  29
ATOM     29  N   UNL     1      -3.393   2.465   1.314  0.00  0.00    -0.312 N 
ATOM     30  C   UNL     1      -4.535   2.225   2.051  0.00  0.00    +0.160 A 
ATOM     31  N   UNL     1      -4.851   1.165   2.759  0.00  0.00    -0.225 NA
ATOM     32  C   UNL     1      -6.013   1.068   3.441  0.00  0.00    +0.080 A 
ATOM     33  C   UNL     1      -6.470  -0.006   4.239  0.00  0.00    +0.029 A 
ATOM     34  C   UNL     1      -7.689   0.054   4.863  0.00  0.00    +0.002 A 
ATOM     35  C   UNL     1      -8.514   1.162   4.735  0.00  0.00    +0.001 A 
ATOM     36  C   UNL     1      -8.099   2.231   3.962  0.00  0.00    +0.017 A 
ATOM     37  C   UNL     1      -6.880   2.179   3.334  0.00  0.00    +0.041 A 
ATOM     38  S   UNL     1      -5.963   3.275   2.278  0.00  0.00    -0.052 S 
ATOM     39  H   UNL     1      -3.294   3.300   0.831  0.00  0.00    +0.149 HD
ENDBRANCH  27  29
ENDBRANCH  24  27
ENDBRANCH   3  23
TORSDOF 5
