REMARK  Name = ZINC20905449
REMARK  8 active torsions:
REMARK  status: ('A' for Active; 'I' for Inactive)
REMARK    1  A    between atoms: C_4  and  N_7
REMARK    2  A    between atoms: N_7  and  C_8
REMARK    3  A    between atoms: C_14  and  C_16
REMARK    4  A    between atoms: C_16  and  C_17
REMARK    5  A    between atoms: C_17  and  S_18
REMARK    6  A    between atoms: S_18  and  C_19
REMARK    7  A    between atoms: N_24  and  N_25
REMARK    8  A    between atoms: C_26  and  C_27
REMARK                            x       y       z     vdW  Elec       q    Type
REMARK                         _______ _______ _______ _____ _____    ______ ____
ROOT
ATOM      1  C   UNL     1       4.798  -1.145  -3.049  0.00  0.00    +0.210 A 
ATOM      2  N   UNL     1       3.581  -0.842  -3.589  0.00  0.00    -0.186 NA
ATOM      3  C   UNL     1       3.565   0.496  -3.873  0.00  0.00    +0.232 A 
ATOM      4  N   UNL     1       4.725   0.998  -3.522  0.00  0.00    -0.245 N 
ATOM      5  N   UNL     1       5.506  -0.041  -3.000  0.00  0.00    -0.144 NA
ATOM      6  N   UNL     1       2.510   1.197  -4.438  0.00  0.00    -0.205 N 
ATOM      7  H   UNL     1       1.579   0.673  -4.699  0.00  0.00    +0.177 HD
ATOM      8  H   UNL     1       4.926   2.070  -3.666  0.00  0.00    +0.192 HD
ENDROOT
BRANCH   6   9
ATOM      9  N   UNL     1       2.631   2.573  -4.675  0.00  0.00    -0.188 NA
ATOM     10  C   UNL     1       1.642   3.230  -5.205  0.00  0.00    +0.139 C 
BRANCH  10  11
ATOM     11  C   UNL     1       1.768   4.674  -5.454  0.00  0.00    +0.002 A 
ATOM     12  C   UNL     1       0.755   5.374  -6.099  0.00  0.00    +0.010 A 
ATOM     13  C   UNL     1       0.875   6.738  -6.327  0.00  0.00    +0.001 A 
ATOM     14  C   UNL     1       1.980   7.436  -5.946  0.00  0.00    +0.008 A 
ATOM     15  C   UNL     1       3.046   6.791  -5.295  0.00  0.00    -0.017 A 
ATOM     16  C   UNL     1       2.965   5.402  -5.034  0.00  0.00    -0.009 A 
ATOM     17  C   UNL     1       4.024   4.756  -4.385  0.00  0.00    +0.009 A 
ATOM     18  C   UNL     1       5.121   5.473  -4.011  0.00  0.00    +0.001 A 
ATOM     19  C   UNL     1       5.204   6.840  -4.265  0.00  0.00    +0.001 A 
ATOM     20  C   UNL     1       4.193   7.499  -4.894  0.00  0.00    +0.008 A 
ENDBRANCH  10  11
ENDBRANCH   6   9
BRANCH   1  21
ATOM     21  S   UNL     1       5.325  -2.738  -2.512  0.00  0.00    -0.084 S 
BRANCH  21  22
ATOM     22  C   UNL     1       6.996  -2.340  -1.939  0.00  0.00    +0.087 C 
BRANCH  22  23
ATOM     23  C   UNL     1       7.670  -3.608  -1.412  0.00  0.00    +0.108 C 
BRANCH  23  25
ATOM     24  N   UNL     1       9.866  -4.254  -0.474  0.00  0.00    -0.240 N 
ATOM     25  C   UNL     1       9.061  -3.276  -0.935  0.00  0.00    +0.225 C 
ATOM     26  O   UNL     1       9.456  -2.130  -0.968  0.00  0.00    -0.275 OA
BRANCH  24  30
ATOM     27  C   UNL     1       8.623  -8.228  -0.636  0.00  0.00    +0.000 A 
ATOM     28  C   UNL     1       9.377  -7.698  -1.667  0.00  0.00    +0.002 A 
ATOM     29  C   UNL     1       9.790  -6.381  -1.616  0.00  0.00    +0.024 A 
ATOM     30  C   UNL     1       9.448  -5.589  -0.528  0.00  0.00    +0.041 A 
ATOM     31  C   UNL     1       8.695  -6.126   0.508  0.00  0.00    +0.024 A 
ATOM     32  C   UNL     1       8.281  -7.442   0.449  0.00  0.00    +0.002 A 
ENDBRANCH  24  30
BRANCH  24  33
ATOM     33  C   UNL     1      11.120  -3.934   0.061  0.00  0.00    +0.041 A 
ATOM     34  C   UNL     1      12.130  -3.464  -0.768  0.00  0.00    +0.024 A 
ATOM     35  C   UNL     1      13.364  -3.145  -0.237  0.00  0.00    +0.002 A 
ATOM     36  C   UNL     1      13.598  -3.303   1.117  0.00  0.00    +0.000 A 
ATOM     37  C   UNL     1      12.596  -3.776   1.944  0.00  0.00    +0.002 A 
ATOM     38  C   UNL     1      11.358  -4.091   1.420  0.00  0.00    +0.024 A 
ENDBRANCH  24  33
ENDBRANCH  23  25
ENDBRANCH  22  23
ENDBRANCH  21  22
ENDBRANCH   1  21
TORSDOF 8
