REMARK  Name = ZINC38591994
REMARK  6 active torsions:
REMARK  status: ('A' for Active; 'I' for Inactive)
REMARK    1  A    between atoms: C_1  and  O_2
REMARK    2  A    between atoms: O_2  and  C_3
REMARK    3  A    between atoms: C_3  and  C_5
REMARK    4  A    between atoms: C_7  and  N_15
REMARK    5  A    between atoms: C_16  and  C_18
REMARK    6  A    between atoms: C_18  and  N_19
REMARK                            x       y       z     vdW  Elec       q    Type
REMARK                         _______ _______ _______ _____ _____    ______ ____
ROOT
ATOM      1  N   UNL     1       0.013  -2.480   2.397  0.00  0.00    -0.285 N 
ATOM      2  C   UNL     1       0.005  -3.129   3.578  0.00  0.00    +0.234 C 
ATOM      3  O   UNL     1      -0.871  -3.931   3.823  0.00  0.00    -0.274 OA
ATOM      4  H   UNL     1       0.758  -1.903   2.166  0.00  0.00    +0.155 HD
ENDROOT
BRANCH   1   6
ATOM      5  C   UNL     1      -2.191  -3.587   1.659  0.00  0.00    +0.234 C 
ATOM      6  C   UNL     1      -1.024  -2.634   1.528  0.00  0.00    +0.053 C 
ATOM      7  C   UNL     1      -1.230  -1.950   0.342  0.00  0.00    +0.018 A 
ATOM      8  C   UNL     1      -0.490  -0.939  -0.318  0.00  0.00    +0.011 A 
ATOM      9  C   UNL     1      -0.938  -0.440  -1.496  0.00  0.00    +0.001 A 
ATOM     10  C   UNL     1      -2.120  -0.898  -2.084  0.00  0.00    +0.002 A 
ATOM     11  C   UNL     1      -2.878  -1.863  -1.509  0.00  0.00    +0.026 A 
ATOM     12  C   UNL     1      -2.476  -2.435  -0.275  0.00  0.00    +0.045 A 
ATOM     13  N   UNL     1      -3.028  -3.370   0.475  0.00  0.00    -0.367 N 
ATOM     14  H   UNL     1      -3.854  -3.838   0.276  0.00  0.00    +0.161 HD
BRANCH   5  15
ATOM     15  C   UNL     1      -1.697  -5.011   1.691  0.00  0.00    +0.335 C 
ATOM     16  O   UNL     1      -1.317  -5.541   0.674  0.00  0.00    -0.248 OA
BRANCH  15  18
ATOM     17  C   UNL     1      -1.199  -7.035   2.805  0.00  0.00    +0.280 C 
ATOM     18  O   UNL     1      -1.679  -5.689   2.849  0.00  0.00    -0.466 OA
ENDBRANCH  15  18
ENDBRANCH   5  15
ENDBRANCH   1   6
BRANCH   2  19
ATOM     19  C   UNL     1       1.085  -2.859   4.594  0.00  0.00    +0.201 C 
BRANCH  19  20
ATOM     20  N   UNL     1       0.854  -3.682   5.784  0.00  0.00    -0.321 N 
ATOM     21  C   UNL     1       0.026  -3.181   6.890  0.00  0.00    +0.106 C 
ATOM     22  C   UNL     1       0.752  -3.506   8.202  0.00  0.00    +0.024 C 
ATOM     23  C   UNL     1       0.858  -5.024   8.345  0.00  0.00    +0.038 C 
ATOM     24  C   UNL     1       1.440  -5.632   7.097  0.00  0.00    -0.026 A 
ATOM     25  C   UNL     1       1.413  -4.961   5.882  0.00  0.00    +0.033 A 
ATOM     26  C   UNL     1       1.949  -5.555   4.745  0.00  0.00    +0.023 A 
ATOM     27  C   UNL     1       2.508  -6.815   4.822  0.00  0.00    +0.002 A 
ATOM     28  C   UNL     1       2.534  -7.486   6.031  0.00  0.00    +0.000 A 
ATOM     29  C   UNL     1       2.009  -6.893   7.168  0.00  0.00    +0.005 A 
ENDBRANCH  19  20
ENDBRANCH   2  19
TORSDOF 5
