REMARK  Name = ZINC09327798
REMARK  8 active torsions:
REMARK  status: ('A' for Active; 'I' for Inactive)
REMARK    1  A    between atoms: C_1  and  O_2
REMARK    2  A    between atoms: O_2  and  C_3
REMARK    3  A    between atoms: C_6  and  C_9
REMARK    4  A    between atoms: C_9  and  C_10
REMARK    5  A    between atoms: C_19  and  C_29
REMARK    6  A    between atoms: C_24  and  O_28
REMARK    7  A    between atoms: C_32  and  O_35
REMARK    8  A    between atoms: O_35  and  C_36
REMARK                            x       y       z     vdW  Elec       q    Type
REMARK                         _______ _______ _______ _____ _____    ______ ____
ROOT
ATOM      1  C   UNL     1       0.022  -0.514   1.420  0.00  0.00    +0.156 A 
ATOM      2  N   UNL     1       1.109  -0.761   2.120  0.00  0.00    -0.148 NA
ATOM      3  N   UNL     1       0.696  -1.210   3.366  0.00  0.00    -0.201 N 
ATOM      4  C   UNL     1       1.369  -1.606   4.475  0.00  0.00    +0.229 A 
ATOM      5  N   UNL     1       0.678  -1.992   5.519  0.00  0.00    -0.201 NA
ATOM      6  C   UNL     1      -0.664  -2.018   5.556  0.00  0.00    +0.230 A 
ATOM      7  C   UNL     1      -1.402  -1.627   4.471  0.00  0.00    +0.070 A 
ATOM      8  C   UNL     1      -0.687  -1.212   3.336  0.00  0.00    +0.167 A 
ATOM      9  N   UNL     1      -1.056  -0.788   2.151  0.00  0.00    -0.211 NA
ATOM     10  C   UNL     1      -2.900  -1.637   4.487  0.00  0.00    +0.091 C 
ATOM     11  C   UNL     1      -3.407  -1.700   5.903  0.00  0.00    +0.007 A 
ATOM     12  C   UNL     1      -4.720  -1.356   6.174  0.00  0.00    +0.012 A 
ATOM     13  C   UNL     1      -5.200  -1.410   7.468  0.00  0.00    +0.046 A 
ATOM     14  C   UNL     1      -4.364  -1.811   8.501  0.00  0.00    +0.120 A 
ATOM     15  C   UNL     1      -3.050  -2.155   8.233  0.00  0.00    +0.092 A 
ATOM     16  C   UNL     1      -2.567  -2.099   6.931  0.00  0.00    +0.138 A 
ATOM     17  O   UNL     1      -1.279  -2.439   6.686  0.00  0.00    -0.437 OA
ENDROOT
BRANCH  10  18
ATOM     18  C   UNL     1      -3.399  -2.839   3.728  0.00  0.00    -0.035 A 
ATOM     19  C   UNL     1      -3.045  -4.111   4.139  0.00  0.00    +0.008 A 
ATOM     20  C   UNL     1      -3.506  -5.214   3.447  0.00  0.00    +0.046 A 
ATOM     21  C   UNL     1      -4.315  -5.045   2.333  0.00  0.00    +0.120 A 
ATOM     22  C   UNL     1      -4.664  -3.768   1.920  0.00  0.00    +0.046 A 
ATOM     23  C   UNL     1      -4.205  -2.668   2.618  0.00  0.00    +0.008 A 
BRANCH  21  24
ATOM     24  O   UNL     1      -4.764  -6.130   1.648  0.00  0.00    -0.495 OA
ATOM     25  C   UNL     1      -4.365  -7.414   2.131  0.00  0.00    +0.277 C 
ENDBRANCH  21  24
ENDBRANCH  10  18
BRANCH  14  26
ATOM     26  O   UNL     1      -4.835  -1.865   9.774  0.00  0.00    -0.507 OA
ATOM     27  H   UNL     1      -5.217  -2.720  10.016  0.00  0.00    +0.292 HD
ENDBRANCH  14  26
BRANCH   1  28
ATOM     28  C   UNL     1       0.002  -0.004   0.002  0.00  0.00    +0.113 C 
BRANCH  28  32
ATOM     29  C   UNL     1      -0.056   4.269   0.025  0.00  0.00    +0.120 A 
ATOM     30  C   UNL     1       1.154   3.591   0.010  0.00  0.00    +0.046 A 
ATOM     31  C   UNL     1       1.170   2.209   0.003  0.00  0.00    +0.007 A 
ATOM     32  C   UNL     1      -0.018   1.503   0.010  0.00  0.00    -0.040 A 
ATOM     33  C   UNL     1      -1.226   2.177   0.020  0.00  0.00    +0.007 A 
ATOM     34  C   UNL     1      -1.247   3.558   0.033  0.00  0.00    +0.046 A 
BRANCH  29  36
ATOM     35  C   UNL     1      -1.356   6.259   0.047  0.00  0.00    +0.277 C 
ATOM     36  O   UNL     1      -0.074   5.628   0.032  0.00  0.00    -0.495 OA
ENDBRANCH  29  36
ENDBRANCH  28  32
ENDBRANCH   1  28
TORSDOF 6
