REMARK  Name = ZINC39606771
REMARK  7 active torsions:
REMARK  status: ('A' for Active; 'I' for Inactive)
REMARK    1  A    between atoms: C_1  and  C_2
REMARK    2  A    between atoms: C_2  and  C_3
REMARK    3  A    between atoms: C_3  and  C_5
REMARK    4  A    between atoms: C_3  and  C_6
REMARK    5  A    between atoms: C_6  and  N_7
REMARK    6  A    between atoms: C_8  and  C_10
REMARK    7  A    between atoms: C_21  and  C_23
REMARK                            x       y       z     vdW  Elec       q    Type
REMARK                         _______ _______ _______ _____ _____    ______ ____
ROOT
ATOM      1  C   UNL     1      -4.424  -4.392   0.513  0.00  0.00    +0.100 C 
ATOM      2  C   UNL     1      -5.026  -3.961   1.870  0.00  0.00    +0.121 C 
ATOM      3  N   UNL     1      -5.845  -5.119   2.300  0.00  0.00    -0.300 N 
ATOM      4  C   UNL     1      -5.041  -6.303   1.914  0.00  0.00    +0.115 C 
ATOM      5  C   UNL     1      -4.435  -5.929   0.546  0.00  0.00    -0.004 C 
ATOM      6  C   UNL     1      -3.013  -6.470   0.435  0.00  0.00    -0.010 C 
ATOM      7  C   UNL     1      -3.054  -8.001   0.411  0.00  0.00    -0.082 C 
ATOM      8  N   UNL     1      -3.862  -8.453  -0.728  0.00  0.00    +0.379 N 
ATOM      9  C   UNL     1      -5.251  -8.007  -0.565  0.00  0.00    -0.082 C 
ATOM     10  C   UNL     1      -5.303  -6.476  -0.583  0.00  0.00    -0.010 C 
ATOM     11  C   UNL     1      -7.049  -5.100   2.906  0.00  0.00    +0.219 C 
ATOM     12  O   UNL     1      -7.597  -6.141   3.199  0.00  0.00    -0.275 OA
ATOM     13  H   UNL     1      -3.484  -8.068  -1.581  0.00  0.00    -0.086 HD
ATOM     14  H   UNL     1      -3.837  -9.461  -0.777  0.00  0.00    -0.086 HD
ENDROOT
BRANCH  11  15
ATOM     15  C   UNL     1      -7.714  -3.784   3.219  0.00  0.00    +0.079 C 
ATOM     16  C   UNL     1      -6.822  -2.971   4.163  0.00  0.00    +0.041 C 
ATOM     17  C   UNL     1      -7.540  -1.672   4.538  0.00  0.00    +0.160 C 
ATOM     18  O   UNL     1      -8.799  -1.981   5.139  0.00  0.00    -0.380 OA
ATOM     19  C   UNL     1      -9.692  -2.700   4.286  0.00  0.00    +0.160 C 
ATOM     20  C   UNL     1      -9.061  -4.040   3.901  0.00  0.00    +0.041 C 
ENDBRANCH  11  15
BRANCH   1  22
ATOM     21  N   UNL     1      -2.505  -3.617  -0.841  0.00  0.00    -0.315 N 
ATOM     22  C   UNL     1      -3.013  -3.880   0.379  0.00  0.00    +0.218 C 
ATOM     23  O   UNL     1      -2.335  -3.705   1.369  0.00  0.00    -0.275 OA
ATOM     24  H   UNL     1      -3.048  -3.757  -1.633  0.00  0.00    +0.149 HD
BRANCH  21  25
ATOM     25  C   UNL     1      -1.133  -3.119  -0.972  0.00  0.00    +0.107 C 
BRANCH  25  26
ATOM     26  C   UNL     1      -0.808  -2.903  -2.451  0.00  0.00    +0.003 C 
ATOM     27  C   UNL     1      -0.821  -4.250  -3.178  0.00  0.00    +0.009 C 
BRANCH  26  29
ATOM     28  C   UNL     1       0.852  -1.937  -4.049  0.00  0.00    +0.004 C 
ATOM     29  C   UNL     1       0.578  -2.267  -2.581  0.00  0.00    +0.001 C 
ENDBRANCH  26  29
ENDBRANCH  25  26
ENDBRANCH  21  25
ENDBRANCH   1  22
TORSDOF 5
