REMARK  Name = ZINC03573208
REMARK  8 active torsions:
REMARK  status: ('A' for Active; 'I' for Inactive)
REMARK    1  A    between atoms: C_3  and  O_26
REMARK    2  A    between atoms: C_6  and  C_7
REMARK    3  A    between atoms: C_10  and  S_13
REMARK    4  A    between atoms: N_11  and  N_12
REMARK    5  A    between atoms: S_13  and  C_14
REMARK    6  A    between atoms: C_14  and  C_15
REMARK    7  A    between atoms: N_17  and  C_18
REMARK    8  A    between atoms: O_26  and  C_27
REMARK                            x       y       z     vdW  Elec       q    Type
REMARK                         _______ _______ _______ _____ _____    ______ ____
ROOT
ATOM      1  C   UNL     1       3.662   3.137  -0.074  0.00  0.00    +0.182 A 
ATOM      2  N   UNL     1       3.760   1.836   0.072  0.00  0.00    -0.127 NA
ATOM      3  N   UNL     1       2.593   1.300   0.027  0.00  0.00    -0.121 NA
ATOM      4  C   UNL     1       1.678   2.225  -0.159  0.00  0.00    +0.209 A 
ATOM      5  N   UNL     1       2.326   3.427  -0.227  0.00  0.00    -0.224 N 
ENDROOT
BRANCH   1  11
ATOM      6  C   UNL     1       6.088   3.667  -0.262  0.00  0.00    +0.015 A 
ATOM      7  C   UNL     1       7.125   4.576  -0.266  0.00  0.00    +0.046 A 
ATOM      8  C   UNL     1       6.867   5.927  -0.073  0.00  0.00    +0.127 A 
ATOM      9  C   UNL     1       5.564   6.368   0.119  0.00  0.00    +0.046 A 
ATOM     10  C   UNL     1       4.522   5.466   0.119  0.00  0.00    +0.015 A 
ATOM     11  C   UNL     1       4.777   4.107  -0.074  0.00  0.00    +0.021 A 
BRANCH   8  12
ATOM     12  O   UNL     1       7.892   6.819  -0.073  0.00  0.00    -0.434 OA
BRANCH  12  13
ATOM     13  C   UNL     1       9.206   6.296  -0.276  0.00  0.00    +0.541 C 
ATOM     14  F   UNL     1       9.506   5.379   0.736  0.00  0.00    -0.166 F 
ATOM     15  F   UNL     1       9.267   5.656  -1.519  0.00  0.00    -0.166 F 
ENDBRANCH  12  13
ENDBRANCH   8  12
ENDBRANCH   1  11
BRANCH   5  16
ATOM     16  N   UNL     1       1.763   4.658  -0.408  0.00  0.00    -0.295 N 
ATOM     17  H   UNL     1       0.673   4.754  -0.517  0.00  0.00    +0.163 HD
ATOM     18  H   UNL     1       2.401   5.554  -0.444  0.00  0.00    +0.163 HD
ENDBRANCH   5  16
BRANCH   4  19
ATOM     19  S   UNL     1      -0.060   1.966  -0.290  0.00  0.00    -0.075 S 
BRANCH  19  20
ATOM     20  C   UNL     1      -0.123   0.166  -0.107  0.00  0.00    +0.173 C 
BRANCH  20  21
ATOM     21  C   UNL     1      -1.555  -0.297  -0.188  0.00  0.00    +0.228 C 
ATOM     22  O   UNL     1      -2.445   0.511  -0.354  0.00  0.00    -0.275 OA
ATOM     23  N   UNL     1      -1.847  -1.608  -0.077  0.00  0.00    -0.284 N 
ATOM     24  H   UNL     1      -1.036  -2.348  -0.010  0.00  0.00    +0.155 HD
BRANCH  23  25
ATOM     25  C   UNL     1      -3.183  -2.028  -0.048  0.00  0.00    +0.052 A 
ATOM     26  C   UNL     1      -4.143  -1.344  -0.781  0.00  0.00    +0.027 A 
ATOM     27  C   UNL     1      -5.460  -1.760  -0.751  0.00  0.00    +0.040 A 
ATOM     28  C   UNL     1      -5.823  -2.858   0.010  0.00  0.00    +0.125 A 
ATOM     29  C   UNL     1      -4.868  -3.543   0.742  0.00  0.00    +0.060 A 
ATOM     30  C   UNL     1      -3.548  -3.134   0.710  0.00  0.00    +0.065 A 
ATOM     31 CL   UNL     1      -2.349  -3.996   1.623  0.00  0.00    -0.082 Cl
ATOM     32  F   UNL     1      -7.112  -3.263   0.039  0.00  0.00    -0.205 F 
ENDBRANCH  23  25
ENDBRANCH  20  21
ENDBRANCH  19  20
ENDBRANCH   4  19
TORSDOF 8
