REMARK  Name = ZINC16481610
REMARK  10 active torsions:
REMARK  status: ('A' for Active; 'I' for Inactive)
REMARK    1  A    between atoms: C_1  and  C_2
REMARK    2  A    between atoms: C_2  and  O_3
REMARK    3  A    between atoms: O_3  and  C_4
REMARK    4  A    between atoms: C_4  and  C_6
REMARK    5  A    between atoms: C_10  and  N_11
REMARK    6  A    between atoms: C_12  and  C_14
REMARK    7  A    between atoms: C_14  and  C_16
REMARK    8  A    between atoms: C_14  and  N_63
REMARK    9  A    between atoms: N_19  and  C_22
REMARK   10  A    between atoms: C_27  and  O_28
REMARK                            x       y       z     vdW  Elec       q    Type
REMARK                         _______ _______ _______ _____ _____    ______ ____
ROOT
ATOM      1  N   UNL     1      -2.084  -5.898  -1.424  0.00  0.00    -0.281 N 
ATOM      2  C   UNL     1      -1.885  -4.576  -1.260  0.00  0.00    +0.204 C 
ATOM      3  O   UNL     1      -2.302  -3.792  -2.086  0.00  0.00    -0.277 OA
ATOM      4  H   UNL     1      -1.750  -6.525  -0.763  0.00  0.00    +0.155 HD
ENDROOT
BRANCH   1   9
ATOM      5  C   UNL     1      -3.061  -7.676  -2.883  0.00  0.00    +0.091 A 
ATOM      6  C   UNL     1      -3.799  -7.896  -4.115  0.00  0.00    -0.021 A 
ATOM      7  C   UNL     1      -4.110  -6.778  -4.806  0.00  0.00    -0.004 A 
ATOM      8  S   UNL     1      -3.447  -5.450  -3.842  0.00  0.00    -0.077 S 
ATOM      9  C   UNL     1      -2.765  -6.364  -2.538  0.00  0.00    +0.086 A 
ATOM     10  C   UNL     1      -4.853  -6.696  -6.104  0.00  0.00    +0.043 C 
ATOM     11  C   UNL     1      -4.888  -8.098  -6.731  0.00  0.00    +0.005 C 
ATOM     12  C   UNL     1      -5.318  -9.106  -5.662  0.00  0.00    +0.005 C 
ATOM     13  C   UNL     1      -4.204  -9.273  -4.627  0.00  0.00    +0.037 C 
BRANCH   5  14
ATOM     14  C   UNL     1      -2.648  -8.796  -2.034  0.00  0.00    +0.342 C 
ATOM     15  O   UNL     1      -3.386  -9.195  -1.153  0.00  0.00    -0.245 OA
BRANCH  14  16
ATOM     16  O   UNL     1      -1.451  -9.384  -2.229  0.00  0.00    -0.461 OA
BRANCH  16  18
ATOM     17  C   UNL     1       0.277 -11.024  -1.721  0.00  0.00    +0.048 C 
ATOM     18  C   UNL     1      -1.108 -10.489  -1.351  0.00  0.00    +0.229 C 
ENDBRANCH  16  18
ENDBRANCH  14  16
ENDBRANCH   5  14
ENDBRANCH   1   9
BRANCH   2  19
ATOM     19  C   UNL     1      -1.144  -4.070  -0.049  0.00  0.00    +0.017 C 
ATOM     20  C   UNL     1       0.359  -4.064  -0.336  0.00  0.00    -0.004 C 
BRANCH  19  26
ATOM     21  C   UNL     1      -3.012  -2.684   0.624  0.00  0.00    -0.059 C 
ATOM     22  C   UNL     1      -3.454  -1.238   0.862  0.00  0.00    +0.086 C 
ATOM     23  N   UNL     1      -2.634  -0.647   1.929  0.00  0.00    -0.331 N 
ATOM     24  C   UNL     1      -1.210  -0.668   1.567  0.00  0.00    +0.086 C 
ATOM     25  C   UNL     1      -0.768  -2.114   1.329  0.00  0.00    -0.059 C 
ATOM     26  N   UNL     1      -1.585  -2.688   0.240  0.00  0.00    +0.389 N 
ATOM     27  H   UNL     1      -1.465  -2.117  -0.605  0.00  0.00    -0.081 HD
BRANCH  23  28
ATOM     28  C   UNL     1      -3.058   0.653   2.225  0.00  0.00    +0.072 A 
ATOM     29  C   UNL     1      -3.034   1.633   1.243  0.00  0.00    +0.027 A 
ATOM     30  C   UNL     1      -3.457   2.916   1.537  0.00  0.00    +0.002 A 
ATOM     31  C   UNL     1      -3.894   3.228   2.811  0.00  0.00    +0.004 A 
ATOM     32  C   UNL     1      -3.915   2.258   3.796  0.00  0.00    +0.047 A 
ATOM     33  C   UNL     1      -3.498   0.969   3.509  0.00  0.00    +0.138 A 
BRANCH  33  34
ATOM     34  O   UNL     1      -3.518   0.015   4.477  0.00  0.00    -0.505 OA
ATOM     35  H   UNL     1      -2.698  -0.045   4.987  0.00  0.00    +0.292 HD
ENDBRANCH  33  34
ENDBRANCH  23  28
ENDBRANCH  19  26
ENDBRANCH   2  19
TORSDOF 8
