REMARK  Name = ZINC46695192
REMARK  8 active torsions:
REMARK  status: ('A' for Active; 'I' for Inactive)
REMARK    1  A    between atoms: C_1  and  C_2
REMARK    2  A    between atoms: C_2  and  C_3
REMARK    3  A    between atoms: N_12  and  C_13
REMARK    4  A    between atoms: C_13  and  C_15
REMARK    5  A    between atoms: C_13  and  C_16
REMARK    6  A    between atoms: C_19  and  N_22
REMARK    7  A    between atoms: C_23  and  C_25
REMARK    8  A    between atoms: C_25  and  C_26
REMARK                            x       y       z     vdW  Elec       q    Type
REMARK                         _______ _______ _______ _____ _____    ______ ____
ROOT
ATOM      1  C   UNL     1      -2.985   1.678   3.436  0.00  0.00    +0.102 C 
ATOM      2  C   UNL     1      -2.435   3.102   3.544  0.00  0.00    +0.033 C 
ENDROOT
BRANCH   1  11
ATOM      3  C   UNL     1       0.701  -0.649   1.248  0.00  0.00    +0.077 C 
ATOM      4  C   UNL     1       0.831  -2.162   1.047  0.00  0.00    +0.022 C 
ATOM      5  C   UNL     1       1.371  -2.799   2.329  0.00  0.00    +0.003 C 
ATOM      6  C   UNL     1       0.393  -2.546   3.478  0.00  0.00    +0.019 C 
ATOM      7  C   UNL     1       0.259  -1.038   3.707  0.00  0.00    +0.109 C 
ATOM      8  N   UNL     1      -0.119  -0.396   2.440  0.00  0.00    -0.283 N 
ATOM      9  C   UNL     1      -1.200   0.406   2.372  0.00  0.00    +0.303 C 
ATOM     10  O   UNL     1      -1.564   0.846   1.298  0.00  0.00    -0.253 OA
ATOM     11  N   UNL     1      -1.878   0.721   3.493  0.00  0.00    -0.293 N 
ATOM     12  H   UNL     1      -1.632   0.314   4.339  0.00  0.00    +0.151 HD
BRANCH   3  14
ATOM     13  C   UNL     1       0.889  -0.289  -1.217  0.00  0.00    +0.006 C 
ATOM     14  C   UNL     1       0.032  -0.024   0.022  0.00  0.00    +0.019 C 
ENDBRANCH   3  14
ENDBRANCH   1  11
BRANCH   1  15
ATOM     15  C   UNL     1      -3.934   1.418   4.578  0.00  0.00    -0.027 A 
ATOM     16  C   UNL     1      -3.438   1.101   5.829  0.00  0.00    +0.007 A 
ATOM     17  C   UNL     1      -4.304   0.862   6.877  0.00  0.00    +0.023 A 
ATOM     18  C   UNL     1      -5.676   0.941   6.674  0.00  0.00    +0.033 A 
ATOM     19  C   UNL     1      -6.171   1.261   5.417  0.00  0.00    +0.023 A 
ATOM     20  C   UNL     1      -5.299   1.504   4.373  0.00  0.00    +0.007 A 
BRANCH  18  21
ATOM     21  N   UNL     1      -6.557   0.700   7.734  0.00  0.00    -0.286 N 
ATOM     22  C   UNL     1      -6.222   1.070   8.986  0.00  0.00    +0.217 C 
ATOM     23  O   UNL     1      -5.204   1.698   9.181  0.00  0.00    -0.275 OA
ATOM     24  H   UNL     1      -7.408   0.265   7.567  0.00  0.00    +0.155 HD
BRANCH  22  25
ATOM     25  C   UNL     1      -7.115   0.704  10.143  0.00  0.00    +0.093 C 
ATOM     26  C   UNL     1      -6.511   1.241  11.443  0.00  0.00    +0.013 C 
ENDBRANCH  22  25
ENDBRANCH  18  21
ENDBRANCH   1  15
TORSDOF 5
