REMARK  Name = ZINC39914395
REMARK  15 active torsions:
REMARK  status: ('A' for Active; 'I' for Inactive)
REMARK    1  A    between atoms: C_1  and  C_2
REMARK    2  A    between atoms: C_2  and  C_3
REMARK    3  A    between atoms: C_3  and  C_4
REMARK    4  A    between atoms: C_4  and  N_5
REMARK    5  A    between atoms: C_6  and  C_25
REMARK    6  A    between atoms: C_9  and  C_16
REMARK    7  A    between atoms: C_19  and  C_23
REMARK    8  A    between atoms: C_21  and  O_22
REMARK    9  A    between atoms: C_28  and  O_33
REMARK   10  A    between atoms: C_29  and  O_31
REMARK   11  A    between atoms: O_31  and  C_32
REMARK   12  A    between atoms: O_33  and  C_34
REMARK   13  A    between atoms: C_34  and  C_35
REMARK   14  A    between atoms: C_35  and  C_36
REMARK   15  A    between atoms: C_35  and  C_37
REMARK                            x       y       z     vdW  Elec       q    Type
REMARK                         _______ _______ _______ _____ _____    ______ ____
ROOT
ATOM      1  N   UNL     1      -3.429  -1.704   0.043  0.00  0.00    -0.285 N 
ATOM      2  C   UNL     1      -3.929  -2.305   1.286  0.00  0.00    +0.141 C 
ATOM      3  C   UNL     1      -5.100  -3.163   0.891  0.00  0.00    +0.035 A 
ATOM      4  C   UNL     1      -6.117  -4.033   1.302  0.00  0.00    +0.102 A 
ATOM      5  N   UNL     1      -6.792  -4.386   0.225  0.00  0.00    -0.173 NA
ATOM      6  N   UNL     1      -6.302  -3.826  -0.823  0.00  0.00    -0.272 N 
ATOM      7  H   UNL     1      -6.640  -3.941  -1.725  0.00  0.00    +0.189 HD
ATOM      8  C   UNL     1      -5.237  -3.043  -0.478  0.00  0.00    +0.126 A 
ATOM      9  C   UNL     1      -4.198  -2.134  -0.973  0.00  0.00    +0.265 C 
ATOM     10  O   UNL     1      -4.050  -1.816  -2.138  0.00  0.00    -0.268 OA
ENDROOT
BRANCH   4  11
ATOM     11  C   UNL     1      -6.385  -4.476   2.692  0.00  0.00    +0.045 A 
ATOM     12  C   UNL     1      -5.517  -4.118   3.720  0.00  0.00    +0.034 A 
ATOM     13  C   UNL     1      -5.772  -4.533   5.013  0.00  0.00    +0.045 A 
ATOM     14  C   UNL     1      -6.888  -5.305   5.290  0.00  0.00    -0.029 A 
ATOM     15  C   UNL     1      -7.754  -5.666   4.276  0.00  0.00    +0.050 A 
ATOM     16  C   UNL     1      -7.513  -5.251   2.976  0.00  0.00    +0.126 A 
ATOM     17  C   UNL     1      -7.157  -5.755   6.703  0.00  0.00    +0.045 C 
ATOM     18 CL   UNL     1      -4.690  -4.086   6.294  0.00  0.00    -0.083 Cl
BRANCH  16  19
ATOM     19  O   UNL     1      -8.368  -5.601   1.979  0.00  0.00    -0.506 OA
ATOM     20  H   UNL     1      -8.147  -6.437   1.547  0.00  0.00    +0.292 HD
ENDBRANCH  16  19
ENDBRANCH   4  11
BRANCH   2  21
ATOM     21  C   UNL     1      -4.373  -1.228   2.242  0.00  0.00    -0.019 A 
ATOM     22  C   UNL     1      -3.971  -1.271   3.564  0.00  0.00    +0.009 A 
ATOM     23  C   UNL     1      -4.375  -0.285   4.445  0.00  0.00    +0.050 A 
ATOM     24  C   UNL     1      -5.184   0.750   4.003  0.00  0.00    +0.162 A 
ATOM     25  C   UNL     1      -5.588   0.793   2.672  0.00  0.00    +0.162 A 
ATOM     26  C   UNL     1      -5.176  -0.196   1.794  0.00  0.00    +0.055 A 
BRANCH  25  27
ATOM     27  O   UNL     1      -6.382   1.806   2.234  0.00  0.00    -0.491 OA
ATOM     28  C   UNL     1      -6.855   1.724   0.888  0.00  0.00    +0.277 C 
ENDBRANCH  25  27
BRANCH  24  29
ATOM     29  O   UNL     1      -5.583   1.720   4.869  0.00  0.00    -0.488 OA
BRANCH  29  30
ATOM     30  C   UNL     1      -5.130   1.610   6.220  0.00  0.00    +0.232 C 
BRANCH  30  31
ATOM     31  C   UNL     1      -5.676   2.783   7.037  0.00  0.00    +0.020 C 
ATOM     32  C   UNL     1      -5.296   2.600   8.508  0.00  0.00    +0.010 C 
ATOM     33  C   UNL     1      -5.078   4.091   6.515  0.00  0.00    +0.010 C 
ENDBRANCH  30  31
ENDBRANCH  29  30
ENDBRANCH  24  29
ENDBRANCH   2  21
BRANCH   1  34
ATOM     34  C   UNL     1      -2.291  -0.788  -0.069  0.00  0.00    +0.109 C 
BRANCH  34  35
ATOM     35  C   UNL     1      -2.780   0.654   0.086  0.00  0.00    +0.019 C 
BRANCH  35  37
ATOM     36  C   UNL     1      -2.080   3.052   0.123  0.00  0.00    +0.004 C 
ATOM     37  C   UNL     1      -1.591   1.611  -0.032  0.00  0.00    -0.002 C 
ENDBRANCH  35  37
ENDBRANCH  34  35
ENDBRANCH   1  34
TORSDOF 10
