REMARK  Name = ZINC09344636
REMARK  10 active torsions:
REMARK  status: ('A' for Active; 'I' for Inactive)
REMARK    1  A    between atoms: C_1  and  C_2
REMARK    2  A    between atoms: C_2  and  C_3
REMARK    3  A    between atoms: N_9  and  S_10
REMARK    4  A    between atoms: S_10  and  C_13
REMARK    5  A    between atoms: C_16  and  C_19
REMARK    6  A    between atoms: N_21  and  C_22
REMARK    7  A    between atoms: C_22  and  C_23
REMARK    8  A    between atoms: C_23  and  N_66
REMARK    9  A    between atoms: C_24  and  N_66
REMARK   10  A    between atoms: C_25  and  N_66
REMARK                            x       y       z     vdW  Elec       q    Type
REMARK                         _______ _______ _______ _____ _____    ______ ____
ROOT
ATOM      1  C   UNL     1      -8.194  -0.185   0.437  0.00  0.00    +0.252 C 
ATOM      2  O   UNL     1      -9.158   0.336  -0.089  0.00  0.00    -0.270 OA
ATOM      3  N   UNL     1      -8.281  -0.640   1.702  0.00  0.00    -0.248 N 
ATOM      4  C   UNL     1      -9.443  -0.447   2.429  0.00  0.00    +0.168 A 
ATOM      5  N   UNL     1      -9.717  -0.819   3.658  0.00  0.00    -0.224 NA
ATOM      6  C   UNL     1     -10.903  -0.557   4.249  0.00  0.00    +0.080 A 
ATOM      7  C   UNL     1     -11.320  -0.894   5.557  0.00  0.00    +0.029 A 
ATOM      8  C   UNL     1     -12.572  -0.556   6.002  0.00  0.00    +0.002 A 
ATOM      9  C   UNL     1     -13.470   0.124   5.192  0.00  0.00    +0.001 A 
ATOM     10  C   UNL     1     -13.095   0.470   3.907  0.00  0.00    +0.017 A 
ATOM     11  C   UNL     1     -11.843   0.136   3.453  0.00  0.00    +0.041 A 
ATOM     12  S   UNL     1     -10.956   0.364   1.931  0.00  0.00    -0.052 S 
ENDROOT
BRANCH   1  16
ATOM     13  C   UNL     1      -4.551  -0.569  -1.713  0.00  0.00    +0.106 A 
ATOM     14  C   UNL     1      -4.527  -0.425  -0.337  0.00  0.00    +0.029 A 
ATOM     15  C   UNL     1      -5.706  -0.294   0.367  0.00  0.00    +0.015 A 
ATOM     16  C   UNL     1      -6.926  -0.318  -0.311  0.00  0.00    +0.037 A 
ATOM     17  C   UNL     1      -6.944  -0.469  -1.699  0.00  0.00    +0.015 A 
ATOM     18  C   UNL     1      -5.757  -0.593  -2.391  0.00  0.00    +0.029 A 
BRANCH  13  19
ATOM     19  S   UNL     1      -3.040  -0.728  -2.605  0.00  0.00    +0.061 S 
ATOM     20  O   UNL     1      -3.379  -1.220  -3.894  0.00  0.00    -0.153 OA
ATOM     21  O   UNL     1      -2.131  -1.404  -1.746  0.00  0.00    -0.153 OA
BRANCH  19  27
ATOM     22  C   UNL     1      -2.954   1.661  -3.896  0.00  0.00    +0.080 C 
ATOM     23  C   UNL     1      -3.392   2.996  -3.287  0.00  0.00    +0.021 C 
ATOM     24  C   UNL     1      -2.227   3.601  -2.501  0.00  0.00    +0.003 C 
ATOM     25  C   UNL     1      -1.829   2.658  -1.363  0.00  0.00    +0.017 C 
ATOM     26  C   UNL     1      -1.377   1.318  -1.950  0.00  0.00    +0.110 C 
ATOM     27  N   UNL     1      -2.438   0.799  -2.824  0.00  0.00    -0.174 NA
BRANCH  22  29
ATOM     28  C   UNL     1      -4.836   1.974  -5.509  0.00  0.00    +0.005 C 
ATOM     29  C   UNL     1      -4.150   0.983  -4.568  0.00  0.00    +0.017 C 
ENDBRANCH  22  29
ENDBRANCH  19  27
ENDBRANCH  13  19
ENDBRANCH   1  16
BRANCH   3  30
ATOM     30  C   UNL     1      -7.145  -1.339   2.309  0.00  0.00    +0.097 C 
BRANCH  30  31
ATOM     31  C   UNL     1      -6.538  -0.467   3.410  0.00  0.00    -0.060 C 
BRANCH  31  34
ATOM     32  C   UNL     1      -4.284  -1.341   3.277  0.00  0.00    -0.097 C 
ATOM     33  C   UNL     1      -5.173  -0.605   5.405  0.00  0.00    -0.097 C 
ATOM     34  N   UNL     1      -5.499  -1.247   4.114  0.00  0.00    +0.377 N 
ATOM     35  H   UNL     1      -5.855  -2.193   4.292  0.00  0.00    -0.083 HD
ENDBRANCH  31  34
ENDBRANCH  30  31
ENDBRANCH   3  30
TORSDOF 7
