REMARK  Name = ZINC59293251
REMARK  11 active torsions:
REMARK  status: ('A' for Active; 'I' for Inactive)
REMARK    1  A    between atoms: C_1  and  C_2
REMARK    2  A    between atoms: C_2  and  C_3
REMARK    3  A    between atoms: C_3  and  C_4
REMARK    4  A    between atoms: C_4  and  O_5
REMARK    5  A    between atoms: O_5  and  C_6
REMARK    6  A    between atoms: C_6  and  C_8
REMARK    7  A    between atoms: C_9  and  N_34
REMARK    8  A    between atoms: N_20  and  C_23
REMARK    9  A    between atoms: C_23  and  C_24
REMARK   10  A    between atoms: C_30  and  C_32
REMARK   11  A    between atoms: C_30  and  C_33
REMARK                            x       y       z     vdW  Elec       q    Type
REMARK                         _______ _______ _______ _____ _____    ______ ____
ROOT
ATOM      1  C   UNL     1       2.237  -4.161  -3.799  0.00  0.00    +0.117 C 
ATOM      2  C   UNL     1       2.343  -5.498  -4.021  0.00  0.00    +0.195 C 
ATOM      3  O   UNL     1       2.943  -5.971  -5.125  0.00  0.00    -0.446 OA
ATOM      4  C   UNL     1       3.800  -5.201  -5.824  0.00  0.00    +0.116 C 
ATOM      5  C   UNL     1       3.787  -3.860  -5.707  0.00  0.00    +0.057 C 
ATOM      6  C   UNL     1       2.793  -3.185  -4.794  0.00  0.00    +0.141 C 
ATOM      7  C   UNL     1       1.698  -2.538  -5.583  0.00  0.00    -0.002 A 
ATOM      8  C   UNL     1       0.750  -3.068  -6.431  0.00  0.00    +0.007 A 
ATOM      9  C   UNL     1      -0.141  -2.175  -7.017  0.00  0.00    +0.000 A 
ATOM     10  C   UNL     1      -0.076  -0.821  -6.759  0.00  0.00    +0.002 A 
ATOM     11  C   UNL     1       0.874  -0.281  -5.907  0.00  0.00    +0.024 A 
ATOM     12  C   UNL     1       1.775  -1.167  -5.312  0.00  0.00    +0.042 A 
ATOM     13  N   UNL     1       2.811  -0.908  -4.433  0.00  0.00    -0.261 N 
ATOM     14  C   UNL     1       3.464  -2.033  -4.074  0.00  0.00    +0.240 C 
ATOM     15  O   UNL     1       4.410  -2.108  -3.319  0.00  0.00    -0.274 OA
ATOM     16  C   UNL     1       4.691  -3.055  -6.425  0.00  0.00    +0.165 C 
ATOM     17  O   UNL     1       4.639  -1.847  -6.305  0.00  0.00    -0.292 OA
ATOM     18  C   UNL     1       5.720  -3.662  -7.339  0.00  0.00    +0.086 C 
ATOM     19  C   UNL     1       6.067  -5.066  -6.833  0.00  0.00    -0.021 C 
ATOM     20  C   UNL     1       4.777  -5.885  -6.751  0.00  0.00    +0.081 C 
ATOM     21  C   UNL     1       7.040  -5.737  -7.804  0.00  0.00    +0.012 C 
ATOM     22  C   UNL     1       6.704  -4.970  -5.445  0.00  0.00    +0.012 C 
ENDROOT
BRANCH   2  23
ATOM     23  N   UNL     1       1.831  -6.377  -3.104  0.00  0.00    -0.329 N 
ATOM     24  H   UNL     1       1.330  -6.045  -2.342  0.00  0.00    +0.145 HD
ATOM     25  H   UNL     1       1.969  -7.330  -3.216  0.00  0.00    +0.145 HD
ENDBRANCH   2  23
BRANCH   1  26
ATOM     26  C   UNL     1       1.601  -3.692  -2.639  0.00  0.00    +0.342 C 
ATOM     27  O   UNL     1       0.475  -3.233  -2.705  0.00  0.00    -0.245 OA
BRANCH  26  28
ATOM     28  O   UNL     1       2.238  -3.751  -1.449  0.00  0.00    -0.461 OA
BRANCH  28  29
ATOM     29  C   UNL     1       1.490  -3.367  -0.293  0.00  0.00    +0.232 C 
BRANCH  29  30
ATOM     30  C   UNL     1       2.403  -3.382   0.934  0.00  0.00    +0.041 C 
BRANCH  30  32
ATOM     31  C   UNL     1       2.549  -2.870   3.375  0.00  0.00    +0.004 C 
ATOM     32  C   UNL     1       1.636  -2.855   2.148  0.00  0.00    -0.000 C 
ENDBRANCH  30  32
ENDBRANCH  29  30
ENDBRANCH  28  29
ENDBRANCH  26  28
ENDBRANCH   1  26
BRANCH  13  33
ATOM     33  C   UNL     1       3.158   0.430  -3.948  0.00  0.00    +0.209 C 
BRANCH  33  34
ATOM     34  C   UNL     1       2.468   0.683  -2.632  0.00  0.00    +0.228 C 
ATOM     35  O   UNL     1       1.828  -0.202  -2.103  0.00  0.00    -0.274 OA
ATOM     36  N   UNL     1       2.561   1.891  -2.044  0.00  0.00    -0.328 N 
ATOM     37  H   UNL     1       3.073   2.599  -2.467  0.00  0.00    +0.145 HD
ATOM     38  H   UNL     1       2.117   2.054  -1.197  0.00  0.00    +0.145 HD
ENDBRANCH  33  34
ENDBRANCH  13  33
TORSDOF 8
