REMARK  Name = ZINC56209378
REMARK  3 active torsions:
REMARK  status: ('A' for Active; 'I' for Inactive)
REMARK    1  A    between atoms: C_4  and  N_13
REMARK    2  A    between atoms: C_6  and  N_7
REMARK    3  A    between atoms: C_14  and  C_16
REMARK                            x       y       z     vdW  Elec       q    Type
REMARK                         _______ _______ _______ _____ _____    ______ ____
ROOT
ATOM      1  C   UNL     1      -0.019   1.381  -0.020  0.00  0.00    +0.026 A 
ATOM      2  C   UNL     1       1.092   1.951   0.575  0.00  0.00    +0.042 A 
ATOM      3  C   UNL     1       2.301   1.280   0.571  0.00  0.00    +0.145 A 
ATOM      4  C   UNL     1       2.403   0.031  -0.032  0.00  0.00    +0.071 A 
ATOM      5  C   UNL     1       1.289  -0.541  -0.629  0.00  0.00    +0.049 A 
ATOM      6  C   UNL     1       0.077   0.134  -0.623  0.00  0.00    +0.041 A 
ATOM      7  F   UNL     1       3.385   1.840   1.153  0.00  0.00    -0.204 F 
ENDROOT
BRANCH   6   8
ATOM      8  N   UNL     1      -1.049  -0.441  -1.225  0.00  0.00    -0.234 N 
ATOM      9  C   UNL     1      -2.396   0.157  -1.302  0.00  0.00    +0.158 C 
ATOM     10  C   UNL     1      -3.084  -0.722  -2.374  0.00  0.00    +0.253 C 
ATOM     11  O   UNL     1      -2.323  -1.943  -2.294  0.00  0.00    -0.448 OA
ATOM     12  C   UNL     1      -1.095  -1.637  -1.842  0.00  0.00    +0.407 C 
ATOM     13  O   UNL     1      -0.130  -2.364  -1.973  0.00  0.00    -0.226 OA
ENDBRANCH   6   8
BRANCH   4  14
ATOM     14  N   UNL     1       3.627  -0.648  -0.036  0.00  0.00    -0.283 N 
ATOM     15  C   UNL     1       3.653  -1.992   0.058  0.00  0.00    +0.220 C 
ATOM     16  O   UNL     1       2.615  -2.620   0.065  0.00  0.00    -0.275 OA
ATOM     17  H   UNL     1       4.457  -0.151  -0.107  0.00  0.00    +0.155 HD
BRANCH  15  18
ATOM     18  C   UNL     1       4.972  -2.716   0.154  0.00  0.00    +0.075 C 
ATOM     19  C   UNL     1       5.810  -2.416  -1.090  0.00  0.00    +0.013 C 
ATOM     20  C   UNL     1       7.149  -3.151  -0.992  0.00  0.00    +0.001 C 
ATOM     21  C   UNL     1       6.898  -4.657  -0.896  0.00  0.00    +0.000 C 
ATOM     22  C   UNL     1       6.060  -4.956   0.348  0.00  0.00    +0.001 C 
ATOM     23  C   UNL     1       4.721  -4.222   0.250  0.00  0.00    +0.013 C 
ENDBRANCH  15  18
ENDBRANCH   4  14
TORSDOF 3
