REMARK  Name = ZINC34830180
REMARK  10 active torsions:
REMARK  status: ('A' for Active; 'I' for Inactive)
REMARK    1  A    between atoms: C_1  and  C_2
REMARK    2  A    between atoms: C_5  and  C_8
REMARK    3  A    between atoms: N_17  and  C_18
REMARK    4  A    between atoms: C_18  and  C_19
REMARK    5  A    between atoms: C_19  and  C_20
REMARK    6  A    between atoms: C_26  and  C_29
REMARK    7  A    between atoms: C_30  and  C_32
REMARK    8  A    between atoms: C_32  and  O_33
REMARK    9  A    between atoms: O_33  and  C_34
REMARK   10  A    between atoms: C_34  and  C_35
REMARK                            x       y       z     vdW  Elec       q    Type
REMARK                         _______ _______ _______ _____ _____    ______ ____
ROOT
ATOM      1  C   UNL     1       4.658  -4.298   1.589  0.00  0.00    +0.214 C 
ATOM      2  O   UNL     1       4.904  -3.728   0.547  0.00  0.00    -0.276 OA
ATOM      3  N   UNL     1       5.645  -4.543   2.472  0.00  0.00    -0.298 N 
ATOM      4  C   UNL     1       5.363  -5.238   3.736  0.00  0.00    +0.127 C 
ATOM      5  C   UNL     1       5.855  -4.365   4.897  0.00  0.00    +0.127 C 
ATOM      6  N   UNL     1       7.234  -3.941   4.614  0.00  0.00    -0.294 N 
ATOM      7  C   UNL     1       7.516  -3.245   3.351  0.00  0.00    +0.090 C 
ATOM      8  C   UNL     1       7.025  -4.124   2.187  0.00  0.00    +0.130 C 
ATOM      9  C   UNL     1       6.787  -1.901   3.331  0.00  0.00    +0.029 C 
ATOM     10  C   UNL     1       8.221  -4.186   5.498  0.00  0.00    +0.242 C 
ATOM     11  O   UNL     1       9.355  -3.831   5.254  0.00  0.00    -0.273 OA
ENDROOT
BRANCH   1  12
ATOM     12  C   UNL     1       3.248  -4.733   1.895  0.00  0.00    +0.077 C 
BRANCH  12  13
ATOM     13  C   UNL     1       2.329  -4.338   0.737  0.00  0.00    -0.068 C 
BRANCH  13  22
ATOM     14  C   UNL     1       0.059  -4.275  -0.021  0.00  0.00    -0.006 C 
ATOM     15  C   UNL     1      -1.346  -4.806   0.240  0.00  0.00    -0.047 A 
ATOM     16  C   UNL     1      -2.502  -4.255  -0.307  0.00  0.00    +0.010 A 
ATOM     17  C   UNL     1      -3.711  -4.792  -0.017  0.00  0.00    +0.045 A 
ATOM     18  S   UNL     1      -3.266  -6.138   1.072  0.00  0.00    -0.101 S 
ATOM     19  C   UNL     1      -1.514  -5.885   1.056  0.00  0.00    -0.010 A 
ATOM     20  C   UNL     1      -0.434  -6.647   1.752  0.00  0.00    +0.024 C 
ATOM     21  C   UNL     1       0.907  -6.228   1.125  0.00  0.00    -0.072 C 
ATOM     22  N   UNL     1       0.955  -4.762   1.035  0.00  0.00    +0.388 N 
ATOM     23  H   UNL     1       0.671  -4.367   1.919  0.00  0.00    -0.080 HD
BRANCH  14  28
ATOM     24  C   UNL     1      -0.018   1.503   0.010  0.00  0.00    +0.044 C 
ATOM     25  C   UNL     1       0.002  -0.004   0.002  0.00  0.00    -0.050 A 
ATOM     26  C   UNL     1       0.006  -0.689  -1.199  0.00  0.00    +0.003 A 
ATOM     27  C   UNL     1       0.025  -2.071  -1.206  0.00  0.00    +0.002 A 
ATOM     28  C   UNL     1       0.040  -2.768  -0.013  0.00  0.00    -0.057 A 
ATOM     29  C   UNL     1       0.037  -2.084   1.188  0.00  0.00    +0.002 A 
ATOM     30  C   UNL     1       0.023  -0.702   1.195  0.00  0.00    +0.003 A 
ENDBRANCH  14  28
ENDBRANCH  13  22
ENDBRANCH  12  13
ENDBRANCH   1  12
BRANCH  10  31
ATOM     31  C   UNL     1       7.917  -4.900   6.790  0.00  0.00    +0.256 C 
BRANCH  31  32
ATOM     32  O   UNL     1       9.117  -5.039   7.552  0.00  0.00    -0.366 OA
BRANCH  32  33
ATOM     33  C   UNL     1       8.938  -5.707   8.802  0.00  0.00    +0.195 C 
BRANCH  33  34
ATOM     34  C   UNL     1      10.261  -5.798   9.518  0.00  0.00    -0.022 A 
ATOM     35  C   UNL     1      11.085  -6.888   9.311  0.00  0.00    +0.006 A 
ATOM     36  C   UNL     1      12.299  -6.972   9.967  0.00  0.00    +0.000 A 
ATOM     37  C   UNL     1      12.690  -5.965  10.829  0.00  0.00    +0.000 A 
ATOM     38  C   UNL     1      11.866  -4.873  11.035  0.00  0.00    +0.000 A 
ATOM     39  C   UNL     1      10.654  -4.788  10.376  0.00  0.00    +0.006 A 
ENDBRANCH  33  34
ENDBRANCH  32  33
ENDBRANCH  31  32
ENDBRANCH  10  31
TORSDOF 8
