REMARK  Name = ZINC39711369
REMARK  13 active torsions:
REMARK  status: ('A' for Active; 'I' for Inactive)
REMARK    1  A    between atoms: C_1  and  O_2
REMARK    2  A    between atoms: O_2  and  C_3
REMARK    3  A    between atoms: C_3  and  C_4
REMARK    4  A    between atoms: C_4  and  N_5
REMARK    5  A    between atoms: C_6  and  C_10
REMARK    6  A    between atoms: C_10  and  C_12
REMARK    7  A    between atoms: C_10  and  N_26
REMARK    8  A    between atoms: C_17  and  O_24
REMARK    9  A    between atoms: O_24  and  C_25
REMARK   10  A    between atoms: N_26  and  C_27
REMARK   11  A    between atoms: N_26  and  C_34
REMARK   12  A    between atoms: C_27  and  C_28
REMARK   13  A    between atoms: C_34  and  C_35
REMARK                            x       y       z     vdW  Elec       q    Type
REMARK                         _______ _______ _______ _____ _____    ______ ____
ROOT
ATOM      1  C   UNL     1      -2.617  -2.639   2.749  0.00  0.00    +0.019 C 
ENDROOT
BRANCH   1   2
ATOM      2  C   UNL     1      -3.409  -1.560   3.489  0.00  0.00    +0.092 C 
ATOM      3  C   UNL     1      -2.951  -0.210   2.974  0.00  0.00    -0.006 C 
ATOM      4  C   UNL     1      -3.898   0.606   2.430  0.00  0.00    -0.004 A 
ATOM      5  C   UNL     1      -3.541   1.926   1.909  0.00  0.00    +0.055 A 
ATOM      6  C   UNL     1      -4.520   2.708   1.375  0.00  0.00    +0.121 A 
ATOM      7  C   UNL     1      -5.848   2.271   1.318  0.00  0.00    +0.047 A 
ATOM      8  C   UNL     1      -6.240   1.057   1.785  0.00  0.00    +0.027 A 
ATOM      9  C   UNL     1      -5.304   0.174   2.356  0.00  0.00    +0.041 A 
ATOM     10  N   UNL     1      -5.703  -1.015   2.809  0.00  0.00    -0.285 N 
ATOM     11  C   UNL     1      -4.879  -1.891   3.357  0.00  0.00    +0.223 C 
ATOM     12  O   UNL     1      -5.302  -2.961   3.753  0.00  0.00    -0.275 OA
ATOM     13  H   UNL     1      -6.641  -1.247   2.734  0.00  0.00    +0.155 HD
BRANCH   6  14
ATOM     14  O   UNL     1      -4.201   3.936   0.888  0.00  0.00    -0.495 OA
ATOM     15  C   UNL     1      -5.267   4.713   0.339  0.00  0.00    +0.277 C 
ENDBRANCH   6  14
ENDBRANCH   1   2
BRANCH   1  17
ATOM     16  N   UNL     1      -2.427  -2.462   0.211  0.00  0.00    -0.229 N 
ATOM     17  C   UNL     1      -3.118  -2.746   1.331  0.00  0.00    +0.139 A 
ATOM     18  N   UNL     1      -4.310  -3.135   0.950  0.00  0.00    -0.115 NA
ATOM     19  N   UNL     1      -4.349  -3.092  -0.337  0.00  0.00    -0.023 NA
ATOM     20  N   UNL     1      -3.215  -2.681  -0.786  0.00  0.00    -0.044 NA
BRANCH  16  21
ATOM     21  C   UNL     1      -1.042  -1.989   0.139  0.00  0.00    +0.175 C 
BRANCH  21  22
ATOM     22  C   UNL     1      -1.025  -0.459   0.161  0.00  0.00    +0.183 C 
BRANCH  22  24
ATOM     23  C   UNL     1       0.456   1.425   0.223  0.00  0.00    +0.194 C 
ATOM     24  O   UNL     1       0.327   0.002   0.200  0.00  0.00    -0.381 OA
ENDBRANCH  22  24
ENDBRANCH  21  22
ENDBRANCH  16  21
ENDBRANCH   1  17
BRANCH   1  25
ATOM     25  N   UNL     1      -2.792  -3.929   3.429  0.00  0.00    +0.393 N 
ATOM     26  H   UNL     1      -3.774  -4.162   3.461  0.00  0.00    -0.080 HD
BRANCH  25  27
ATOM     27  C   UNL     1      -2.266  -3.837   4.797  0.00  0.00    -0.041 C 
BRANCH  27  28
ATOM     28  C   UNL     1      -0.843  -3.343   4.756  0.00  0.00    -0.064 A 
ATOM     29  C   UNL     1       0.194  -4.236   4.558  0.00  0.00    +0.002 A 
ATOM     30  C   UNL     1       1.499  -3.783   4.520  0.00  0.00    +0.000 A 
ATOM     31  C   UNL     1       1.768  -2.436   4.679  0.00  0.00    +0.000 A 
ATOM     32  C   UNL     1       0.732  -1.543   4.876  0.00  0.00    +0.000 A 
ATOM     33  C   UNL     1      -0.574  -1.996   4.910  0.00  0.00    +0.002 A 
ENDBRANCH  27  28
ENDBRANCH  25  27
BRANCH  25  34
ATOM     34  C   UNL     1      -2.065  -4.973   2.694  0.00  0.00    -0.034 C 
BRANCH  34  35
ATOM     35  C   UNL     1      -2.397  -6.322   3.279  0.00  0.00    -0.027 A 
ATOM     36  C   UNL     1      -3.347  -7.209   2.894  0.00  0.00    +0.009 A 
ATOM     37  C   UNL     1      -3.471  -8.400   3.585  0.00  0.00    +0.008 A 
ATOM     38  C   UNL     1      -2.640  -8.645   4.627  0.00  0.00    +0.045 A 
ATOM     39  S   UNL     1      -1.635  -7.170   4.653  0.00  0.00    -0.103 S 
ENDBRANCH  34  35
ENDBRANCH  25  34
ENDBRANCH   1  25
TORSDOF 11
