REMARK  Name = ZINC43218912
REMARK  10 active torsions:
REMARK  status: ('A' for Active; 'I' for Inactive)
REMARK    1  A    between atoms: C_1  and  C_2
REMARK    2  A    between atoms: C_2  and  C_3
REMARK    3  A    between atoms: C_2  and  C_4
REMARK    4  A    between atoms: C_2  and  N_5
REMARK    5  A    between atoms: C_10  and  C_27
REMARK    6  A    between atoms: C_13  and  C_18
REMARK    7  A    between atoms: C_13  and  C_24
REMARK    8  A    between atoms: C_31  and  O_34
REMARK    9  A    between atoms: C_32  and  O_33
REMARK   10  A    between atoms: O_34  and  C_35
REMARK                            x       y       z     vdW  Elec       q    Type
REMARK                         _______ _______ _______ _____ _____    ______ ____
ROOT
ATOM      1  N   UNL     1       0.384  -1.196  -1.700  0.00  0.00    -0.236 N 
ATOM      2  C   UNL     1       0.093  -1.992  -2.780  0.00  0.00    +0.225 C 
ATOM      3  O   UNL     1      -0.989  -2.429  -3.110  0.00  0.00    -0.275 OA
ATOM      4  C   UNL     1       1.364  -2.193  -3.437  0.00  0.00    +0.077 C 
ATOM      5  C   UNL     1       1.908  -2.611  -4.737  0.00  0.00    -0.023 C 
ATOM      6  N   UNL     1       3.320  -2.103  -4.728  0.00  0.00    +0.398 N 
ATOM      7  C   UNL     1       3.503  -1.302  -3.474  0.00  0.00    +0.074 C 
ATOM      8  C   UNL     1       2.070  -0.799  -3.201  0.00  0.00    +0.090 C 
ATOM      9  C   UNL     1       1.631  -0.644  -1.771  0.00  0.00    +0.226 C 
ATOM     10  O   UNL     1       2.257  -0.135  -0.867  0.00  0.00    -0.275 OA
ATOM     11  H   UNL     1       3.963  -2.881  -4.735  0.00  0.00    -0.083 HD
ATOM     12  H   UNL     1       3.478  -1.518  -5.535  0.00  0.00    -0.083 HD
ENDROOT
BRANCH   7  13
ATOM     13  C   UNL     1       4.012  -2.172  -2.354  0.00  0.00    -0.047 A 
ATOM     14  C   UNL     1       4.000  -3.548  -2.488  0.00  0.00    +0.003 A 
ATOM     15  C   UNL     1       4.467  -4.346  -1.460  0.00  0.00    +0.000 A 
ATOM     16  C   UNL     1       4.947  -3.768  -0.299  0.00  0.00    +0.000 A 
ATOM     17  C   UNL     1       4.960  -2.393  -0.167  0.00  0.00    +0.000 A 
ATOM     18  C   UNL     1       4.497  -1.594  -1.196  0.00  0.00    +0.003 A 
ENDBRANCH   7  13
BRANCH   5  19
ATOM     19  C   UNL     1       1.126  -1.983  -5.862  0.00  0.00    -0.015 A 
ATOM     20  C   UNL     1       1.529  -0.770  -6.391  0.00  0.00    +0.006 A 
ATOM     21  C   UNL     1       0.814  -0.192  -7.423  0.00  0.00    +0.004 A 
ATOM     22  C   UNL     1      -0.307  -0.822  -7.930  0.00  0.00    +0.049 A 
ATOM     23  C   UNL     1      -0.716  -2.037  -7.404  0.00  0.00    +0.161 A 
ATOM     24  C   UNL     1       0.007  -2.623  -6.370  0.00  0.00    +0.160 A 
BRANCH  24  25
ATOM     25  O   UNL     1      -0.387  -3.818  -5.854  0.00  0.00    -0.503 OA
ATOM     26  H   UNL     1      -1.008  -3.743  -5.117  0.00  0.00    +0.292 HD
ENDBRANCH  24  25
BRANCH  23  27
ATOM     27  O   UNL     1      -1.819  -2.658  -7.902  0.00  0.00    -0.491 OA
ATOM     28  C   UNL     1      -2.508  -2.002  -8.968  0.00  0.00    +0.277 C 
ENDBRANCH  23  27
ENDBRANCH   5  19
BRANCH   1  30
ATOM     29  C   UNL     1      -0.855   0.535  -0.497  0.00  0.00    +0.031 C 
ATOM     30  C   UNL     1      -0.546  -0.960  -0.593  0.00  0.00    +0.036 C 
ATOM     31  C   UNL     1       0.087  -1.435   0.716  0.00  0.00    +0.031 C 
ATOM     32  C   UNL     1      -1.843  -1.733  -0.843  0.00  0.00    +0.031 C 
ENDBRANCH   1  30
BRANCH   7  33
ATOM     33  C   UNL     1       4.432  -0.140  -3.715  0.00  0.00    +0.350 C 
ATOM     34  O   UNL     1       4.937   0.020  -4.813  0.00  0.00    -0.248 OA
ATOM     35  O   UNL     1       4.678   0.640  -2.811  0.00  0.00    -0.248 OA
ENDBRANCH   7  33
TORSDOF 6
