REMARK  Name = ZINC63097978
REMARK  13 active torsions:
REMARK  status: ('A' for Active; 'I' for Inactive)
REMARK    1  A    between atoms: C_1  and  C_2
REMARK    2  A    between atoms: C_2  and  C_3
REMARK    3  A    between atoms: C_6  and  C_9
REMARK    4  A    between atoms: C_9  and  C_11
REMARK    5  A    between atoms: C_9  and  N_31
REMARK    6  A    between atoms: C_11  and  N_12
REMARK    7  A    between atoms: C_13  and  C_15
REMARK    8  A    between atoms: C_15  and  C_17
REMARK    9  A    between atoms: C_15  and  N_27
REMARK   10  A    between atoms: C_17  and  C_18
REMARK   11  A    between atoms: C_28  and  C_30
REMARK   12  A    between atoms: N_31  and  C_32
REMARK   13  A    between atoms: N_31  and  C_33
REMARK                            x       y       z     vdW  Elec       q    Type
REMARK                         _______ _______ _______ _____ _____    ______ ____
ROOT
ATOM      1  N   UNL     1      -6.942  -3.849  -0.348  0.00  0.00    -0.315 N 
ATOM      2  C   UNL     1      -7.276  -5.137  -0.567  0.00  0.00    +0.234 C 
ATOM      3  O   UNL     1      -6.410  -5.961  -0.771  0.00  0.00    -0.274 OA
ATOM      4  H   UNL     1      -7.635  -3.190  -0.184  0.00  0.00    +0.149 HD
ENDROOT
BRANCH   1   5
ATOM      5  C   UNL     1      -5.534  -3.446  -0.358  0.00  0.00    +0.093 C 
BRANCH   5   6
ATOM      6  C   UNL     1      -5.423  -1.973   0.043  0.00  0.00    -0.021 C 
BRANCH   6  10
ATOM      7  C   UNL     1      -6.703  -1.503   4.091  0.00  0.00    -0.048 A 
ATOM      8  C   UNL     1      -7.561  -1.190   3.054  0.00  0.00    +0.004 A 
ATOM      9  C   UNL     1      -7.147  -1.342   1.744  0.00  0.00    +0.002 A 
ATOM     10  C   UNL     1      -5.874  -1.807   1.471  0.00  0.00    -0.059 A 
ATOM     11  C   UNL     1      -5.015  -2.119   2.508  0.00  0.00    +0.002 A 
ATOM     12  C   UNL     1      -5.428  -1.963   3.818  0.00  0.00    +0.004 A 
BRANCH   7  14
ATOM     13  C   UNL     1      -6.818   0.076   6.000  0.00  0.00    +0.009 C 
ATOM     14  C   UNL     1      -7.154  -1.337   5.520  0.00  0.00    +0.032 C 
ENDBRANCH   7  14
ENDBRANCH   6  10
BRANCH   6  15
ATOM     15  N   UNL     1      -4.027  -1.535  -0.084  0.00  0.00    +0.382 N 
ATOM     16  C   UNL     1      -3.592  -1.681  -1.479  0.00  0.00    -0.096 C 
ATOM     17  C   UNL     1      -3.917  -0.127   0.319  0.00  0.00    -0.096 C 
ATOM     18  H   UNL     1      -3.441  -2.102   0.512  0.00  0.00    -0.082 HD
ENDBRANCH   6  15
ENDBRANCH   5   6
ENDBRANCH   1   5
BRANCH   2  19
ATOM     19  C   UNL     1      -8.724  -5.553  -0.556  0.00  0.00    +0.163 C 
BRANCH  19  20
ATOM     20  N   UNL     1      -8.872  -6.826  -1.264  0.00  0.00    -0.304 N 
ATOM     21  C   UNL     1      -8.216  -7.920  -0.828  0.00  0.00    +0.211 C 
ATOM     22  O   UNL     1      -7.504  -7.850   0.151  0.00  0.00    -0.276 OA
ATOM     23  C   UNL     1      -8.368  -9.230  -1.556  0.00  0.00    +0.109 C 
ATOM     24  H   UNL     1      -9.442  -6.883  -2.047  0.00  0.00    +0.149 HD
ENDBRANCH  19  20
BRANCH  19  25
ATOM     25  C   UNL     1      -9.198  -5.715   0.890  0.00  0.00    +0.065 C 
BRANCH  25  26
ATOM     26  C   UNL     1     -10.676  -6.010   0.904  0.00  0.00    -0.039 C 
ATOM     27  C   UNL     1     -11.261  -7.228   0.962  0.00  0.00    -0.001 A 
ATOM     28  C   UNL     1     -10.718  -8.590   1.025  0.00  0.00    +0.010 A 
ATOM     29  C   UNL     1     -11.575  -9.636   1.074  0.00  0.00    +0.001 A 
ATOM     30  C   UNL     1     -12.964  -9.452   1.066  0.00  0.00    +0.002 A 
ATOM     31  C   UNL     1     -13.538  -8.231   1.009  0.00  0.00    +0.026 A 
ATOM     32  C   UNL     1     -12.732  -7.060   0.955  0.00  0.00    +0.043 A 
ATOM     33  N   UNL     1     -13.044  -5.788   0.895  0.00  0.00    -0.380 N 
ATOM     34  C   UNL     1     -11.804  -5.004   0.864  0.00  0.00    +0.144 C 
ATOM     35  H   UNL     1     -13.943  -5.426   0.879  0.00  0.00    +0.160 HD
ENDBRANCH  25  26
ENDBRANCH  19  25
ENDBRANCH   2  19
TORSDOF 9
