REMARK  Name = ZINC06322029
REMARK  9 active torsions:
REMARK  status: ('A' for Active; 'I' for Inactive)
REMARK    1  A    between atoms: C_3  and  C_9
REMARK    2  A    between atoms: C_9  and  O_10
REMARK    3  A    between atoms: O_10  and  N_11
REMARK    4  A    between atoms: N_13  and  C_14
REMARK    5  A    between atoms: C_14  and  C_16
REMARK    6  A    between atoms: C_19  and  N_33
REMARK    7  A    between atoms: C_20  and  C_22
REMARK    8  A    between atoms: C_22  and  S_23
REMARK    9  A    between atoms: S_23  and  C_26
REMARK                            x       y       z     vdW  Elec       q    Type
REMARK                         _______ _______ _______ _____ _____    ______ ____
ROOT
ATOM      1  C   UNL     1       8.017  -5.432  -0.346  0.00  0.00    +0.039 A 
ATOM      2  C   UNL     1       8.091  -6.806  -0.576  0.00  0.00    +0.015 A 
ATOM      3  C   UNL     1       9.312  -7.395  -0.830  0.00  0.00    +0.034 A 
ATOM      4  C   UNL     1      10.464  -6.628  -0.847  0.00  0.00    +0.131 A 
ATOM      5  C   UNL     1      10.398  -5.266  -0.614  0.00  0.00    +0.005 A 
ATOM      6  C   UNL     1       9.182  -4.664  -0.364  0.00  0.00    +0.020 A 
ENDROOT
BRANCH   4   7
ATOM      7  N   UNL     1      11.771  -7.267  -1.115  0.00  0.00    +0.057 N 
ATOM      8  O   UNL     1      11.850  -8.180  -1.918  0.00  0.00    -0.126 OA
ATOM      9  O   UNL     1      12.769  -6.880  -0.534  0.00  0.00    -0.126 OA
ENDBRANCH   4   7
BRANCH   1  10
ATOM     10  C   UNL     1       6.709  -4.793  -0.077  0.00  0.00    +0.269 C 
ATOM     11  O   UNL     1       6.648  -3.595   0.129  0.00  0.00    -0.268 OA
BRANCH  10  14
ATOM     12  N   UNL     1       4.747  -4.282  -1.803  0.00  0.00    -0.257 N 
ATOM     13  C   UNL     1       4.598  -5.250  -0.873  0.00  0.00    +0.208 C 
ATOM     14  N   UNL     1       5.587  -5.537  -0.060  0.00  0.00    -0.165 NA
ATOM     15  H   UNL     1       5.558  -3.751  -1.825  0.00  0.00    +0.195 HD
BRANCH  12  16
ATOM     16  O   UNL     1       3.719  -4.043  -2.746  0.00  0.00    -0.269 OA
BRANCH  16  17
ATOM     17  C   UNL     1       4.010  -2.991  -3.670  0.00  0.00    +0.229 C 
BRANCH  17  20
ATOM     18  C   UNL     1       0.679  -3.481  -5.379  0.00  0.00    +0.002 A 
ATOM     19  C   UNL     1       1.740  -3.634  -4.506  0.00  0.00    +0.007 A 
ATOM     20  C   UNL     1       2.854  -2.824  -4.622  0.00  0.00    +0.000 A 
ATOM     21  C   UNL     1       2.908  -1.859  -5.612  0.00  0.00    +0.065 A 
ATOM     22  C   UNL     1       1.845  -1.706  -6.486  0.00  0.00    +0.060 A 
ATOM     23  C   UNL     1       0.731  -2.518  -6.368  0.00  0.00    +0.021 A 
ATOM     24 CL   UNL     1       1.911  -0.496  -7.729  0.00  0.00    -0.082 Cl
ATOM     25 CL   UNL     1       4.306  -0.842  -5.758  0.00  0.00    -0.082 Cl
ENDBRANCH  17  20
ENDBRANCH  16  17
ENDBRANCH  12  16
ENDBRANCH  10  14
ENDBRANCH   1  10
BRANCH   5  26
ATOM     26  C   UNL     1      11.656  -4.437  -0.634  0.00  0.00    +0.209 C 
BRANCH  26  27
ATOM     27  S   UNL     1      12.255  -4.205   1.062  0.00  0.00    +0.001 S 
ATOM     28  O   UNL     1      11.352  -3.386   1.792  0.00  0.00    -0.169 OA
ATOM     29  O   UNL     1      12.703  -5.444   1.597  0.00  0.00    -0.169 OA
BRANCH  27  30
ATOM     30  C   UNL     1      13.714  -3.232   0.898  0.00  0.00    +0.089 A 
ATOM     31  C   UNL     1      14.943  -3.848   0.745  0.00  0.00    +0.028 A 
ATOM     32  C   UNL     1      16.087  -3.085   0.611  0.00  0.00    +0.022 A 
ATOM     33  C   UNL     1      16.005  -1.704   0.641  0.00  0.00    +0.041 A 
ATOM     34  C   UNL     1      14.776  -1.088   0.800  0.00  0.00    +0.022 A 
ATOM     35  C   UNL     1      13.632  -1.852   0.929  0.00  0.00    +0.028 A 
ATOM     36 CL   UNL     1      17.443  -0.745   0.479  0.00  0.00    -0.084 Cl
ENDBRANCH  27  30
ENDBRANCH  26  27
ENDBRANCH   5  26
TORSDOF 9
