REMARK  Name = ZINC39659764
REMARK  5 active torsions:
REMARK  status: ('A' for Active; 'I' for Inactive)
REMARK    1  A    between atoms: C_5  and  N_9
REMARK    2  A    between atoms: C_10  and  C_12
REMARK    3  A    between atoms: C_23  and  C_25
REMARK    4  A    between atoms: C_25  and  C_26
REMARK    5  A    between atoms: C_26  and  C_27
REMARK                            x       y       z     vdW  Elec       q    Type
REMARK                         _______ _______ _______ _____ _____    ______ ____
ROOT
ATOM      1  C   UNL     1       6.666  -1.451  -0.349  0.00  0.00    +0.100 C 
ATOM      2  C   UNL     1       7.274  -0.679  -1.542  0.00  0.00    +0.121 C 
ATOM      3  N   UNL     1       8.211   0.287  -0.923  0.00  0.00    -0.300 N 
ATOM      4  C   UNL     1       8.846  -0.471   0.182  0.00  0.00    +0.115 C 
ATOM      5  C   UNL     1       7.702  -1.315   0.779  0.00  0.00    -0.004 C 
ATOM      6  C   UNL     1       8.220  -2.690   1.190  0.00  0.00    -0.010 C 
ATOM      7  C   UNL     1       9.205  -2.534   2.352  0.00  0.00    -0.082 C 
ATOM      8  N   UNL     1       8.531  -1.885   3.482  0.00  0.00    +0.379 N 
ATOM      9  C   UNL     1       8.118  -0.527   3.107  0.00  0.00    -0.082 C 
ATOM     10  C   UNL     1       7.088  -0.598   1.977  0.00  0.00    -0.010 C 
ATOM     11  C   UNL     1       8.438   1.566  -1.284  0.00  0.00    +0.216 C 
ATOM     12  O   UNL     1       9.244   2.235  -0.674  0.00  0.00    -0.276 OA
ATOM     13  H   UNL     1       7.717  -2.422   3.741  0.00  0.00    -0.086 HD
ATOM     14  H   UNL     1       9.163  -1.838   4.267  0.00  0.00    -0.086 HD
ENDROOT
BRANCH   1  16
ATOM     15  N   UNL     1       4.401  -1.592   0.635  0.00  0.00    -0.312 N 
ATOM     16  C   UNL     1       5.356  -0.832   0.064  0.00  0.00    +0.218 C 
ATOM     17  O   UNL     1       5.161   0.351  -0.117  0.00  0.00    -0.275 OA
ATOM     18  H   UNL     1       4.557  -2.539   0.780  0.00  0.00    +0.149 HD
BRANCH  15  23
ATOM     19  C   UNL     1      -0.173  -0.038   1.867  0.00  0.00    +0.000 C 
ATOM     20  C   UNL     1       0.543  -0.139   0.518  0.00  0.00    +0.000 C 
ATOM     21  C   UNL     1       0.851  -1.607   0.213  0.00  0.00    +0.002 C 
ATOM     22  C   UNL     1       2.039  -2.065   1.059  0.00  0.00    +0.022 C 
ATOM     23  C   UNL     1       3.128  -0.990   1.037  0.00  0.00    +0.073 C 
ATOM     24  C   UNL     1       3.270  -0.379   2.433  0.00  0.00    +0.022 C 
ATOM     25  C   UNL     1       2.105   0.578   2.691  0.00  0.00    +0.002 C 
ATOM     26  C   UNL     1       0.841  -0.228   2.997  0.00  0.00    +0.000 C 
ENDBRANCH  15  23
ENDBRANCH   1  16
BRANCH  11  27
ATOM     27  C   UNL     1       7.688   2.164  -2.446  0.00  0.00    +0.096 C 
BRANCH  27  28
ATOM     28  C   UNL     1       8.127   3.616  -2.644  0.00  0.00    +0.013 C 
BRANCH  28  29
ATOM     29  C   UNL     1       7.366   4.224  -3.824  0.00  0.00    -0.011 C 
ATOM     30  C   UNL     1       7.810   3.553  -5.140  0.00  0.00    +0.003 C 
ATOM     31  C   UNL     1       7.809   4.707  -6.173  0.00  0.00    +0.000 C 
ATOM     32  C   UNL     1       8.343   5.905  -5.348  0.00  0.00    +0.000 C 
ATOM     33  C   UNL     1       7.706   5.719  -3.956  0.00  0.00    +0.003 C 
ENDBRANCH  28  29
ENDBRANCH  27  28
ENDBRANCH  11  27
TORSDOF 5
