REMARK  Name = ZINC04285797
REMARK  5 active torsions:
REMARK  status: ('A' for Active; 'I' for Inactive)
REMARK    1  A    between atoms: C_1  and  C_2
REMARK    2  A    between atoms: C_8  and  N_10
REMARK    3  A    between atoms: C_11  and  C_13
REMARK    4  A    between atoms: C_13  and  S_14
REMARK    5  A    between atoms: S_14  and  C_15
REMARK                            x       y       z     vdW  Elec       q    Type
REMARK                         _______ _______ _______ _____ _____    ______ ____
ROOT
ATOM      1  C   UNL     1       2.223  -4.893   3.935  0.00  0.00    +0.170 A 
ATOM      2  N   UNL     1       3.112  -5.744   4.526  0.00  0.00    -0.301 N 
ATOM      3  H   UNL     1       3.878  -5.368   5.047  0.00  0.00    +0.171 HD
ATOM      4  C   UNL     1       2.977  -7.079   4.419  0.00  0.00    +0.261 A 
ATOM      5  O   UNL     1       3.777  -7.825   4.957  0.00  0.00    -0.267 OA
ATOM      6  C   UNL     1       1.885  -7.609   3.663  0.00  0.00    +0.075 A 
ATOM      7  C   UNL     1       1.552  -9.013   3.413  0.00  0.00    -0.023 A 
ATOM      8  C   UNL     1       0.460  -9.258   2.661  0.00  0.00    -0.004 A 
ATOM      9  S   UNL     1      -0.181  -7.659   2.245  0.00  0.00    -0.073 S 
ATOM     10  C   UNL     1       1.022  -6.662   3.085  0.00  0.00    +0.117 A 
ATOM     11  N   UNL     1       1.208  -5.356   3.232  0.00  0.00    -0.216 NA
ATOM     12  C   UNL     1      -0.088 -10.596   2.265  0.00  0.00    +0.043 C 
ATOM     13  C   UNL     1       0.987 -11.659   2.533  0.00  0.00    +0.005 C 
ATOM     14  C   UNL     1       1.553 -11.441   3.940  0.00  0.00    +0.005 C 
ATOM     15  C   UNL     1       2.389 -10.161   3.971  0.00  0.00    +0.037 C 
ENDROOT
BRANCH   1  16
ATOM     16  S   UNL     1       2.438  -3.153   4.109  0.00  0.00    -0.078 S 
BRANCH  16  17
ATOM     17  C   UNL     1       1.023  -2.564   3.147  0.00  0.00    +0.173 C 
BRANCH  17  19
ATOM     18  N   UNL     1       0.031  -0.392   2.498  0.00  0.00    -0.312 N 
ATOM     19  C   UNL     1       1.002  -1.057   3.155  0.00  0.00    +0.224 C 
ATOM     20  O   UNL     1       1.860  -0.442   3.752  0.00  0.00    -0.275 OA
ATOM     21  H   UNL     1      -0.655  -0.884   2.020  0.00  0.00    +0.149 HD
BRANCH  18  28
ATOM     22  C   UNL     1      -0.013   1.086   0.008  0.00  0.00    +0.009 C 
ATOM     23  C   UNL     1      -0.729   1.579   1.267  0.00  0.00    +0.006 C 
ATOM     24  C   UNL     1      -2.164   1.050   1.278  0.00  0.00    +0.005 C 
ATOM     25  C   UNL     1      -2.880   1.543   2.537  0.00  0.00    +0.000 C 
ATOM     26  C   UNL     1      -2.140   1.036   3.776  0.00  0.00    +0.002 C 
ATOM     27  C   UNL     1      -0.705   1.566   3.765  0.00  0.00    +0.022 C 
ATOM     28  C   UNL     1       0.011   1.072   2.506  0.00  0.00    +0.076 C 
ENDBRANCH  18  28
ENDBRANCH  17  19
ENDBRANCH  16  17
ENDBRANCH   1  16
TORSDOF 4
