REMARK  Name = ZINC01623433
REMARK  6 active torsions:
REMARK  status: ('A' for Active; 'I' for Inactive)
REMARK    1  A    between atoms: C_1  and  O_2
REMARK    2  A    between atoms: O_2  and  C_3
REMARK    3  A    between atoms: C_8  and  N_9
REMARK    4  A    between atoms: N_9  and  N_10
REMARK    5  A    between atoms: N_14  and  C_27
REMARK    6  A    between atoms: N_17  and  C_20
REMARK                            x       y       z     vdW  Elec       q    Type
REMARK                         _______ _______ _______ _____ _____    ______ ____
ROOT
ATOM      1  N   UNL     1      -0.107   4.492  -1.142  0.00  0.00    -0.172 NA
ATOM      2  C   UNL     1      -0.052   5.622  -0.463  0.00  0.00    +0.206 C 
ATOM      3  C   UNL     1      -0.935   5.870   0.694  0.00  0.00    +0.282 C 
ATOM      4  O   UNL     1      -1.742   5.034   1.055  0.00  0.00    -0.267 OA
ATOM      5  N   UNL     1      -0.818   7.046   1.343  0.00  0.00    -0.216 N 
ATOM      6  C   UNL     1       0.062   7.979   0.953  0.00  0.00    +0.158 C 
ATOM      7  S   UNL     1       0.134   9.445   1.834  0.00  0.00    -0.017 S 
ATOM      8  N   UNL     1       0.890   7.824  -0.090  0.00  0.00    -0.216 N 
ATOM      9  C   UNL     1       0.891   6.697  -0.830  0.00  0.00    +0.282 C 
ATOM     10  O   UNL     1       1.648   6.569  -1.774  0.00  0.00    -0.267 OA
ENDROOT
BRANCH   8  11
ATOM     11  C   UNL     1       1.776   8.859  -0.419  0.00  0.00    +0.043 A 
ATOM     12  C   UNL     1       1.563   9.621  -1.560  0.00  0.00    +0.025 A 
ATOM     13  C   UNL     1       2.435  10.643  -1.879  0.00  0.00    +0.017 A 
ATOM     14  C   UNL     1       3.527  10.901  -1.068  0.00  0.00    +0.018 A 
ATOM     15  C   UNL     1       3.744  10.140   0.066  0.00  0.00    +0.017 A 
ATOM     16  C   UNL     1       2.873   9.120   0.393  0.00  0.00    +0.025 A 
ATOM     17 BR   UNL     1       4.723  12.297  -1.513  0.00  0.00    -0.050 Br
ENDBRANCH   8  11
BRANCH   5  18
ATOM     18  C   UNL     1      -1.641   7.303   2.448  0.00  0.00    +0.043 A 
ATOM     19  C   UNL     1      -1.205   6.987   3.728  0.00  0.00    +0.024 A 
ATOM     20  C   UNL     1      -2.016   7.246   4.816  0.00  0.00    +0.002 A 
ATOM     21  C   UNL     1      -3.266   7.808   4.630  0.00  0.00    +0.000 A 
ATOM     22  C   UNL     1      -3.705   8.119   3.356  0.00  0.00    +0.002 A 
ATOM     23  C   UNL     1      -2.896   7.868   2.265  0.00  0.00    +0.024 A 
ENDBRANCH   5  18
BRANCH   1  24
ATOM     24  N   UNL     1       0.550   4.369  -2.246  0.00  0.00    -0.233 N 
ATOM     25  H   UNL     1       1.017   5.133  -2.619  0.00  0.00    +0.175 HD
BRANCH  24  31
ATOM     26  C   UNL     1       1.298   3.004  -4.095  0.00  0.00    +0.143 A 
ATOM     27  C   UNL     1       1.332   1.779  -4.742  0.00  0.00    +0.047 A 
ATOM     28  C   UNL     1       0.665   0.694  -4.205  0.00  0.00    +0.004 A 
ATOM     29  C   UNL     1      -0.039   0.826  -3.021  0.00  0.00    +0.002 A 
ATOM     30  C   UNL     1      -0.079   2.043  -2.369  0.00  0.00    +0.028 A 
ATOM     31  C   UNL     1       0.589   3.138  -2.902  0.00  0.00    +0.090 A 
BRANCH  26  33
ATOM     32  C   UNL     1       2.659   3.859  -5.847  0.00  0.00    +0.277 C 
ATOM     33  O   UNL     1       1.954   4.071  -4.622  0.00  0.00    -0.493 OA
ENDBRANCH  26  33
ENDBRANCH  24  31
ENDBRANCH   1  24
TORSDOF 5
