REMARK  Name = ZINC44325354
REMARK  8 active torsions:
REMARK  status: ('A' for Active; 'I' for Inactive)
REMARK    1  A    between atoms: C_13  and  C_14
REMARK    2  A    between atoms: C_14  and  O_15
REMARK    3  A    between atoms: O_15  and  C_16
REMARK    4  A    between atoms: N_18  and  CA_19
REMARK    5  A    between atoms: CA_19  and  C_21
REMARK    6  A    between atoms: CA_19  and  C_35
REMARK    7  A    between atoms: C_21  and  C_22
REMARK    8  A    between atoms: C_27  and  N_28
REMARK                            x       y       z     vdW  Elec       q    Type
REMARK                         _______ _______ _______ _____ _____    ______ ____
ROOT
ATOM      1  CA  UNL     1       8.466  -2.355   3.245  0.00  0.00    +0.193 C 
ENDROOT
BRANCH   1   4
ATOM      2  C   UNL     1       6.424  -1.603   2.148  0.00  0.00    +0.401 C 
ATOM      3  O   UNL     1       6.225  -0.862   3.091  0.00  0.00    -0.226 OA
ATOM      4  N   UNL     1       7.517  -2.391   2.129  0.00  0.00    -0.267 N 
ATOM      5  H   UNL     1       7.676  -2.982   1.376  0.00  0.00    +0.153 HD
BRANCH   2   6
ATOM      6  O   UNL     1       5.553  -1.635   1.122  0.00  0.00    -0.449 OA
BRANCH   6   7
ATOM      7  C   UNL     1       4.416  -0.773   1.209  0.00  0.00    +0.246 C 
BRANCH   7  20
ATOM      8  C   UNL     1      -0.017   1.375   0.010  0.00  0.00    +0.001 A 
ATOM      9  C   UNL     1       1.169   2.088   0.002  0.00  0.00    +0.000 A 
ATOM     10  C   UNL     1       2.380   1.420  -0.013  0.00  0.00    +0.005 A 
ATOM     11  C   UNL     1       2.408   0.042  -0.021  0.00  0.00    -0.029 A 
ATOM     12  C   UNL     1       1.221  -0.685  -0.013  0.00  0.00    -0.014 A 
ATOM     13  C   UNL     1       0.002  -0.004   0.002  0.00  0.00    +0.009 A 
ATOM     14  C   UNL     1       1.530  -2.136  -0.025  0.00  0.00    -0.014 A 
ATOM     15  C   UNL     1       0.694  -3.254  -0.023  0.00  0.00    +0.009 A 
ATOM     16  C   UNL     1       1.238  -4.521  -0.035  0.00  0.00    +0.001 A 
ATOM     17  C   UNL     1       2.611  -4.690  -0.050  0.00  0.00    +0.000 A 
ATOM     18  C   UNL     1       3.445  -3.587  -0.052  0.00  0.00    +0.005 A 
ATOM     19  C   UNL     1       2.910  -2.316  -0.040  0.00  0.00    -0.029 A 
ATOM     20  C   UNL     1       3.547  -0.948  -0.038  0.00  0.00    +0.088 C 
ENDBRANCH   7  20
ENDBRANCH   6   7
ENDBRANCH   2   6
ENDBRANCH   1   4
BRANCH   1  21
ATOM     21  C   UNL     1       7.993  -3.282   4.335  0.00  0.00    +0.376 C 
ATOM     22  O   UNL     1       7.068  -4.048   4.126  0.00  0.00    -0.244 OA
ATOM     23  OXT UNL     1       8.537  -3.267   5.426  0.00  0.00    -0.244 OA
ENDBRANCH   1  21
BRANCH   1  24
ATOM     24  C   UNL     1       9.845  -2.803   2.756  0.00  0.00    +0.071 C 
BRANCH  24  25
ATOM     25  C   UNL     1      10.370  -1.807   1.755  0.00  0.00    -0.021 A 
ATOM     26  C   UNL     1      10.181  -2.021   0.403  0.00  0.00    +0.006 A 
ATOM     27  C   UNL     1      10.662  -1.109  -0.518  0.00  0.00    +0.003 A 
ATOM     28  C   UNL     1      11.335   0.021  -0.090  0.00  0.00    +0.040 A 
ATOM     29  C   UNL     1      11.529   0.242   1.261  0.00  0.00    +0.145 A 
ATOM     30  C   UNL     1      11.040  -0.672   2.189  0.00  0.00    +0.069 A 
ATOM     31  F   UNL     1      12.186   1.345   1.679  0.00  0.00    -0.204 F 
BRANCH  30  32
ATOM     32  N   UNL     1      11.229  -0.450   3.557  0.00  0.00    -0.331 N 
ATOM     33  C   UNL     1      10.233   0.291   4.348  0.00  0.00    +0.086 C 
ATOM     34  C   UNL     1       9.893  -0.531   5.595  0.00  0.00    -0.063 C 
ATOM     35  N   UNL     1      11.129  -0.850   6.321  0.00  0.00    +0.381 N 
ATOM     36  C   UNL     1      11.983  -1.716   5.499  0.00  0.00    -0.063 C 
ATOM     37  C   UNL     1      12.425  -0.957   4.248  0.00  0.00    +0.086 C 
ATOM     38  H   UNL     1      11.622   0.004   6.534  0.00  0.00    -0.086 HD
ATOM     39  H   UNL     1      10.899  -1.326   7.181  0.00  0.00    -0.086 HD
ENDBRANCH  30  32
ENDBRANCH  24  25
ENDBRANCH   1  24
TORSDOF 8
