REMARK  Name = ZINC36493837
REMARK  13 active torsions:
REMARK  status: ('A' for Active; 'I' for Inactive)
REMARK    1  A    between atoms: C_1  and  C_2
REMARK    2  A    between atoms: C_2  and  C_3
REMARK    3  A    between atoms: C_2  and  C_4
REMARK    4  A    between atoms: C_2  and  N_5
REMARK    5  A    between atoms: C_6  and  C_8
REMARK    6  A    between atoms: C_8  and  C_10
REMARK    7  A    between atoms: C_8  and  N_17
REMARK    8  A    between atoms: C_15  and  O_16
REMARK    9  A    between atoms: N_17  and  C_18
REMARK   10  A    between atoms: C_18  and  C_19
REMARK   11  A    between atoms: C_24  and  C_26
REMARK   12  A    between atoms: C_26  and  C_34
REMARK   13  A    between atoms: C_27  and  C_28
REMARK                            x       y       z     vdW  Elec       q    Type
REMARK                         _______ _______ _______ _____ _____    ______ ____
ROOT
ATOM      1  N   UNL     1       5.146  -1.247  -2.542  0.00  0.00    -0.274 N 
ATOM      2  C   UNL     1       5.267  -2.589  -2.538  0.00  0.00    +0.248 C 
ATOM      3  O   UNL     1       6.147  -3.119  -1.888  0.00  0.00    -0.270 OA
ENDROOT
BRANCH   2   4
ATOM      4  C   UNL     1       4.332  -3.414  -3.321  0.00  0.00    +0.045 C 
ATOM      5  C   UNL     1       4.810  -4.372  -4.160  0.00  0.00    +0.021 C 
BRANCH   5   6
ATOM      6  C   UNL     1       3.897  -5.377  -4.722  0.00  0.00    -0.024 A 
ATOM      7  C   UNL     1       4.010  -5.758  -6.064  0.00  0.00    +0.008 A 
ATOM      8  C   UNL     1       3.151  -6.702  -6.584  0.00  0.00    +0.001 A 
ATOM      9  C   UNL     1       2.178  -7.273  -5.782  0.00  0.00    +0.000 A 
ATOM     10  C   UNL     1       2.059  -6.902  -4.454  0.00  0.00    +0.001 A 
ATOM     11  C   UNL     1       2.914  -5.964  -3.917  0.00  0.00    +0.008 A 
ENDBRANCH   5   6
BRANCH   4  12
ATOM     12  C   UNL     1       2.872  -3.200  -3.197  0.00  0.00    -0.013 A 
ATOM     13  C   UNL     1       2.335  -2.715  -2.004  0.00  0.00    +0.008 A 
ATOM     14  C   UNL     1       0.974  -2.518  -1.894  0.00  0.00    +0.001 A 
ATOM     15  C   UNL     1       0.142  -2.799  -2.964  0.00  0.00    +0.000 A 
ATOM     16  C   UNL     1       0.669  -3.280  -4.149  0.00  0.00    +0.001 A 
ATOM     17  C   UNL     1       2.030  -3.476  -4.273  0.00  0.00    +0.008 A 
ENDBRANCH   4  12
ENDBRANCH   2   4
BRANCH   1  18
ATOM     18  C   UNL     1       4.115  -0.606  -3.362  0.00  0.00    +0.196 C 
BRANCH  18  19
ATOM     19  C   UNL     1       4.733  -0.094  -4.637  0.00  0.00    +0.023 A 
ATOM     20  C   UNL     1       6.050   0.325  -4.648  0.00  0.00    +0.009 A 
ATOM     21  C   UNL     1       6.617   0.795  -5.817  0.00  0.00    +0.001 A 
ATOM     22  C   UNL     1       5.870   0.847  -6.979  0.00  0.00    +0.004 A 
ATOM     23  C   UNL     1       4.553   0.429  -6.974  0.00  0.00    +0.046 A 
ATOM     24  C   UNL     1       3.983  -0.048  -5.803  0.00  0.00    +0.122 A 
BRANCH  24  25
ATOM     25  O   UNL     1       2.689  -0.465  -5.796  0.00  0.00    -0.506 OA
ATOM     26  H   UNL     1       2.044   0.254  -5.758  0.00  0.00    +0.292 HD
ENDBRANCH  24  25
ENDBRANCH  18  19
BRANCH  18  28
ATOM     27  N   UNL     1       2.223   0.886  -2.803  0.00  0.00    -0.309 N 
ATOM     28  C   UNL     1       3.511   0.545  -2.599  0.00  0.00    +0.239 C 
ATOM     29  O   UNL     1       4.183   1.164  -1.802  0.00  0.00    -0.273 OA
ATOM     30  H   UNL     1       1.692   0.407  -3.458  0.00  0.00    +0.149 HD
BRANCH  27  32
ATOM     31  C   UNL     1       2.397   3.274  -2.305  0.00  0.00    +0.031 C 
ATOM     32  C   UNL     1       1.625   1.981  -2.035  0.00  0.00    +0.026 C 
ATOM     33  C   UNL     1       1.688   1.651  -0.543  0.00  0.00    +0.031 C 
ATOM     34  C   UNL     1       0.165   2.161  -2.457  0.00  0.00    +0.031 C 
ENDBRANCH  27  32
ENDBRANCH  18  28
ENDBRANCH   1  18
BRANCH   1  35
ATOM     35  C   UNL     1       6.047  -0.428  -1.726  0.00  0.00    +0.183 C 
BRANCH  35  36
ATOM     36  C   UNL     1       5.567  -0.424  -0.298  0.00  0.00    +0.122 A 
ATOM     37  C   UNL     1       6.011  -1.229   0.684  0.00  0.00    +0.046 A 
ATOM     38  C   UNL     1       5.293  -0.886   1.852  0.00  0.00    +0.041 A 
ATOM     39  C   UNL     1       4.452   0.108   1.514  0.00  0.00    +0.195 A 
ATOM     40  O   UNL     1       4.627   0.388   0.212  0.00  0.00    -0.466 OA
ENDBRANCH  35  36
ENDBRANCH   1  35
TORSDOF 10
