REMARK  Name = ZINC05905728
REMARK  3 active torsions:
REMARK  status: ('A' for Active; 'I' for Inactive)
REMARK    1  A    between atoms: C_6  and  C_11
REMARK    2  A    between atoms: N_13  and  N_14
REMARK    3  A    between atoms: C_15  and  C_17
REMARK                            x       y       z     vdW  Elec       q    Type
REMARK                         _______ _______ _______ _____ _____    ______ ____
ROOT
ATOM      1  C   UNL     1      -1.658   5.108   2.846  0.00  0.00    +0.260 C 
ATOM      2  O   UNL     1      -1.214   5.908   2.046  0.00  0.00    -0.269 OA
ATOM      3  N   UNL     1      -1.519   3.786   2.625  0.00  0.00    -0.230 N 
ATOM      4  H   UNL     1      -1.873   3.147   3.263  0.00  0.00    +0.173 HD
ENDROOT
BRANCH   1  10
ATOM      5  C   UNL     1      -4.455   8.229   7.739  0.00  0.00    +0.001 A 
ATOM      6  C   UNL     1      -3.953   9.161   6.833  0.00  0.00    +0.001 A 
ATOM      7  C   UNL     1      -3.310   8.762   5.702  0.00  0.00    +0.008 A 
ATOM      8  C   UNL     1      -3.147   7.390   5.441  0.00  0.00    -0.017 A 
ATOM      9  C   UNL     1      -2.490   6.944   4.285  0.00  0.00    +0.021 A 
ATOM     10  C   UNL     1      -2.350   5.584   4.062  0.00  0.00    +0.039 A 
ATOM     11  C   UNL     1      -2.866   4.654   4.982  0.00  0.00    +0.014 A 
ATOM     12  C   UNL     1      -3.500   5.066   6.108  0.00  0.00    +0.009 A 
ATOM     13  C   UNL     1      -3.658   6.441   6.363  0.00  0.00    -0.018 A 
ATOM     14  C   UNL     1      -4.317   6.892   7.519  0.00  0.00    +0.008 A 
ENDBRANCH   1  10
BRANCH   3  15
ATOM     15  N   UNL     1      -0.863   3.334   1.472  0.00  0.00    -0.234 N 
ATOM     16  C   UNL     1      -0.724   2.012   1.250  0.00  0.00    +0.235 C 
ATOM     17  O   UNL     1      -1.167   1.213   2.049  0.00  0.00    -0.274 OA
ATOM     18  H   UNL     1      -0.509   3.973   0.834  0.00  0.00    +0.173 HD
BRANCH  16  19
ATOM     19  C   UNL     1      -0.019   1.526   0.010  0.00  0.00    +0.049 C 
ATOM     20  C   UNL     1       1.417   2.055  -0.000  0.00  0.00    +0.019 C 
ATOM     21  C   UNL     1       2.133   1.562  -1.259  0.00  0.00    -0.009 C 
ATOM     22  C   UNL     1       2.154   0.032  -1.268  0.00  0.00    +0.007 C 
ATOM     23  C   UNL     1       0.718  -0.497  -1.257  0.00  0.00    -0.009 C 
ATOM     24  C   UNL     1       0.002  -0.004   0.002  0.00  0.00    +0.019 C 
ATOM     25  C   UNL     1      -0.022   0.009  -2.496  0.00  0.00    +0.007 C 
ATOM     26  C   UNL     1      -0.043   1.539  -2.488  0.00  0.00    -0.009 C 
ATOM     27  C   UNL     1       1.393   2.069  -2.499  0.00  0.00    +0.007 C 
ATOM     28  C   UNL     1      -0.759   2.033  -1.229  0.00  0.00    +0.019 C 
ENDBRANCH  16  19
ENDBRANCH   3  15
TORSDOF 3
