REMARK  Name = ZINC13388262
REMARK  8 active torsions:
REMARK  status: ('A' for Active; 'I' for Inactive)
REMARK    1  A    between atoms: C_1  and  C_2
REMARK    2  A    between atoms: C_8  and  N_10
REMARK    3  A    between atoms: N_10  and  C_11
REMARK    4  A    between atoms: N_16  and  C_19
REMARK    5  A    between atoms: C_22  and  N_25
REMARK    6  A    between atoms: C_29  and  N_33
REMARK    7  A    between atoms: N_33  and  C_34
REMARK    8  A    between atoms: C_40  and  C_42
REMARK                            x       y       z     vdW  Elec       q    Type
REMARK                         _______ _______ _______ _____ _____    ______ ____
ROOT
ATOM      1  C   UNL     1      -0.633  -3.695   5.164  0.00  0.00    +0.044 A 
ATOM      2  C   UNL     1      -0.455  -4.734   4.261  0.00  0.00    +0.026 A 
ATOM      3  C   UNL     1      -0.838  -6.017   4.599  0.00  0.00    +0.026 A 
ATOM      4  C   UNL     1      -1.400  -6.268   5.844  0.00  0.00    +0.044 A 
ATOM      5  C   UNL     1      -1.576  -5.229   6.748  0.00  0.00    +0.026 A 
ATOM      6  C   UNL     1      -1.190  -3.947   6.411  0.00  0.00    +0.026 A 
ENDROOT
BRANCH   1  11
ATOM      7  C   UNL     1      -0.200  -0.323   3.757  0.00  0.00    +0.026 C 
ATOM      8  C   UNL     1       0.929  -0.383   4.806  0.00  0.00    +0.090 C 
ATOM      9  C   UNL     1       0.781  -1.763   5.408  0.00  0.00    +0.225 C 
ATOM     10  O   UNL     1       1.479  -2.225   6.285  0.00  0.00    -0.275 OA
ATOM     11  N   UNL     1      -0.244  -2.392   4.820  0.00  0.00    -0.212 N 
ATOM     12  C   UNL     1      -0.868  -1.675   3.873  0.00  0.00    +0.213 C 
ATOM     13  O   UNL     1      -1.816  -2.049   3.215  0.00  0.00    -0.277 OA
BRANCH   7  14
ATOM     14  N   UNL     1      -1.148   0.752   4.079  0.00  0.00    +0.389 N 
ATOM     15  H   UNL     1      -0.655   1.630   4.134  0.00  0.00    -0.084 HD
ATOM     16  H   UNL     1      -1.589   0.557   4.965  0.00  0.00    -0.084 HD
BRANCH  14  23
ATOM     17  C   UNL     1      -2.567   3.232   3.595  0.00  0.00    +0.006 C 
ATOM     18  C   UNL     1      -3.230   1.864   3.425  0.00  0.00    -0.028 C 
ATOM     19  C   UNL     1      -4.297   1.946   2.332  0.00  0.00    +0.002 C 
ATOM     20  C   UNL     1      -3.645   2.364   1.013  0.00  0.00    +0.000 C 
ATOM     21  C   UNL     1      -2.588   1.331   0.617  0.00  0.00    -0.002 C 
ATOM     22  C   UNL     1      -1.521   1.249   1.710  0.00  0.00    -0.015 C 
ATOM     23  C   UNL     1      -2.173   0.831   3.029  0.00  0.00    -0.068 C 
ENDBRANCH  14  23
ENDBRANCH   7  14
ENDBRANCH   1  11
BRANCH   4  24
ATOM     24  N   UNL     1      -1.789  -7.571   6.188  0.00  0.00    -0.212 N 
ATOM     25  C   UNL     1      -3.070  -7.926   6.345  0.00  0.00    +0.225 C 
ATOM     26  O   UNL     1      -4.024  -7.190   6.215  0.00  0.00    -0.275 OA
ATOM     27  C   UNL     1      -3.139  -9.393   6.712  0.00  0.00    +0.090 C 
ATOM     28  C   UNL     1      -1.659  -9.828   6.739  0.00  0.00    +0.026 C 
ATOM     29  C   UNL     1      -0.911  -8.563   6.379  0.00  0.00    +0.213 C 
ATOM     30  O   UNL     1       0.293  -8.463   6.283  0.00  0.00    -0.277 OA
BRANCH  28  31
ATOM     31  N   UNL     1      -1.410 -10.876   5.740  0.00  0.00    +0.389 N 
ATOM     32  H   UNL     1      -2.048 -11.643   5.892  0.00  0.00    -0.084 HD
ATOM     33  H   UNL     1      -1.551 -10.499   4.815  0.00  0.00    -0.084 HD
BRANCH  31  34
ATOM     34  C   UNL     1      -0.028 -11.355   5.868  0.00  0.00    -0.068 C 
ATOM     35  C   UNL     1       0.152 -12.039   7.226  0.00  0.00    -0.015 C 
ATOM     36  C   UNL     1       1.592 -12.538   7.359  0.00  0.00    -0.002 C 
ATOM     37  C   UNL     1       1.890 -13.539   6.240  0.00  0.00    +0.000 C 
ATOM     38  C   UNL     1       1.710 -12.856   4.883  0.00  0.00    +0.002 C 
ATOM     39  C   UNL     1       0.270 -12.356   4.750  0.00  0.00    -0.028 C 
ATOM     40  C   UNL     1       0.091 -11.673   3.393  0.00  0.00    +0.006 C 
ENDBRANCH  31  34
ENDBRANCH  28  31
ENDBRANCH   4  24
TORSDOF 6
