REMARK  Name = ZINC21076306
REMARK  12 active torsions:
REMARK  status: ('A' for Active; 'I' for Inactive)
REMARK    1  A    between atoms: C_1  and  C_2
REMARK    2  A    between atoms: C_2  and  N_3
REMARK    3  A    between atoms: N_3  and  C_4
REMARK    4  A    between atoms: N_3  and  C_6
REMARK    5  A    between atoms: C_4  and  C_5
REMARK    6  A    between atoms: C_9  and  C_12
REMARK    7  A    between atoms: N_13  and  N_14
REMARK    8  A    between atoms: C_17  and  S_20
REMARK    9  A    between atoms: S_20  and  C_21
REMARK   10  A    between atoms: C_21  and  C_22
REMARK   11  A    between atoms: C_22  and  C_23
REMARK   12  A    between atoms: N_25  and  C_26
REMARK                            x       y       z     vdW  Elec       q    Type
REMARK                         _______ _______ _______ _____ _____    ______ ____
ROOT
ATOM      1  N   UNL     1       1.688   3.127   0.009  0.00  0.00    -0.205 N 
ATOM      2  C   UNL     1       1.277   1.802   0.004  0.00  0.00    +0.232 A 
ATOM      3  N   UNL     1      -0.017   1.362   0.022  0.00  0.00    -0.186 NA
ATOM      4  C   UNL     1       0.002  -0.004   0.009  0.00  0.00    +0.210 A 
ATOM      5  N   UNL     1       1.254  -0.392  -0.014  0.00  0.00    -0.144 NA
ATOM      6  N   UNL     1       2.062   0.752  -0.017  0.00  0.00    -0.245 N 
ATOM      7  H   UNL     1       0.941   3.935   0.029  0.00  0.00    +0.177 HD
ATOM      8  H   UNL     1       3.154   0.882  -0.034  0.00  0.00    +0.192 HD
ENDROOT
BRANCH   1  10
ATOM      9  C   UNL     1       3.438   4.678  -0.005  0.00  0.00    +0.138 C 
ATOM     10  N   UNL     1       3.054   3.438  -0.010  0.00  0.00    -0.188 NA
BRANCH   9  14
ATOM     11  C   UNL     1       7.578   5.618  -0.063  0.00  0.00    +0.030 A 
ATOM     12  C   UNL     1       6.635   6.640  -0.039  0.00  0.00    +0.024 A 
ATOM     13  C   UNL     1       5.291   6.339  -0.021  0.00  0.00    +0.011 A 
ATOM     14  C   UNL     1       4.875   5.005  -0.026  0.00  0.00    -0.005 A 
ATOM     15  C   UNL     1       5.826   3.980  -0.044  0.00  0.00    +0.011 A 
ATOM     16  C   UNL     1       7.169   4.289  -0.068  0.00  0.00    +0.024 A 
BRANCH  11  17
ATOM     17  N   UNL     1       8.939   5.927  -0.082  0.00  0.00    -0.330 N 
BRANCH  17  19
ATOM     18  C   UNL     1      10.258   4.491  -1.558  0.00  0.00    +0.024 C 
ATOM     19  C   UNL     1       9.934   4.852  -0.107  0.00  0.00    +0.102 C 
ENDBRANCH  17  19
BRANCH  17  20
ATOM     20  C   UNL     1       9.373   7.327  -0.076  0.00  0.00    +0.102 C 
ATOM     21  C   UNL     1       9.546   7.801   1.368  0.00  0.00    +0.024 C 
ENDBRANCH  17  20
ENDBRANCH  11  17
ENDBRANCH   9  14
ENDBRANCH   1  10
BRANCH   4  22
ATOM     22  S   UNL     1      -1.410  -1.059   0.023  0.00  0.00    -0.084 S 
BRANCH  22  23
ATOM     23  C   UNL     1      -0.707  -2.731  -0.003  0.00  0.00    +0.086 C 
BRANCH  23  24
ATOM     24  C   UNL     1      -1.840  -3.760   0.006  0.00  0.00    +0.107 C 
BRANCH  24  25
ATOM     25  C   UNL     1      -1.256  -5.149  -0.015  0.00  0.00    +0.218 C 
ATOM     26  O   UNL     1      -0.053  -5.302  -0.036  0.00  0.00    -0.275 OA
ATOM     27  N   UNL     1      -2.071  -6.223  -0.012  0.00  0.00    -0.285 N 
ATOM     28  H   UNL     1      -3.159  -6.087   0.084  0.00  0.00    +0.155 HD
BRANCH  27  29
ATOM     29  C   UNL     1      -1.534  -7.510  -0.129  0.00  0.00    +0.033 A 
ATOM     30  C   UNL     1      -2.230  -8.494  -0.819  0.00  0.00    +0.024 A 
ATOM     31  C   UNL     1      -1.696  -9.761  -0.939  0.00  0.00    +0.017 A 
ATOM     32  C   UNL     1      -0.473 -10.055  -0.361  0.00  0.00    +0.018 A 
ATOM     33  C   UNL     1       0.220  -9.078   0.332  0.00  0.00    +0.017 A 
ATOM     34  C   UNL     1      -0.307  -7.807   0.449  0.00  0.00    +0.024 A 
ATOM     35 BR   UNL     1       0.253 -11.794  -0.521  0.00  0.00    -0.050 Br
ENDBRANCH  27  29
ENDBRANCH  24  25
ENDBRANCH  23  24
ENDBRANCH  22  23
ENDBRANCH   4  22
TORSDOF 10
