REMARK  Name = ZINC09614855
REMARK  5 active torsions:
REMARK  status: ('A' for Active; 'I' for Inactive)
REMARK    1  A    between atoms: C_1  and  C_2
REMARK    2  A    between atoms: C_3  and  C_21
REMARK    3  A    between atoms: C_5  and  S_7
REMARK    4  A    between atoms: S_7  and  C_8
REMARK    5  A    between atoms: C_8  and  C_9
REMARK                            x       y       z     vdW  Elec       q    Type
REMARK                         _______ _______ _______ _____ _____    ______ ____
ROOT
ATOM      1  C   UNL     1       0.074  -3.896   4.416  0.00  0.00    +0.222 C 
ATOM      2  N   UNL     1       0.093  -5.103   3.991  0.00  0.00    -0.145 NA
ATOM      3  N   UNL     1       0.175  -6.210   4.824  0.00  0.00    -0.200 N 
ATOM      4  C   UNL     1      -0.468  -6.352   5.982  0.00  0.00    +0.267 C 
ATOM      5  O   UNL     1      -0.326  -7.395   6.590  0.00  0.00    -0.268 OA
ATOM      6  C   UNL     1      -1.340  -5.321   6.568  0.00  0.00    +0.081 A 
ATOM      7  C   UNL     1      -2.505  -5.693   7.244  0.00  0.00    +0.017 A 
ATOM      8  C   UNL     1      -3.306  -4.728   7.817  0.00  0.00    +0.001 A 
ATOM      9  C   UNL     1      -2.959  -3.390   7.729  0.00  0.00    +0.004 A 
ATOM     10  C   UNL     1      -1.815  -3.009   7.053  0.00  0.00    +0.047 A 
ATOM     11  C   UNL     1      -1.009  -3.966   6.459  0.00  0.00    +0.142 A 
ATOM     12  O   UNL     1       0.076  -3.586   5.731  0.00  0.00    -0.439 OA
ATOM     13  H   UNL     1       0.746  -6.940   4.539  0.00  0.00    +0.178 HD
ENDROOT
BRANCH   1  14
ATOM     14  C   UNL     1       0.055  -2.775   3.409  0.00  0.00    +0.176 C 
BRANCH  14  15
ATOM     15  S   UNL     1       0.056  -3.469   1.732  0.00  0.00    -0.058 S 
BRANCH  15  20
ATOM     16  C   UNL     1      -0.018   1.503   0.010  0.00  0.00    +0.069 C 
ATOM     17  C   UNL     1       0.002  -0.004   0.002  0.00  0.00    +0.080 A 
ATOM     18  C   UNL     1       0.008  -0.788  -1.086  0.00  0.00    +0.126 A 
ATOM     19  O   UNL     1       0.027  -2.069  -0.657  0.00  0.00    -0.436 OA
ATOM     20  C   UNL     1       0.033  -2.052   0.685  0.00  0.00    +0.258 A 
ATOM     21  N   UNL     1       0.024  -0.803   1.086  0.00  0.00    -0.208 NA
ATOM     22  C   UNL     1      -0.005  -0.326  -2.520  0.00  0.00    +0.088 C 
ENDBRANCH  15  20
ENDBRANCH  14  15
ENDBRANCH   1  14
TORSDOF 3
