REMARK  Name = ZINC12497251
REMARK  8 active torsions:
REMARK  status: ('A' for Active; 'I' for Inactive)
REMARK    1  A    between atoms: C_1  and  C_2
REMARK    2  A    between atoms: C_5  and  N_8
REMARK    3  A    between atoms: C_13  and  C_25
REMARK    4  A    between atoms: C_15  and  C_20
REMARK    5  A    between atoms: C_15  and  C_21
REMARK    6  A    between atoms: C_21  and  O_23
REMARK    7  A    between atoms: O_23  and  C_24
REMARK    8  A    between atoms: C_28  and  O_31
REMARK                            x       y       z     vdW  Elec       q    Type
REMARK                         _______ _______ _______ _____ _____    ______ ____
ROOT
ATOM      1  N   UNL     1       1.121   2.129  -0.030  0.00  0.00    -0.210 N 
ATOM      2  C   UNL     1       0.066   1.252  -0.014  0.00  0.00    +0.229 C 
ATOM      3  O   UNL     1       0.112   0.040  -0.022  0.00  0.00    -0.275 OA
ATOM      4  C   UNL     1      -1.125   2.098   0.009  0.00  0.00    +0.077 C 
ATOM      5  C   UNL     1      -2.516   1.925  -0.475  0.00  0.00    -0.027 C 
ATOM      6  C   UNL     1      -1.784   4.224  -0.675  0.00  0.00    +0.041 C 
ATOM      7  C   UNL     1      -0.624   3.283  -0.902  0.00  0.00    +0.086 C 
ATOM      8  C   UNL     1       0.736   3.409  -0.332  0.00  0.00    +0.229 C 
ATOM      9  O   UNL     1       1.373   4.427  -0.168  0.00  0.00    -0.275 OA
ATOM     10  C   UNL     1      -1.724   4.832   0.727  0.00  0.00    +0.002 C 
ATOM     11  N   UNL     1      -2.957   3.309  -0.813  0.00  0.00    +0.395 N 
ATOM     12  H   UNL     1      -3.703   3.603  -0.171  0.00  0.00    -0.083 HD
ATOM     13  H   UNL     1      -3.307   3.336  -1.778  0.00  0.00    -0.083 HD
ENDROOT
BRANCH   1  18
ATOM     14  C   UNL     1       6.488   0.623   1.040  0.00  0.00    +0.044 C 
ATOM     15  C   UNL     1       5.063   1.023   0.755  0.00  0.00    -0.050 A 
ATOM     16  C   UNL     1       4.059   0.073   0.793  0.00  0.00    +0.005 A 
ATOM     17  C   UNL     1       2.752   0.436   0.533  0.00  0.00    +0.024 A 
ATOM     18  C   UNL     1       2.447   1.757   0.234  0.00  0.00    +0.044 A 
ATOM     19  C   UNL     1       3.458   2.708   0.191  0.00  0.00    +0.024 A 
ATOM     20  C   UNL     1       4.762   2.339   0.457  0.00  0.00    +0.005 A 
ENDBRANCH   1  18
BRANCH   5  21
ATOM     21  C   UNL     1      -2.537   1.049  -1.700  0.00  0.00    -0.060 A 
ATOM     22  C   UNL     1      -2.154   1.565  -2.925  0.00  0.00    +0.005 A 
ATOM     23  C   UNL     1      -2.167   0.762  -4.049  0.00  0.00    +0.045 A 
ATOM     24  C   UNL     1      -2.575  -0.560  -3.950  0.00  0.00    +0.117 A 
ATOM     25  C   UNL     1      -2.964  -1.074  -2.722  0.00  0.00    +0.045 A 
ATOM     26  C   UNL     1      -2.944  -0.269  -1.600  0.00  0.00    +0.005 A 
BRANCH  24  27
ATOM     27  O   UNL     1      -2.594  -1.351  -5.056  0.00  0.00    -0.507 OA
ATOM     28  H   UNL     1      -3.433  -1.334  -5.537  0.00  0.00    +0.292 HD
ENDBRANCH  24  27
ENDBRANCH   5  21
BRANCH   6  29
ATOM     29  C   UNL     1      -1.810   5.304  -1.725  0.00  0.00    +0.296 C 
ATOM     30  O   UNL     1      -0.791   5.619  -2.294  0.00  0.00    -0.252 OA
BRANCH  29  31
ATOM     31  O   UNL     1      -2.964   5.918  -2.028  0.00  0.00    -0.469 OA
ATOM     32  C   UNL     1      -2.914   6.949  -3.049  0.00  0.00    +0.280 C 
ENDBRANCH  29  31
ENDBRANCH   6  29
TORSDOF 5
