REMARK  Name = ZINC09310497
REMARK  9 active torsions:
REMARK  status: ('A' for Active; 'I' for Inactive)
REMARK    1  A    between atoms: C_1  and  C_2
REMARK    2  A    between atoms: C_3  and  C_31
REMARK    3  A    between atoms: C_4  and  C_24
REMARK    4  A    between atoms: C_10  and  C_11
REMARK    5  A    between atoms: C_14  and  O_17
REMARK    6  A    between atoms: O_17  and  C_18
REMARK    7  A    between atoms: C_18  and  C_20
REMARK    8  A    between atoms: C_31  and  O_33
REMARK    9  A    between atoms: O_33  and  C_34
REMARK                            x       y       z     vdW  Elec       q    Type
REMARK                         _______ _______ _______ _____ _____    ______ ____
ROOT
ATOM      1  C   UNL     1      -4.497   2.659  -3.227  0.00  0.00    +0.066 C 
ATOM      2  C   UNL     1      -3.981   2.601  -1.812  0.00  0.00    +0.053 C 
ATOM      3  C   UNL     1      -2.646   2.756  -1.571  0.00  0.00    +0.085 C 
ATOM      4  C   UNL     1      -2.168   2.692  -0.139  0.00  0.00    +0.162 C 
ATOM      5  N   UNL     1      -3.200   2.461   0.911  0.00  0.00    -0.275 N 
ATOM      6  C   UNL     1      -2.975   2.374   2.229  0.00  0.00    +0.268 A 
ATOM      7  O   UNL     1      -1.851   2.484   2.682  0.00  0.00    -0.266 OA
ATOM      8  C   UNL     1      -4.128   2.142   3.111  0.00  0.00    +0.081 A 
ATOM      9  C   UNL     1      -4.168   2.017   4.463  0.00  0.00    +0.028 C 
ATOM     10  S   UNL     1      -5.460   2.070   1.924  0.00  0.00    -0.046 S 
ATOM     11  C   UNL     1      -4.490   2.331   0.452  0.00  0.00    +0.178 A 
ATOM     12  N   UNL     1      -4.829   2.398  -0.811  0.00  0.00    -0.228 NA
ENDROOT
BRANCH   4  13
ATOM     13  C   UNL     1      -1.149   1.587  -0.038  0.00  0.00    -0.020 A 
ATOM     14  C   UNL     1      -1.564   0.278   0.129  0.00  0.00    +0.007 A 
ATOM     15  C   UNL     1      -0.629  -0.736   0.225  0.00  0.00    +0.020 A 
ATOM     16  C   UNL     1       0.720  -0.442   0.144  0.00  0.00    +0.041 A 
ATOM     17  C   UNL     1       1.134   0.867  -0.028  0.00  0.00    +0.020 A 
ATOM     18  C   UNL     1       0.199   1.880  -0.119  0.00  0.00    +0.007 A 
ATOM     19 CL   UNL     1       1.894  -1.716   0.258  0.00  0.00    -0.084 Cl
ENDBRANCH   4  13
BRANCH   9  20
ATOM     20  C   UNL     1      -2.967   2.290   5.262  0.00  0.00    -0.024 A 
ATOM     21  C   UNL     1      -2.629   1.452   6.331  0.00  0.00    +0.011 A 
ATOM     22  C   UNL     1      -1.498   1.709   7.073  0.00  0.00    +0.047 A 
ATOM     23  C   UNL     1      -0.700   2.807   6.771  0.00  0.00    +0.132 A 
ATOM     24  C   UNL     1      -1.034   3.645   5.714  0.00  0.00    +0.047 A 
ATOM     25  C   UNL     1      -2.159   3.394   4.961  0.00  0.00    +0.011 A 
BRANCH  23  26
ATOM     26  O   UNL     1       0.411   3.060   7.510  0.00  0.00    -0.426 OA
BRANCH  26  27
ATOM     27  C   UNL     1       0.328   4.047   8.416  0.00  0.00    +0.309 C 
ATOM     28  O   UNL     1      -0.671   4.723   8.484  0.00  0.00    -0.251 OA
ATOM     29  C   UNL     1       1.482   4.312   9.348  0.00  0.00    +0.136 C 
ENDBRANCH  26  27
ENDBRANCH  23  26
ENDBRANCH   9  20
BRANCH   3  30
ATOM     30  C   UNL     1      -1.742   2.970  -2.625  0.00  0.00    +0.339 C 
ATOM     31  O   UNL     1      -2.146   3.018  -3.773  0.00  0.00    -0.245 OA
BRANCH  30  32
ATOM     32  O   UNL     1      -0.425   3.122  -2.365  0.00  0.00    -0.465 OA
ATOM     33  C   UNL     1       0.436   3.336  -3.485  0.00  0.00    +0.280 C 
ENDBRANCH  30  32
ENDBRANCH   3  30
TORSDOF 6
