REMARK  Name = ZINC57733841
REMARK  3 active torsions:
REMARK  status: ('A' for Active; 'I' for Inactive)
REMARK    1  A    between atoms: C_3  and  S_8
REMARK    2  A    between atoms: S_8  and  N_11
REMARK    3  A    between atoms: N_11  and  C_12
REMARK                            x       y       z     vdW  Elec       q    Type
REMARK                         _______ _______ _______ _____ _____    ______ ____
ROOT
ATOM      1  C   UNL     1       5.486   3.245   1.855  0.00  0.00    +0.202 A 
ATOM      2  N   UNL     1       6.359   3.781   1.035  0.00  0.00    -0.219 NA
ATOM      3  C   UNL     1       7.461   4.433   1.473  0.00  0.00    +0.118 A 
ATOM      4  C   UNL     1       7.615   4.501   2.875  0.00  0.00    +0.047 A 
ATOM      5  S   UNL     1       6.175   3.638   3.457  0.00  0.00    -0.049 S 
ATOM      6  C   UNL     1       8.679   5.128   3.475  0.00  0.00    +0.058 A 
ATOM      7  C   UNL     1       9.653   5.725   2.692  0.00  0.00    +0.162 A 
ATOM      8  C   UNL     1       9.535   5.678   1.308  0.00  0.00    +0.196 A 
ATOM      9  C   UNL     1       8.473   5.052   0.701  0.00  0.00    +0.188 A 
ATOM     10  F   UNL     1       8.394   5.028  -0.648  0.00  0.00    -0.200 F 
ATOM     11  F   UNL     1      10.485   6.260   0.544  0.00  0.00    -0.199 F 
ATOM     12  F   UNL     1      10.706   6.346   3.268  0.00  0.00    -0.202 F 
ENDROOT
BRANCH   1  13
ATOM     13  N   UNL     1       4.326   2.557   1.556  0.00  0.00    -0.070 NA
BRANCH  13  14
ATOM     14  S   UNL     1       3.891   2.315  -0.023  0.00  0.00    +0.093 S 
ATOM     15  O   UNL     1       4.872   1.456  -0.588  0.00  0.00    -0.148 OA
ATOM     16  O   UNL     1       3.597   3.595  -0.564  0.00  0.00    -0.148 OA
BRANCH  14  19
ATOM     17  C   UNL     1      -0.017   1.380   0.010  0.00  0.00    +0.040 A 
ATOM     18  C   UNL     1       1.171   2.087   0.002  0.00  0.00    +0.031 A 
ATOM     19  C   UNL     1       2.377   1.412  -0.013  0.00  0.00    +0.111 A 
ATOM     20  C   UNL     1       2.397   0.030  -0.021  0.00  0.00    +0.031 A 
ATOM     21  C   UNL     1       1.211  -0.679  -0.014  0.00  0.00    +0.040 A 
ATOM     22  C   UNL     1       0.002  -0.004   0.002  0.00  0.00    +0.124 A 
ATOM     23  F   UNL     1      -1.158  -0.696   0.009  0.00  0.00    -0.205 F 
ENDBRANCH  14  19
ENDBRANCH  13  14
ENDBRANCH   1  13
TORSDOF 3
