REMARK  Name = ZINC12759561
REMARK  9 active torsions:
REMARK  status: ('A' for Active; 'I' for Inactive)
REMARK    1  A    between atoms: C_1  and  C_2
REMARK    2  A    between atoms: C_2  and  C_3
REMARK    3  A    between atoms: C_3  and  C_4
REMARK    4  A    between atoms: C_4  and  N_5
REMARK    5  A    between atoms: C_6  and  N_33
REMARK    6  A    between atoms: C_7  and  N_14
REMARK    7  A    between atoms: N_14  and  C_15
REMARK    8  A    between atoms: C_20  and  C_22
REMARK    9  A    between atoms: C_22  and  C_23
REMARK                            x       y       z     vdW  Elec       q    Type
REMARK                         _______ _______ _______ _____ _____    ______ ____
ROOT
ATOM      1  N   UNL     1      -2.334   7.258  -1.563  0.00  0.00    -0.261 N 
ATOM      2  C   UNL     1      -2.106   5.939  -1.397  0.00  0.00    +0.225 C 
ATOM      3  O   UNL     1      -2.168   5.447  -0.290  0.00  0.00    -0.275 OA
ENDROOT
BRANCH   1   6
ATOM      4  N   UNL     1      -1.425   9.233  -4.525  0.00  0.00    -0.280 N 
ATOM      5  C   UNL     1      -1.383   8.713  -3.252  0.00  0.00    +0.127 A 
ATOM      6  C   UNL     1      -2.353   7.814  -2.860  0.00  0.00    +0.140 A 
ATOM      7  C   UNL     1      -3.365   7.465  -3.774  0.00  0.00    +0.277 A 
ATOM      8  O   UNL     1      -4.238   6.677  -3.451  0.00  0.00    -0.266 OA
ATOM      9  N   UNL     1      -3.364   8.008  -5.007  0.00  0.00    -0.273 N 
ATOM     10  H   UNL     1      -4.082   7.761  -5.657  0.00  0.00    +0.173 HD
ATOM     11  C   UNL     1      -2.406   8.878  -5.374  0.00  0.00    +0.331 A 
ATOM     12  O   UNL     1      -2.428   9.353  -6.493  0.00  0.00    -0.246 OA
BRANCH   5  13
ATOM     13  N   UNL     1      -0.383   9.080  -2.384  0.00  0.00    -0.343 N 
ATOM     14  H   UNL     1      -0.298   8.635  -1.526  0.00  0.00    +0.144 HD
ATOM     15  H   UNL     1       0.238   9.784  -2.629  0.00  0.00    +0.144 HD
ENDBRANCH   5  13
BRANCH   4  16
ATOM     16  C   UNL     1      -0.397  10.184  -4.957  0.00  0.00    +0.128 C 
BRANCH  16  17
ATOM     17  C   UNL     1      -0.850  11.608  -4.628  0.00  0.00    +0.021 C 
BRANCH  17  19
ATOM     18  C   UNL     1      -0.229  14.025  -4.750  0.00  0.00    +0.004 C 
ATOM     19  C   UNL     1       0.223  12.601  -5.079  0.00  0.00    -0.002 C 
ENDBRANCH  17  19
ENDBRANCH  16  17
ENDBRANCH   4  16
ENDBRANCH   1   6
BRANCH   1  20
ATOM     20  C   UNL     1      -2.564   8.114  -0.396  0.00  0.00    +0.082 C 
ATOM     21  C   UNL     1      -1.361   8.029   0.566  0.00  0.00    +0.023 C 
ATOM     22  C   UNL     1      -1.999   8.084   1.977  0.00  0.00    +0.002 C 
ATOM     23  C   UNL     1      -3.292   7.249   1.800  0.00  0.00    +0.002 C 
ATOM     24  C   UNL     1      -3.791   7.619   0.388  0.00  0.00    +0.023 C 
ENDBRANCH   1  20
BRANCH   2  25
ATOM     25  C   UNL     1      -1.773   5.077  -2.588  0.00  0.00    +0.132 C 
BRANCH  25  26
ATOM     26  C   UNL     1      -1.460   3.678  -2.123  0.00  0.00    -0.031 A 
ATOM     27  C   UNL     1      -0.171   3.302  -1.901  0.00  0.00    +0.005 A 
ATOM     28  C   UNL     1       0.137   2.013  -1.472  0.00  0.00    +0.001 A 
ATOM     29  C   UNL     1      -0.843   1.091  -1.261  0.00  0.00    +0.008 A 
ATOM     30  C   UNL     1      -2.186   1.444  -1.474  0.00  0.00    -0.018 A 
ATOM     31  C   UNL     1      -2.499   2.754  -1.916  0.00  0.00    -0.014 A 
ATOM     32  C   UNL     1      -3.842   3.105  -2.134  0.00  0.00    +0.009 A 
ATOM     33  C   UNL     1      -4.822   2.184  -1.924  0.00  0.00    +0.001 A 
ATOM     34  C   UNL     1      -4.514   0.894  -1.494  0.00  0.00    +0.001 A 
ATOM     35  C   UNL     1      -3.225   0.519  -1.272  0.00  0.00    +0.008 A 
ENDBRANCH  25  26
ENDBRANCH   2  25
TORSDOF 8
