REMARK  Name = ZINC08854920
REMARK  10 active torsions:
REMARK  status: ('A' for Active; 'I' for Inactive)
REMARK    1  A    between atoms: C_1  and  C_2
REMARK    2  A    between atoms: C_9  and  N_13
REMARK    3  A    between atoms: C_10  and  C_11
REMARK    4  A    between atoms: N_13  and  C_14
REMARK    5  A    between atoms: C_14  and  C_15
REMARK    6  A    between atoms: C_14  and  C_19
REMARK    7  A    between atoms: C_14  and  N_23
REMARK    8  A    between atoms: C_15  and  O_17
REMARK    9  A    between atoms: O_17  and  C_18
REMARK   10  A    between atoms: C_24  and  C_26
REMARK                            x       y       z     vdW  Elec       q    Type
REMARK                         _______ _______ _______ _____ _____    ______ ____
ROOT
ATOM      1  C   UNL     1       2.314  -6.212  -3.110  0.00  0.00    +0.296 C 
ENDROOT
BRANCH   1   2
ATOM      2  C   UNL     1       3.602  -5.447  -3.422  0.00  0.00    +0.438 C 
ATOM      3  F   UNL     1       4.543  -5.687  -2.414  0.00  0.00    -0.166 F 
ATOM      4  F   UNL     1       4.114  -5.878  -4.650  0.00  0.00    -0.166 F 
ATOM      5  F   UNL     1       3.327  -4.077  -3.486  0.00  0.00    -0.166 F 
ENDBRANCH   1   2
BRANCH   1   6
ATOM      6  N   UNL     1       2.575  -7.652  -3.167  0.00  0.00    -0.274 N 
ATOM      7  C   UNL     1       3.244  -8.256  -2.164  0.00  0.00    +0.246 C 
ATOM      8  O   UNL     1       3.543  -7.627  -1.168  0.00  0.00    -0.270 OA
ATOM      9  H   UNL     1       2.268  -8.171  -3.926  0.00  0.00    +0.152 HD
BRANCH   7  10
ATOM     10  C   UNL     1       3.611  -9.683  -2.276  0.00  0.00    +0.037 A 
ATOM     11  C   UNL     1       3.263 -10.409  -3.416  0.00  0.00    +0.014 A 
ATOM     12  C   UNL     1       3.615 -11.739  -3.517  0.00  0.00    +0.021 A 
ATOM     13  C   UNL     1       4.301 -12.357  -2.485  0.00  0.00    +0.041 A 
ATOM     14  C   UNL     1       4.644 -11.643  -1.348  0.00  0.00    +0.021 A 
ATOM     15  C   UNL     1       4.304 -10.311  -1.239  0.00  0.00    +0.014 A 
ATOM     16 CL   UNL     1       4.735 -14.033  -2.616  0.00  0.00    -0.084 Cl
ENDBRANCH   7  10
ENDBRANCH   1   6
BRANCH   1  17
ATOM     17  N   UNL     1       1.846  -5.853  -1.769  0.00  0.00    -0.301 N 
ATOM     18  H   UNL     1       2.373  -5.257  -1.214  0.00  0.00    +0.149 HD
BRANCH  17  26
ATOM     19  C   UNL     1      -4.919  -9.008   0.561  0.00  0.00    +0.008 C 
ATOM     20  C   UNL     1      -3.473  -8.509   0.575  0.00  0.00    -0.009 C 
ATOM     21  C   UNL     1      -3.402  -7.162   1.300  0.00  0.00    +0.008 C 
ATOM     22  C   UNL     1      -1.941  -6.774   1.536  0.00  0.00    +0.037 C 
ATOM     23  C   UNL     1      -1.193  -6.854   0.211  0.00  0.00    -0.018 A 
ATOM     24  C   UNL     1      -1.694  -7.553  -0.830  0.00  0.00    -0.004 A 
ATOM     25  S   UNL     1      -0.500  -7.360  -2.122  0.00  0.00    -0.077 S 
ATOM     26  C   UNL     1       0.651  -6.365  -1.293  0.00  0.00    +0.086 A 
ATOM     27  C   UNL     1       0.085  -6.206  -0.036  0.00  0.00    +0.083 A 
ATOM     28  C   UNL     1      -2.980  -8.320  -0.867  0.00  0.00    +0.046 C 
BRANCH  27  29
ATOM     29  C   UNL     1       0.734  -5.432   0.979  0.00  0.00    +0.102 C 
ATOM     30  N   UNL     1       1.249  -4.819   1.784  0.00  0.00    -0.191 NA
ENDBRANCH  27  29
ENDBRANCH  17  26
ENDBRANCH   1  17
BRANCH   1  31
ATOM     31  C   UNL     1       1.258  -5.852  -4.123  0.00  0.00    +0.359 C 
ATOM     32  O   UNL     1       0.352  -5.114  -3.816  0.00  0.00    -0.246 OA
BRANCH  31  33
ATOM     33  O   UNL     1       1.325  -6.351  -5.368  0.00  0.00    -0.465 OA
ATOM     34  C   UNL     1       0.274  -5.962  -6.291  0.00  0.00    +0.280 C 
ENDBRANCH  31  33
ENDBRANCH   1  31
TORSDOF 8
