REMARK  Name = ZINC26607751
REMARK  14 active torsions:
REMARK  status: ('A' for Active; 'I' for Inactive)
REMARK    1  A    between atoms: C_1  and  C_2
REMARK    2  A    between atoms: C_2  and  C_3
REMARK    3  A    between atoms: C_2  and  O_4
REMARK    4  A    between atoms: O_4  and  C_5
REMARK    5  A    between atoms: C_8  and  C_13
REMARK    6  A    between atoms: C_10  and  O_11
REMARK    7  A    between atoms: O_11  and  C_12
REMARK    8  A    between atoms: C_22  and  C_30
REMARK    9  A    between atoms: C_23  and  N_29
REMARK   10  A    between atoms: C_24  and  C_25
REMARK   11  A    between atoms: C_24  and  C_27
REMARK   12  A    between atoms: C_32  and  O_34
REMARK   13  A    between atoms: O_34  and  C_35
REMARK   14  A    between atoms: C_35  and  C_36
REMARK                            x       y       z     vdW  Elec       q    Type
REMARK                         _______ _______ _______ _____ _____    ______ ____
ROOT
ATOM      1  C   UNL     1       1.056   3.242   1.087  0.00  0.00    +0.068 C 
ATOM      2  C   UNL     1       1.369   1.911   0.401  0.00  0.00    +0.048 C 
ATOM      3  C   UNL     1       2.590   1.245   0.994  0.00  0.00    +0.120 C 
ATOM      4  N   UNL     1       2.215   0.121   1.857  0.00  0.00    -0.263 N 
ATOM      5  C   UNL     1       1.327  -0.905   1.279  0.00  0.00    +0.138 C 
ATOM      6  C   UNL     1       0.092  -0.197   0.785  0.00  0.00    -0.003 C 
ATOM      7  C   UNL     1       0.129   1.068   0.416  0.00  0.00    -0.026 C 
ATOM      8  C   UNL     1      -1.142   1.741   0.033  0.00  0.00    +0.074 C 
ATOM      9  C   UNL     1      -1.189   3.096  -0.016  0.00  0.00    +0.054 C 
ATOM     10  C   UNL     1      -0.012   3.977   0.277  0.00  0.00    +0.188 C 
ATOM     11  C   UNL     1       2.662   0.029   3.125  0.00  0.00    +0.403 C 
ATOM     12  O   UNL     1       3.392   0.889   3.576  0.00  0.00    -0.226 OA
ENDROOT
BRANCH   1  16
ATOM     13  C   UNL     1       4.601   5.626   1.284  0.00  0.00    +0.162 A 
ATOM     14  C   UNL     1       3.773   5.518   2.390  0.00  0.00    +0.050 A 
ATOM     15  C   UNL     1       2.625   4.750   2.321  0.00  0.00    +0.008 A 
ATOM     16  C   UNL     1       2.306   4.081   1.155  0.00  0.00    -0.037 A 
ATOM     17  C   UNL     1       3.127   4.185   0.048  0.00  0.00    +0.053 A 
ATOM     18  C   UNL     1       4.276   4.957   0.108  0.00  0.00    +0.162 A 
BRANCH  18  19
ATOM     19  O   UNL     1       5.085   5.060  -0.980  0.00  0.00    -0.491 OA
ATOM     20  C   UNL     1       4.690   4.346  -2.153  0.00  0.00    +0.277 C 
ENDBRANCH  18  19
BRANCH  13  21
ATOM     21  O   UNL     1       5.728   6.384   1.348  0.00  0.00    -0.486 OA
BRANCH  21  23
ATOM     22  C   UNL     1       7.569   7.201   2.683  0.00  0.00    +0.051 C 
ATOM     23  C   UNL     1       6.062   6.943   2.620  0.00  0.00    +0.167 C 
ATOM     24  C   UNL     1       5.311   8.261   2.812  0.00  0.00    +0.051 C 
ENDBRANCH  21  23
ENDBRANCH  13  21
ENDBRANCH   1  16
BRANCH   9  25
ATOM     25  N   UNL     1      -2.374   3.690  -0.348  0.00  0.00    -0.358 N 
ATOM     26  H   UNL     1      -2.445   4.786  -0.396  0.00  0.00    +0.142 HD
ATOM     27  H   UNL     1      -3.256   3.071  -0.568  0.00  0.00    +0.142 HD
ENDBRANCH   9  25
BRANCH  10  28
ATOM     28  C   UNL     1      -0.469   5.152   1.037  0.00  0.00    +0.091 C 
ATOM     29  N   UNL     1      -0.821   6.058   1.625  0.00  0.00    -0.194 NA
ENDBRANCH  10  28
BRANCH  10  30
ATOM     30  C   UNL     1       0.576   4.428  -0.995  0.00  0.00    +0.091 C 
ATOM     31  N   UNL     1       1.030   4.776  -1.977  0.00  0.00    -0.194 NA
ENDBRANCH  10  30
BRANCH   8  32
ATOM     32  C   UNL     1      -2.304   0.966  -0.282  0.00  0.00    +0.101 C 
ATOM     33  N   UNL     1      -3.226   0.351  -0.531  0.00  0.00    -0.191 NA
ENDBRANCH   8  32
BRANCH  11  34
ATOM     34  O   UNL     1       2.300  -1.016   3.893  0.00  0.00    -0.445 OA
BRANCH  34  35
ATOM     35  C   UNL     1       2.819  -1.049   5.249  0.00  0.00    +0.269 C 
BRANCH  35  36
ATOM     36  C   UNL     1       2.311  -2.282   5.951  0.00  0.00    -0.010 A 
ATOM     37  C   UNL     1       1.124  -2.234   6.659  0.00  0.00    +0.007 A 
ATOM     38  C   UNL     1       0.656  -3.366   7.300  0.00  0.00    +0.000 A 
ATOM     39  C   UNL     1       1.378  -4.543   7.240  0.00  0.00    +0.000 A 
ATOM     40  C   UNL     1       2.567  -4.590   6.536  0.00  0.00    +0.000 A 
ATOM     41  C   UNL     1       3.033  -3.459   5.892  0.00  0.00    +0.007 A 
ENDBRANCH  35  36
ENDBRANCH  34  35
ENDBRANCH  11  34
TORSDOF 11
