REMARK  Name = ZINC39639111
REMARK  11 active torsions:
REMARK  status: ('A' for Active; 'I' for Inactive)
REMARK    1  A    between atoms: C_1  and  C_2
REMARK    2  A    between atoms: C_6  and  C_9
REMARK    3  A    between atoms: C_13  and  C_22
REMARK    4  A    between atoms: N_24  and  C_25
REMARK    5  A    between atoms: C_25  and  C_26
REMARK    6  A    between atoms: C_27  and  O_36
REMARK    7  A    between atoms: C_29  and  O_34
REMARK    8  A    between atoms: C_31  and  O_32
REMARK    9  A    between atoms: O_32  and  C_33
REMARK   10  A    between atoms: O_34  and  C_35
REMARK   11  A    between atoms: O_36  and  C_37
REMARK                            x       y       z     vdW  Elec       q    Type
REMARK                         _______ _______ _______ _____ _____    ______ ____
ROOT
ATOM      1  C   UNL     1       0.088  -2.899   2.608  0.00  0.00    +0.252 C 
ATOM      2  O   UNL     1       1.131  -3.255   3.121  0.00  0.00    -0.270 OA
ATOM      3  N   UNL     1      -1.090  -3.271   3.148  0.00  0.00    -0.296 N 
ATOM      4  C   UNL     1      -2.453  -2.945   2.668  0.00  0.00    +0.121 C 
ATOM      5  C   UNL     1      -3.264  -4.243   2.883  0.00  0.00    +0.100 C 
ATOM      6  C   UNL     1      -2.512  -4.995   3.994  0.00  0.00    -0.004 C 
ATOM      7  C   UNL     1      -1.313  -4.105   4.354  0.00  0.00    +0.115 C 
ATOM      8  C   UNL     1      -3.415  -5.183   5.210  0.00  0.00    -0.010 C 
ATOM      9  C   UNL     1      -2.665  -5.984   6.278  0.00  0.00    -0.082 C 
ATOM     10  N   UNL     1      -2.272  -7.287   5.729  0.00  0.00    +0.379 N 
ATOM     11  C   UNL     1      -1.330  -7.099   4.619  0.00  0.00    -0.082 C 
ATOM     12  C   UNL     1      -2.024  -6.346   3.481  0.00  0.00    -0.010 C 
ATOM     13  H   UNL     1      -1.832  -7.836   6.453  0.00  0.00    -0.086 HD
ATOM     14  H   UNL     1      -3.092  -7.771   5.395  0.00  0.00    -0.086 HD
ENDROOT
BRANCH   1  20
ATOM     15  C   UNL     1       0.155   1.616   0.478  0.00  0.00    +0.047 C 
ATOM     16  C   UNL     1       0.143   0.114   0.363  0.00  0.00    -0.014 A 
ATOM     17  C   UNL     1       0.152  -0.482  -0.885  0.00  0.00    +0.009 A 
ATOM     18  C   UNL     1       0.141  -1.860  -1.003  0.00  0.00    +0.039 A 
ATOM     19  C   UNL     1       0.120  -2.654   0.129  0.00  0.00    +0.138 A 
ATOM     20  C   UNL     1       0.110  -2.060   1.395  0.00  0.00    +0.107 A 
ATOM     21  C   UNL     1       0.128  -0.665   1.505  0.00  0.00    +0.141 A 
ATOM     22  F   UNL     1       0.124  -0.081   2.723  0.00  0.00    -0.204 F 
ATOM     23  F   UNL     1       0.108  -4.000   0.012  0.00  0.00    -0.205 F 
ENDBRANCH   1  20
BRANCH   5  24
ATOM     24  C   UNL     1      -4.668  -3.917   3.324  0.00  0.00    +0.218 C 
ATOM     25  O   UNL     1      -4.882  -2.918   3.976  0.00  0.00    -0.275 OA
ATOM     26  N   UNL     1      -5.685  -4.738   2.993  0.00  0.00    -0.311 N 
ATOM     27  H   UNL     1      -5.513  -5.537   2.472  0.00  0.00    +0.149 HD
BRANCH  26  28
ATOM     28  C   UNL     1      -7.050  -4.421   3.421  0.00  0.00    +0.147 C 
BRANCH  28  29
ATOM     29  C   UNL     1      -7.992  -5.488   2.926  0.00  0.00    +0.053 A 
ATOM     30  C   UNL     1      -8.594  -5.359   1.683  0.00  0.00    +0.132 A 
ATOM     31  C   UNL     1      -9.460  -6.341   1.227  0.00  0.00    +0.091 A 
ATOM     32  C   UNL     1      -9.725  -7.452   2.014  0.00  0.00    +0.127 A 
ATOM     33  C   UNL     1      -9.122  -7.582   3.256  0.00  0.00    +0.091 A 
ATOM     34  C   UNL     1      -8.252  -6.602   3.710  0.00  0.00    +0.132 A 
BRANCH  34  35
ATOM     35  O   UNL     1      -7.657  -6.731   4.925  0.00  0.00    -0.495 OA
ATOM     36  C   UNL     1      -7.971  -7.904   5.679  0.00  0.00    +0.277 C 
ENDBRANCH  34  35
BRANCH  32  37
ATOM     37  O   UNL     1     -10.575  -8.414   1.567  0.00  0.00    -0.495 OA
ATOM     38  C   UNL     1     -10.801  -9.530   2.429  0.00  0.00    +0.277 C 
ENDBRANCH  32  37
BRANCH  30  39
ATOM     39  O   UNL     1      -8.335  -4.270   0.913  0.00  0.00    -0.495 OA
ATOM     40  C   UNL     1      -8.989  -4.202  -0.356  0.00  0.00    +0.277 C 
ENDBRANCH  30  39
ENDBRANCH  28  29
ENDBRANCH  26  28
ENDBRANCH   5  24
TORSDOF 7
