REMARK  Name = ZINC20755864
REMARK  10 active torsions:
REMARK  status: ('A' for Active; 'I' for Inactive)
REMARK    1  A    between atoms: C_1  and  C_2
REMARK    2  A    between atoms: C_16  and  C_19
REMARK    3  A    between atoms: C_19  and  C_20
REMARK    4  A    between atoms: N_25  and  C_28
REMARK    5  A    between atoms: C_28  and  C_29
REMARK    6  A    between atoms: C_29  and  C_30
REMARK    7  A    between atoms: C_33  and  O_38
REMARK    8  A    between atoms: C_34  and  O_36
REMARK    9  A    between atoms: O_36  and  C_37
REMARK   10  A    between atoms: O_38  and  C_39
REMARK                            x       y       z     vdW  Elec       q    Type
REMARK                         _______ _______ _______ _____ _____    ______ ____
ROOT
ATOM      1  C   UNL     1      -0.018   1.503   0.010  0.00  0.00    +0.045 C 
ATOM      2  C   UNL     1       0.002  -0.004   0.002  0.00  0.00    -0.029 A 
ATOM      3  C   UNL     1       0.006  -0.685  -1.198  0.00  0.00    +0.005 A 
ATOM      4  C   UNL     1       0.025  -2.068  -1.216  0.00  0.00    +0.001 A 
ATOM      5  C   UNL     1       0.040  -2.772  -0.024  0.00  0.00    +0.008 A 
ATOM      6  C   UNL     1       0.037  -2.096   1.175  0.00  0.00    +0.004 A 
ATOM      7  C   UNL     1       0.023  -0.705   1.206  0.00  0.00    +0.042 A 
ATOM      8  N   UNL     1       0.030  -0.250   2.526  0.00  0.00    -0.283 N 
ATOM      9  C   UNL     1       0.053  -1.265   3.412  0.00  0.00    +0.243 C 
ATOM     10  O   UNL     1       0.065  -1.171   4.621  0.00  0.00    -0.273 OA
ATOM     11  C   UNL     1       0.048  -2.538   2.611  0.00  0.00    +0.136 C 
ATOM     12  C   UNL     1       1.282  -3.392   2.926  0.00  0.00    +0.122 C 
ATOM     13  C   UNL     1       0.775  -4.859   2.831  0.00  0.00    +0.107 C 
ATOM     14  C   UNL     1      -0.715  -4.739   2.447  0.00  0.00    +0.076 C 
ATOM     15  N   UNL     1      -1.119  -3.383   2.924  0.00  0.00    -0.295 NA
ATOM     16  C   UNL     1       0.901  -5.364   4.250  0.00  0.00    +0.227 C 
ATOM     17  O   UNL     1       0.604  -6.478   4.625  0.00  0.00    -0.275 OA
ATOM     18  N   UNL     1       1.392  -4.392   5.026  0.00  0.00    -0.241 N 
ATOM     19  C   UNL     1       1.653  -3.231   4.383  0.00  0.00    +0.228 C 
ATOM     20  O   UNL     1       2.107  -2.223   4.882  0.00  0.00    -0.275 OA
ATOM     21  H   UNL     1       0.021   0.687   2.777  0.00  0.00    +0.155 HD
ATOM     22  H   UNL     1      -1.312  -3.381   3.915  0.00  0.00    +0.124 HD
ENDROOT
BRANCH  14  23
ATOM     23  C   UNL     1      -1.537  -5.810   3.167  0.00  0.00    +0.115 C 
BRANCH  23  24
ATOM     24  C   UNL     1      -2.964  -5.755   2.686  0.00  0.00    +0.212 C 
ATOM     25  O   UNL     1      -3.291  -4.940   1.849  0.00  0.00    -0.276 OA
ATOM     26  N   UNL     1      -3.877  -6.612   3.185  0.00  0.00    -0.329 N 
ATOM     27  H   UNL     1      -3.616  -7.263   3.854  0.00  0.00    +0.145 HD
ATOM     28  H   UNL     1      -4.796  -6.576   2.875  0.00  0.00    +0.145 HD
ENDBRANCH  23  24
ENDBRANCH  14  23
BRANCH  18  29
ATOM     29  C   UNL     1       1.635  -4.570   6.460  0.00  0.00    +0.121 C 
BRANCH  29  30
ATOM     30  C   UNL     1       3.061  -5.082   6.676  0.00  0.00    +0.054 C 
BRANCH  30  31
ATOM     31  C   UNL     1       3.311  -5.266   8.150  0.00  0.00    -0.042 A 
ATOM     32  C   UNL     1       3.815  -4.219   8.900  0.00  0.00    +0.007 A 
ATOM     33  C   UNL     1       4.046  -4.382  10.253  0.00  0.00    +0.049 A 
ATOM     34  C   UNL     1       3.772  -5.596  10.861  0.00  0.00    +0.161 A 
ATOM     35  C   UNL     1       3.265  -6.650  10.107  0.00  0.00    +0.162 A 
ATOM     36  C   UNL     1       3.031  -6.478   8.752  0.00  0.00    +0.053 A 
BRANCH  35  37
ATOM     37  O   UNL     1       2.994  -7.844  10.699  0.00  0.00    -0.491 OA
ATOM     38  C   UNL     1       2.475  -8.880   9.863  0.00  0.00    +0.277 C 
ENDBRANCH  35  37
BRANCH  34  39
ATOM     39  O   UNL     1       3.999  -5.758  12.192  0.00  0.00    -0.491 OA
ATOM     40  C   UNL     1       4.521  -4.634  12.903  0.00  0.00    +0.277 C 
ENDBRANCH  34  39
ENDBRANCH  30  31
ENDBRANCH  29  30
ENDBRANCH  18  29
TORSDOF 7
