REMARK  Name = ZINC09535398
REMARK  8 active torsions:
REMARK  status: ('A' for Active; 'I' for Inactive)
REMARK    1  A    between atoms: C_4  and  C_25
REMARK    2  A    between atoms: C_5  and  C_7
REMARK    3  A    between atoms: C_7  and  N_8
REMARK    4  A    between atoms: C_9  and  C_11
REMARK    5  A    between atoms: C_13  and  S_18
REMARK    6  A    between atoms: S_18  and  N_21
REMARK    7  A    between atoms: N_21  and  C_22
REMARK    8  A    between atoms: C_25  and  N_56
REMARK                            x       y       z     vdW  Elec       q    Type
REMARK                         _______ _______ _______ _____ _____    ______ ____
ROOT
ATOM      1  N   UNL     1       1.356   2.010  -0.000  0.00  0.00    -0.307 N 
ATOM      2  C   UNL     1       1.584   3.338   0.005  0.00  0.00    +0.245 C 
ATOM      3  O   UNL     1       0.650   4.115   0.018  0.00  0.00    -0.270 OA
ATOM      4  H   UNL     1       2.102   1.390  -0.011  0.00  0.00    +0.149 HD
ENDROOT
BRANCH   2   5
ATOM      5  C   UNL     1       2.971   3.850  -0.006  0.00  0.00    +0.052 A 
ATOM      6  C   UNL     1       4.047   2.960  -0.015  0.00  0.00    +0.042 A 
ATOM      7  C   UNL     1       5.338   3.444  -0.029  0.00  0.00    +0.106 A 
ATOM      8  C   UNL     1       5.570   4.808  -0.024  0.00  0.00    +0.029 A 
ATOM      9  C   UNL     1       4.510   5.696  -0.010  0.00  0.00    +0.018 A 
ATOM     10  C   UNL     1       3.211   5.226  -0.001  0.00  0.00    +0.030 A 
ATOM     11 BR   UNL     1       1.762   6.441   0.018  0.00  0.00    -0.050 Br
BRANCH   7  12
ATOM     12  S   UNL     1       6.697   2.322  -0.047  0.00  0.00    +0.059 S 
ATOM     13  O   UNL     1       6.212   1.106  -0.600  0.00  0.00    -0.153 OA
ATOM     14  O   UNL     1       7.798   3.026  -0.604  0.00  0.00    -0.153 OA
BRANCH  12  15
ATOM     15  N   UNL     1       7.088   2.002   1.530  0.00  0.00    -0.187 NA
ATOM     16  H   UNL     1       7.948   2.280   1.882  0.00  0.00    +0.148 HD
BRANCH  15  17
ATOM     17  C   UNL     1       6.135   1.299   2.393  0.00  0.00    +0.077 C 
ATOM     18  C   UNL     1       6.111   1.679   3.875  0.00  0.00    +0.022 C 
ATOM     19  C   UNL     1       6.705   0.338   3.439  0.00  0.00    +0.022 C 
ENDBRANCH  15  17
ENDBRANCH  12  15
ENDBRANCH   7  12
ENDBRANCH   2   5
BRANCH   1  20
ATOM     20  C   UNL     1      -0.018   1.503   0.010  0.00  0.00    +0.140 C 
BRANCH  20  25
ATOM     21  C   UNL     1      -0.190  -2.074  -1.186  0.00  0.00    +0.000 A 
ATOM     22  C   UNL     1       0.039  -2.768  -0.013  0.00  0.00    +0.000 A 
ATOM     23  C   UNL     1       0.249  -2.081   1.167  0.00  0.00    +0.002 A 
ATOM     24  C   UNL     1       0.231  -0.699   1.175  0.00  0.00    -0.059 A 
ATOM     25  C   UNL     1       0.002  -0.004   0.002  0.00  0.00    -0.029 A 
ATOM     26  C   UNL     1      -0.213  -0.692  -1.178  0.00  0.00    +0.005 A 
BRANCH  24  27
ATOM     27  C   UNL     1       0.459   0.051   2.462  0.00  0.00    -0.043 C 
BRANCH  27  32
ATOM     28  C   UNL     1      -1.773  -0.660   3.124  0.00  0.00    -0.078 C 
ATOM     29  C   UNL     1      -2.812  -0.165   4.162  0.00  0.00    -0.020 C 
ATOM     30  C   UNL     1      -1.946   0.631   5.165  0.00  0.00    -0.020 C 
ATOM     31  C   UNL     1      -0.673   1.010   4.386  0.00  0.00    -0.078 C 
ATOM     32  N   UNL     1      -0.852   0.484   3.032  0.00  0.00    +0.382 N 
ATOM     33  H   UNL     1      -1.259   1.208   2.429  0.00  0.00    -0.081 HD
ENDBRANCH  27  32
ENDBRANCH  24  27
ENDBRANCH  20  25
ENDBRANCH   1  20
TORSDOF 8
