REMARK  Name = ZINC42458317
REMARK  8 active torsions:
REMARK  status: ('A' for Active; 'I' for Inactive)
REMARK    1  A    between atoms: C_1  and  C_2
REMARK    2  A    between atoms: C_2  and  C_4
REMARK    3  A    between atoms: C_2  and  C_16
REMARK    4  A    between atoms: C_4  and  N_5
REMARK    5  A    between atoms: N_5  and  C_6
REMARK    6  A    between atoms: N_5  and  C_7
REMARK    7  A    between atoms: C_7  and  C_8
REMARK    8  A    between atoms: N_17  and  O_18
REMARK                            x       y       z     vdW  Elec       q    Type
REMARK                         _______ _______ _______ _____ _____    ______ ____
ROOT
ATOM      1  N   UNL     1      -2.107  -0.147  -1.234  0.00  0.00    +0.381 N 
ATOM      2  C   UNL     1      -1.456  -0.814  -2.369  0.00  0.00    -0.096 C 
ATOM      3  H   UNL     1      -2.048   0.853  -1.352  0.00  0.00    -0.082 HD
ENDROOT
BRANCH   1   4
ATOM      4  C   UNL     1      -1.433  -0.534   0.013  0.00  0.00    -0.068 C 
BRANCH   4   6
ATOM      5  C   UNL     1      -0.019   1.526   0.010  0.00  0.00    +0.013 C 
ATOM      6  C   UNL     1       0.002  -0.004   0.002  0.00  0.00    +0.036 C 
BRANCH   6   7
ATOM      7  C   UNL     1       0.731  -0.503   1.223  0.00  0.00    +0.133 C 
ATOM      8  N   UNL     1       0.795   0.233   2.283  0.00  0.00    -0.077 NA
ATOM      9  N   UNL     1       1.329  -1.744   1.209  0.00  0.00    -0.344 N 
ATOM     10  H   UNL     1       1.281  -2.296   0.413  0.00  0.00    +0.144 HD
ATOM     11  H   UNL     1       1.798  -2.065   1.995  0.00  0.00    +0.144 HD
BRANCH   8  12
ATOM     12  O   UNL     1       1.480  -0.237   3.430  0.00  0.00    -0.408 OA
ATOM     13  H   UNL     1       1.474   0.383   4.172  0.00  0.00    +0.328 HD
ENDBRANCH   8  12
ENDBRANCH   6   7
ENDBRANCH   4   6
ENDBRANCH   1   4
BRANCH   1  14
ATOM     14  C   UNL     1      -3.518  -0.551  -1.173  0.00  0.00    -0.040 C 
BRANCH  14  15
ATOM     15  C   UNL     1      -4.238  -0.047  -2.397  0.00  0.00    -0.029 A 
ATOM     16  C   UNL     1      -5.002   1.103  -2.326  0.00  0.00    +0.005 A 
ATOM     17  C   UNL     1      -5.662   1.566  -3.449  0.00  0.00    +0.015 A 
ATOM     18  C   UNL     1      -5.559   0.879  -4.645  0.00  0.00    +0.021 A 
ATOM     19  C   UNL     1      -4.796  -0.272  -4.718  0.00  0.00    +0.053 A 
ATOM     20  C   UNL     1      -4.130  -0.732  -3.595  0.00  0.00    +0.126 A 
ATOM     21  F   UNL     1      -3.379  -1.853  -3.667  0.00  0.00    -0.205 F 
ATOM     22 BR   UNL     1      -6.463   1.513  -6.180  0.00  0.00    -0.050 Br
ENDBRANCH  14  15
ENDBRANCH   1  14
TORSDOF 6
