REMARK  Name = ZINC40814715
REMARK  7 active torsions:
REMARK  status: ('A' for Active; 'I' for Inactive)
REMARK    1  A    between atoms: C_1  and  C_2
REMARK    2  A    between atoms: C_5  and  N_9
REMARK    3  A    between atoms: C_10  and  C_12
REMARK    4  A    between atoms: C_13  and  C_32
REMARK    5  A    between atoms: N_21  and  N_22
REMARK    6  A    between atoms: N_22  and  C_23
REMARK    7  A    between atoms: C_26  and  N_29
REMARK                            x       y       z     vdW  Elec       q    Type
REMARK                         _______ _______ _______ _____ _____    ______ ____
ROOT
ATOM      1  C   UNL     1       0.303  -6.310   1.119  0.00  0.00    +0.193 A 
ATOM      2  C   UNL     1       0.422  -7.114   2.219  0.00  0.00    +0.009 A 
ATOM      3  C   UNL     1       0.518  -8.425   1.737  0.00  0.00    +0.042 A 
ATOM      4  C   UNL     1       0.456  -8.366   0.365  0.00  0.00    +0.115 A 
ATOM      5  O   UNL     1       0.319  -7.089   0.014  0.00  0.00    -0.454 OA
ATOM      6  C   UNL     1       0.533  -9.589  -0.513  0.00  0.00    +0.075 C 
ATOM      7  C   UNL     1       1.184 -10.735   0.267  0.00  0.00    +0.014 C 
ATOM      8  C   UNL     1       0.467 -10.955   1.603  0.00  0.00    +0.058 C 
ATOM      9  C   UNL     1       0.661  -9.710   2.458  0.00  0.00    +0.070 C 
ATOM     10  N   UNL     1       0.931  -9.771   3.725  0.00  0.00    -0.186 NA
ATOM     11  C   UNL     1       0.446  -6.677   3.661  0.00  0.00    +0.048 C 
ENDROOT
BRANCH   1  13
ATOM     12  N   UNL     1       0.057  -4.170  -0.022  0.00  0.00    -0.279 N 
ATOM     13  C   UNL     1       0.174  -4.849   1.136  0.00  0.00    +0.284 C 
ATOM     14  O   UNL     1       0.172  -4.251   2.196  0.00  0.00    -0.266 OA
ATOM     15  H   UNL     1      -0.018  -4.651  -0.861  0.00  0.00    +0.155 HD
BRANCH  12  20
ATOM     16  C   UNL     1       0.004   1.503   0.010  0.00  0.00    +0.045 C 
ATOM     17  C   UNL     1       0.019  -0.004   0.002  0.00  0.00    -0.032 A 
ATOM     18  C   UNL     1      -0.725  -0.696  -0.937  0.00  0.00    +0.006 A 
ATOM     19  C   UNL     1      -0.714  -2.077  -0.947  0.00  0.00    +0.023 A 
ATOM     20  C   UNL     1       0.045  -2.772  -0.014  0.00  0.00    +0.035 A 
ATOM     21  C   UNL     1       0.791  -2.075   0.927  0.00  0.00    +0.043 A 
ATOM     22  C   UNL     1       0.781  -0.692   0.929  0.00  0.00    +0.046 A 
ATOM     23 CL   UNL     1       1.718   0.180   2.101  0.00  0.00    -0.083 Cl
ENDBRANCH  12  20
ENDBRANCH   1  13
BRANCH  10  24
ATOM     24  N   UNL     1       1.055 -11.016   4.356  0.00  0.00    -0.238 N 
ATOM     25  H   UNL     1       0.938 -11.833   3.845  0.00  0.00    +0.174 HD
BRANCH  24  26
ATOM     26  C   UNL     1       1.346 -11.082   5.718  0.00  0.00    +0.048 A 
ATOM     27  C   UNL     1       1.508  -9.914   6.454  0.00  0.00    +0.027 A 
ATOM     28  C   UNL     1       1.795  -9.982   7.802  0.00  0.00    +0.034 A 
ATOM     29  C   UNL     1       1.923 -11.212   8.422  0.00  0.00    +0.126 A 
ATOM     30  C   UNL     1       1.762 -12.377   7.694  0.00  0.00    +0.034 A 
ATOM     31  C   UNL     1       1.468 -12.316   6.346  0.00  0.00    +0.027 A 
BRANCH  29  32
ATOM     32  N   UNL     1       2.232 -11.282   9.873  0.00  0.00    +0.056 N 
ATOM     33  O   UNL     1       2.373 -10.265  10.511  0.00  0.00    -0.126 OA
ATOM     34  O   UNL     1       2.344 -12.357  10.417  0.00  0.00    -0.126 OA
ENDBRANCH  29  32
ENDBRANCH  24  26
ENDBRANCH  10  24
TORSDOF 5
