REMARK  Name = ZINC09007947
REMARK  18 active torsions:
REMARK  status: ('A' for Active; 'I' for Inactive)
REMARK    1  A    between atoms: C_1  and  C_2
REMARK    2  A    between atoms: C_2  and  N_75
REMARK    3  A    between atoms: C_3  and  C_4
REMARK    4  A    between atoms: C_3  and  N_75
REMARK    5  A    between atoms: C_5  and  C_6
REMARK    6  A    between atoms: C_5  and  N_75
REMARK    7  A    between atoms: C_6  and  C_7
REMARK    8  A    between atoms: C_7  and  N_8
REMARK    9  A    between atoms: C_9  and  C_28
REMARK   10  A    between atoms: C_12  and  C_13
REMARK   11  A    between atoms: C_12  and  O_23
REMARK   12  A    between atoms: C_16  and  O_19
REMARK   13  A    between atoms: O_19  and  C_20
REMARK   14  A    between atoms: C_20  and  C_21
REMARK   15  A    between atoms: C_31  and  O_34
REMARK   16  A    between atoms: O_34  and  C_35
REMARK   17  A    between atoms: C_35  and  C_36
REMARK   18  A    between atoms: C_35  and  C_37
REMARK                            x       y       z     vdW  Elec       q    Type
REMARK                         _______ _______ _______ _____ _____    ______ ____
ROOT
ATOM      1  N   UNL     1      -6.830   2.245   0.159  0.00  0.00    -0.284 N 
ATOM      2  C   UNL     1      -6.058   1.010   0.328  0.00  0.00    +0.144 C 
ATOM      3  C   UNL     1      -4.622   1.425   0.554  0.00  0.00    +0.071 C 
ATOM      4  C   UNL     1      -3.541   0.591   0.761  0.00  0.00    +0.133 C 
ATOM      5  C   UNL     1      -4.611   2.827   0.516  0.00  0.00    +0.249 C 
ATOM      6  O   UNL     1      -3.632   3.537   0.663  0.00  0.00    -0.282 OA
ATOM      7  C   UNL     1      -6.000   3.296   0.264  0.00  0.00    +0.288 C 
ATOM      8  O   UNL     1      -6.335   4.459   0.170  0.00  0.00    -0.266 OA
ENDROOT
BRANCH   4   9
ATOM      9  C   UNL     1      -2.180   1.148   0.799  0.00  0.00    +0.017 A 
ATOM     10  C   UNL     1      -1.692   1.887  -0.285  0.00  0.00    +0.015 A 
ATOM     11  C   UNL     1      -0.420   2.410  -0.242  0.00  0.00    +0.046 A 
ATOM     12  C   UNL     1       0.382   2.202   0.875  0.00  0.00    +0.121 A 
ATOM     13  C   UNL     1      -0.095   1.464   1.952  0.00  0.00    +0.046 A 
ATOM     14  C   UNL     1      -1.365   0.936   1.919  0.00  0.00    +0.015 A 
BRANCH  12  15
ATOM     15  O   UNL     1       1.636   2.721   0.913  0.00  0.00    -0.488 OA
BRANCH  15  16
ATOM     16  C   UNL     1       2.407   2.469   2.089  0.00  0.00    +0.256 C 
BRANCH  16  17
ATOM     17  C   UNL     1       3.760   3.118   1.951  0.00  0.00    +0.006 C 
ATOM     18  C   UNL     1       4.265   3.799   2.950  0.00  0.00    +0.007 C 
ENDBRANCH  16  17
ENDBRANCH  15  16
ENDBRANCH  12  15
ENDBRANCH   4   9
BRANCH   2  19
ATOM     19  C   UNL     1      -6.161   0.163  -0.914  0.00  0.00    -0.022 A 
ATOM     20  C   UNL     1      -6.157   0.762  -2.160  0.00  0.00    +0.009 A 
ATOM     21  C   UNL     1      -6.247  -0.012  -3.301  0.00  0.00    +0.046 A 
ATOM     22  C   UNL     1      -6.351  -1.392  -3.194  0.00  0.00    +0.121 A 
ATOM     23  C   UNL     1      -6.360  -1.990  -1.943  0.00  0.00    +0.046 A 
ATOM     24  C   UNL     1      -6.266  -1.211  -0.806  0.00  0.00    +0.009 A 
BRANCH  22  25
ATOM     25  O   UNL     1      -6.444  -2.155  -4.315  0.00  0.00    -0.489 OA
BRANCH  25  26
ATOM     26  C   UNL     1      -6.428  -3.573  -4.136  0.00  0.00    +0.167 C 
ATOM     27  C   UNL     1      -7.844  -4.064  -3.827  0.00  0.00    +0.051 C 
ATOM     28  C   UNL     1      -5.925  -4.243  -5.417  0.00  0.00    +0.051 C 
ENDBRANCH  25  26
ENDBRANCH  22  25
ENDBRANCH   2  19
BRANCH   4  29
ATOM     29  O   UNL     1      -3.732  -0.735   0.928  0.00  0.00    -0.506 OA
ATOM     30  H   UNL     1      -2.850  -1.185   1.066  0.00  0.00    +0.292 HD
ENDBRANCH   4  29
BRANCH   1  31
ATOM     31  C   UNL     1      -8.273   2.320  -0.084  0.00  0.00    +0.107 C 
BRANCH  31  32
ATOM     32  C   UNL     1      -9.012   2.392   1.254  0.00  0.00    +0.000 C 
BRANCH  32  33
ATOM     33  C   UNL     1     -10.519   2.471   1.000  0.00  0.00    -0.077 C 
BRANCH  33  34
ATOM     34  N   UNL     1     -11.220   2.519   2.300  0.00  0.00    +0.379 N 
ATOM     35  H   UNL     1     -10.889   1.742   2.885  0.00  0.00    -0.082 HD
BRANCH  34  37
ATOM     36  C   UNL     1     -11.442   4.977   2.162  0.00  0.00    -0.017 C 
ATOM     37  C   UNL     1     -10.927   3.795   2.985  0.00  0.00    -0.082 C 
ENDBRANCH  34  37
BRANCH  34  38
ATOM     38  C   UNL     1     -12.677   2.379   2.094  0.00  0.00    -0.082 C 
ATOM     39  C   UNL     1     -13.336   2.071   3.440  0.00  0.00    -0.017 C 
ENDBRANCH  34  38
ENDBRANCH  33  34
ENDBRANCH  32  33
ENDBRANCH  31  32
ENDBRANCH   1  31
TORSDOF 14
