REMARK  Name = ZINC19651396
REMARK  10 active torsions:
REMARK  status: ('A' for Active; 'I' for Inactive)
REMARK    1  A    between atoms: C_1  and  C_2
REMARK    2  A    between atoms: N_13  and  C_16
REMARK    3  A    between atoms: C_16  and  C_17
REMARK    4  A    between atoms: N_19  and  N_20
REMARK    5  A    between atoms: C_21  and  C_22
REMARK    6  A    between atoms: C_25  and  O_30
REMARK    7  A    between atoms: C_26  and  O_28
REMARK    8  A    between atoms: O_28  and  C_29
REMARK    9  A    between atoms: O_30  and  C_31
REMARK   10  A    between atoms: C_31  and  C_32
REMARK                            x       y       z     vdW  Elec       q    Type
REMARK                         _______ _______ _______ _____ _____    ______ ____
ROOT
ATOM      1  C   UNL     1      11.592  -5.114  -0.296  0.00  0.00    +0.254 C 
ATOM      2  O   UNL     1      11.196  -4.893   0.829  0.00  0.00    -0.272 OA
ATOM      3  N   UNL     1      10.867  -4.709  -1.357  0.00  0.00    -0.205 N 
ATOM      4  H   UNL     1      11.227  -4.910  -2.377  0.00  0.00    +0.177 HD
ENDROOT
BRANCH   3   5
ATOM      5  N   UNL     1       9.657  -4.032  -1.162  0.00  0.00    -0.188 NA
ATOM      6  C   UNL     1       8.959  -3.642  -2.184  0.00  0.00    +0.138 C 
BRANCH   6   7
ATOM      7  C   UNL     1       7.684  -2.930  -1.978  0.00  0.00    -0.002 A 
ATOM      8  C   UNL     1       7.227  -2.674  -0.683  0.00  0.00    +0.013 A 
ATOM      9  C   UNL     1       6.038  -2.002  -0.493  0.00  0.00    +0.050 A 
ATOM     10  C   UNL     1       5.288  -1.589  -1.585  0.00  0.00    +0.162 A 
ATOM     11  C   UNL     1       5.738  -1.841  -2.879  0.00  0.00    +0.162 A 
ATOM     12  C   UNL     1       6.932  -2.509  -3.078  0.00  0.00    +0.059 A 
BRANCH  11  13
ATOM     13  O   UNL     1       5.003  -1.431  -3.946  0.00  0.00    -0.491 OA
ATOM     14  C   UNL     1       5.524  -1.723  -5.244  0.00  0.00    +0.277 C 
ENDBRANCH  11  13
BRANCH  10  15
ATOM     15  O   UNL     1       4.113  -0.932  -1.391  0.00  0.00    -0.484 OA
BRANCH  15  16
ATOM     16  C   UNL     1       3.711  -0.707  -0.039  0.00  0.00    +0.264 C 
BRANCH  16  17
ATOM     17  C   UNL     1       2.396   0.029  -0.022  0.00  0.00    -0.010 A 
ATOM     18  C   UNL     1       1.208  -0.679  -0.014  0.00  0.00    +0.007 A 
ATOM     19  C   UNL     1       0.002  -0.004   0.002  0.00  0.00    +0.000 A 
ATOM     20  C   UNL     1      -0.017   1.378   0.010  0.00  0.00    +0.000 A 
ATOM     21  C   UNL     1       1.171   2.086   0.002  0.00  0.00    +0.000 A 
ATOM     22  C   UNL     1       2.377   1.411  -0.014  0.00  0.00    +0.007 A 
ENDBRANCH  16  17
ENDBRANCH  15  16
ENDBRANCH  10  15
ENDBRANCH   6   7
ENDBRANCH   3   5
BRANCH   1  23
ATOM     23  C   UNL     1      12.895  -5.843  -0.506  0.00  0.00    +0.246 C 
BRANCH  23  35
ATOM     24  C   UNL     1      13.172 -12.223   6.141  0.00  0.00    +0.008 C 
ATOM     25  C   UNL     1      13.047 -10.928   5.336  0.00  0.00    -0.009 C 
ATOM     26  C   UNL     1      13.057 -11.248   3.839  0.00  0.00    +0.008 C 
ATOM     27  C   UNL     1      12.684  -9.999   3.038  0.00  0.00    +0.037 C 
ATOM     28  C   UNL     1      13.587  -8.848   3.472  0.00  0.00    -0.023 A 
ATOM     29  C   UNL     1      14.257  -8.901   4.644  0.00  0.00    -0.004 A 
ATOM     30  S   UNL     1      15.159  -7.377   4.726  0.00  0.00    -0.071 S 
ATOM     31  C   UNL     1      14.632  -6.674   3.183  0.00  0.00    +0.138 A 
ATOM     32  C   UNL     1      13.771  -7.650   2.657  0.00  0.00    +0.079 A 
ATOM     33  C   UNL     1      13.182  -7.345   1.384  0.00  0.00    +0.279 A 
ATOM     34  O   UNL     1      12.422  -8.132   0.847  0.00  0.00    -0.265 OA
ATOM     35  N   UNL     1      13.485  -6.173   0.793  0.00  0.00    -0.201 N 
ATOM     36  N   UNL     1      14.362  -5.270   1.404  0.00  0.00    -0.061 NA
ATOM     37  N   UNL     1      14.890  -5.534   2.549  0.00  0.00    -0.123 NA
ATOM     38  C   UNL     1      14.237 -10.009   5.652  0.00  0.00    +0.046 C 
ENDBRANCH  23  35
ENDBRANCH   1  23
TORSDOF 8
