REMARK  Name = ZINC38546390
REMARK  9 active torsions:
REMARK  status: ('A' for Active; 'I' for Inactive)
REMARK    1  A    between atoms: C_1  and  C_2
REMARK    2  A    between atoms: C_2  and  O_3
REMARK    3  A    between atoms: O_3  and  C_4
REMARK    4  A    between atoms: C_4  and  C_6
REMARK    5  A    between atoms: N_9  and  C_12
REMARK    6  A    between atoms: C_12  and  C_14
REMARK    7  A    between atoms: C_12  and  C_20
REMARK    8  A    between atoms: C_24  and  N_25
REMARK    9  A    between atoms: C_26  and  C_28
REMARK                            x       y       z     vdW  Elec       q    Type
REMARK                         _______ _______ _______ _____ _____    ______ ____
ROOT
ATOM      1  C   UNL     1       3.991  -4.703   4.428  0.00  0.00    -0.004 C 
ENDROOT
BRANCH   1   2
ATOM      2  C   UNL     1       4.204  -6.164   4.726  0.00  0.00    -0.025 A 
ATOM      3  C   UNL     1       3.922  -6.668   5.997  0.00  0.00    -0.033 A 
ATOM      4  C   UNL     1       4.140  -7.996   6.188  0.00  0.00    -0.005 A 
ATOM      5  S   UNL     1       4.735  -8.561   4.616  0.00  0.00    -0.078 S 
ATOM      6  C   UNL     1       4.667  -6.997   3.756  0.00  0.00    +0.074 A 
ATOM      7  C   UNL     1       3.925  -8.784   7.440  0.00  0.00    +0.043 C 
ATOM      8  C   UNL     1       3.761  -7.799   8.607  0.00  0.00    +0.005 C 
ATOM      9  C   UNL     1       2.766  -6.710   8.195  0.00  0.00    +0.005 C 
ATOM     10  C   UNL     1       3.394  -5.802   7.137  0.00  0.00    +0.036 C 
BRANCH   6  11
ATOM     11  N   UNL     1       5.003  -6.705   2.432  0.00  0.00    -0.273 N 
ATOM     12  C   UNL     1       5.316  -7.702   1.581  0.00  0.00    +0.284 C 
ATOM     13  O   UNL     1       5.306  -8.857   1.966  0.00  0.00    -0.266 OA
ATOM     14  H   UNL     1       5.011  -5.785   2.126  0.00  0.00    +0.156 HD
BRANCH  12  15
ATOM     15  C   UNL     1       5.669  -7.396   0.191  0.00  0.00    +0.189 A 
ATOM     16  C   UNL     1       5.999  -8.306  -0.772  0.00  0.00    +0.054 A 
ATOM     17  C   UNL     1       6.260  -7.577  -1.943  0.00  0.00    +0.042 A 
ATOM     18  C   UNL     1       6.079  -6.271  -1.647  0.00  0.00    +0.196 A 
ATOM     19  O   UNL     1       5.718  -6.166  -0.362  0.00  0.00    -0.458 OA
ENDBRANCH  12  15
ENDBRANCH   6  11
ENDBRANCH   1   2
BRANCH   1  23
ATOM     20  C   UNL     1       0.891  -3.801   1.647  0.00  0.00    +0.094 C 
ATOM     21  C   UNL     1       2.188  -2.987   1.619  0.00  0.00    -0.004 C 
ATOM     22  C   UNL     1       2.913  -3.147   2.957  0.00  0.00    -0.077 C 
ATOM     23  N   UNL     1       3.227  -4.563   3.181  0.00  0.00    +0.387 N 
ATOM     24  C   UNL     1       1.985  -5.339   3.281  0.00  0.00    -0.077 C 
ATOM     25  C   UNL     1       1.224  -5.263   1.955  0.00  0.00    -0.004 C 
ATOM     26  H   UNL     1       3.778  -4.911   2.411  0.00  0.00    -0.080 HD
BRANCH  20  27
ATOM     27  C   UNL     1       0.211  -3.711   0.305  0.00  0.00    +0.310 C 
ATOM     28  O   UNL     1       0.012  -4.713  -0.340  0.00  0.00    -0.251 OA
BRANCH  27  29
ATOM     29  O   UNL     1      -0.174  -2.518  -0.174  0.00  0.00    -0.465 OA
BRANCH  29  31
ATOM     30  C   UNL     1      -1.177  -1.069  -1.828  0.00  0.00    +0.048 C 
ATOM     31  C   UNL     1      -0.813  -2.507  -1.452  0.00  0.00    +0.229 C 
ENDBRANCH  29  31
ENDBRANCH  27  29
ENDBRANCH  20  27
ENDBRANCH   1  23
BRANCH   1  32
ATOM     32  C   UNL     1       5.326  -4.020   4.278  0.00  0.00    -0.057 A 
ATOM     33  C   UNL     1       5.867  -3.830   3.021  0.00  0.00    +0.002 A 
ATOM     34  C   UNL     1       7.092  -3.204   2.883  0.00  0.00    +0.000 A 
ATOM     35  C   UNL     1       7.776  -2.768   4.003  0.00  0.00    +0.000 A 
ATOM     36  C   UNL     1       7.234  -2.958   5.260  0.00  0.00    +0.000 A 
ATOM     37  C   UNL     1       6.007  -3.580   5.398  0.00  0.00    +0.002 A 
ENDBRANCH   1  32
TORSDOF 8
