REMARK  Name = ZINC21327934
REMARK  12 active torsions:
REMARK  status: ('A' for Active; 'I' for Inactive)
REMARK    1  A    between atoms: C_1  and  O_2
REMARK    2  A    between atoms: O_2  and  C_3
REMARK    3  A    between atoms: C_6  and  C_9
REMARK    4  A    between atoms: C_9  and  C_11
REMARK    5  A    between atoms: C_11  and  S_12
REMARK    6  A    between atoms: S_12  and  C_13
REMARK    7  A    between atoms: N_17  and  N_18
REMARK    8  A    between atoms: N_19  and  N_20
REMARK    9  A    between atoms: C_21  and  C_22
REMARK   10  A    between atoms: C_27  and  O_28
REMARK   11  A    between atoms: O_28  and  C_29
REMARK   12  A    between atoms: C_29  and  C_30
REMARK                            x       y       z     vdW  Elec       q    Type
REMARK                         _______ _______ _______ _____ _____    ______ ____
ROOT
ATOM      1  C   UNL     1       1.277   1.803  -0.000  0.00  0.00    +0.210 A 
ATOM      2  N   UNL     1       2.062   0.752  -0.014  0.00  0.00    -0.119 NA
ATOM      3  N   UNL     1       1.254  -0.392  -0.012  0.00  0.00    -0.109 NA
ATOM      4  C   UNL     1       0.002  -0.004   0.002  0.00  0.00    +0.254 A 
ATOM      5  N   UNL     1      -0.017   1.363   0.009  0.00  0.00    -0.211 N 
ATOM      6  N   UNL     1      -1.109  -0.835   0.009  0.00  0.00    -0.204 N 
ATOM      7  H   UNL     1      -2.120  -0.401   0.021  0.00  0.00    +0.177 HD
ENDROOT
BRANCH   5   8
ATOM      8  N   UNL     1      -1.132   2.151   0.019  0.00  0.00    -0.294 N 
ATOM      9  H   UNL     1      -2.131   1.690   0.027  0.00  0.00    +0.163 HD
ATOM     10  H   UNL     1      -1.032   3.246   0.020  0.00  0.00    +0.163 HD
ENDBRANCH   5   8
BRANCH   6  11
ATOM     11  N   UNL     1      -0.944  -2.226  -0.001  0.00  0.00    -0.187 NA
ATOM     12  C   UNL     1      -1.984  -3.003   0.006  0.00  0.00    +0.142 C 
BRANCH  12  13
ATOM     13  C   UNL     1      -1.810  -4.467  -0.004  0.00  0.00    +0.036 A 
ATOM     14  C   UNL     1      -2.926  -5.307   0.003  0.00  0.00    +0.013 A 
ATOM     15  C   UNL     1      -2.756  -6.676  -0.006  0.00  0.00    +0.001 A 
ATOM     16  C   UNL     1      -1.484  -7.221  -0.022  0.00  0.00    +0.004 A 
ATOM     17  C   UNL     1      -0.371  -6.400  -0.029  0.00  0.00    +0.046 A 
ATOM     18  C   UNL     1      -0.524  -5.024  -0.025  0.00  0.00    +0.130 A 
BRANCH  18  19
ATOM     19  O   UNL     1       0.569  -4.216  -0.038  0.00  0.00    -0.487 OA
BRANCH  19  20
ATOM     20  C   UNL     1       1.847  -4.855  -0.060  0.00  0.00    +0.264 C 
BRANCH  20  21
ATOM     21  C   UNL     1       2.931  -3.808  -0.071  0.00  0.00    -0.010 A 
ATOM     22  C   UNL     1       3.414  -3.327  -1.274  0.00  0.00    +0.008 A 
ATOM     23  C   UNL     1       4.405  -2.363  -1.285  0.00  0.00    +0.020 A 
ATOM     24  C   UNL     1       4.920  -1.888  -0.092  0.00  0.00    +0.041 A 
ATOM     25  C   UNL     1       4.440  -2.374   1.111  0.00  0.00    +0.020 A 
ATOM     26  C   UNL     1       3.446  -3.334   1.121  0.00  0.00    +0.008 A 
ATOM     27 CL   UNL     1       6.169  -0.682  -0.105  0.00  0.00    -0.084 Cl
ENDBRANCH  20  21
ENDBRANCH  19  20
ENDBRANCH  18  19
ENDBRANCH  12  13
ENDBRANCH   6  11
BRANCH   1  28
ATOM     28  S   UNL     1       1.798   3.486   0.004  0.00  0.00    -0.076 S 
BRANCH  28  29
ATOM     29  C   UNL     1       3.609   3.384  -0.014  0.00  0.00    +0.157 C 
BRANCH  29  30
ATOM     30  C   UNL     1       4.191   4.775  -0.012  0.00  0.00    +0.173 C 
ATOM     31  O   UNL     1       3.455   5.739  -0.000  0.00  0.00    -0.291 OA
BRANCH  30  35
ATOM     32  C   UNL     1       8.391   5.314  -0.050  0.00  0.00    +0.120 A 
ATOM     33  C   UNL     1       7.551   6.422  -0.036  0.00  0.00    +0.046 A 
ATOM     34  C   UNL     1       6.190   6.253  -0.024  0.00  0.00    +0.015 A 
ATOM     35  C   UNL     1       5.647   4.962  -0.025  0.00  0.00    +0.018 A 
ATOM     36  C   UNL     1       6.498   3.850  -0.034  0.00  0.00    +0.015 A 
ATOM     37  C   UNL     1       7.857   4.030  -0.051  0.00  0.00    +0.046 A 
BRANCH  32  39
ATOM     38  C   UNL     1      10.542   4.306  -0.076  0.00  0.00    +0.277 C 
ATOM     39  O   UNL     1       9.737   5.487  -0.062  0.00  0.00    -0.495 OA
ENDBRANCH  32  39
ENDBRANCH  30  35
ENDBRANCH  29  30
ENDBRANCH  28  29
ENDBRANCH   1  28
TORSDOF 11
