REMARK  Name = ZINC09281511
REMARK  9 active torsions:
REMARK  status: ('A' for Active; 'I' for Inactive)
REMARK    1  A    between atoms: C_1  and  C_2
REMARK    2  A    between atoms: C_2  and  C_3
REMARK    3  A    between atoms: C_2  and  C_4
REMARK    4  A    between atoms: C_7  and  N_10
REMARK    5  A    between atoms: C_14  and  C_15
REMARK    6  A    between atoms: C_16  and  C_25
REMARK    7  A    between atoms: C_25  and  C_26
REMARK    8  A    between atoms: C_26  and  N_27
REMARK    9  A    between atoms: C_28  and  C_30
REMARK                            x       y       z     vdW  Elec       q    Type
REMARK                         _______ _______ _______ _____ _____    ______ ____
ROOT
ATOM      1  N   UNL     1      -1.588   8.138   7.588  0.00  0.00    -0.190 N 
ATOM      2  C   UNL     1      -1.584   6.895   7.064  0.00  0.00    +0.264 C 
ATOM      3  O   UNL     1      -2.166   5.981   7.617  0.00  0.00    -0.269 OA
ATOM      4  C   UNL     1      -0.854   6.674   5.802  0.00  0.00    +0.102 C 
ATOM      5  C   UNL     1      -0.805   5.424   5.204  0.00  0.00    +0.044 C 
ATOM      6  C   UNL     1      -0.173   7.839   5.207  0.00  0.00    +0.257 C 
ATOM      7  O   UNL     1       0.454   7.735   4.170  0.00  0.00    -0.270 OA
ATOM      8  N   UNL     1      -0.268   9.026   5.843  0.00  0.00    -0.235 N 
ATOM      9  C   UNL     1      -0.951   9.154   6.989  0.00  0.00    +0.320 C 
ATOM     10  O   UNL     1      -0.994  10.249   7.513  0.00  0.00    -0.251 OA
ATOM     11  H   UNL     1       0.170   9.803   5.463  0.00  0.00    +0.159 HD
ENDROOT
BRANCH   5  12
ATOM     12  C   UNL     1      -1.622   4.380   5.684  0.00  0.00    +0.044 A 
ATOM     13  C   UNL     1      -1.248   3.058   5.803  0.00  0.00    -0.013 A 
ATOM     14  C   UNL     1      -2.352   2.349   6.326  0.00  0.00    +0.003 A 
ATOM     15  C   UNL     1      -2.558   1.002   6.660  0.00  0.00    +0.010 A 
ATOM     16  C   UNL     1      -3.764   0.604   7.158  0.00  0.00    +0.001 A 
ATOM     17  C   UNL     1      -4.793   1.520   7.339  0.00  0.00    +0.002 A 
ATOM     18  C   UNL     1      -4.616   2.848   7.020  0.00  0.00    +0.026 A 
ATOM     19  C   UNL     1      -3.395   3.281   6.510  0.00  0.00    +0.047 A 
ATOM     20  N   UNL     1      -2.932   4.512   6.109  0.00  0.00    -0.354 N 
ATOM     21  H   UNL     1      -3.439   5.339   6.125  0.00  0.00    +0.166 HD
BRANCH  13  22
ATOM     22  C   UNL     1       0.096   2.476   5.447  0.00  0.00    +0.056 C 
BRANCH  22  23
ATOM     23  C   UNL     1       0.083   2.019   3.986  0.00  0.00    +0.109 C 
BRANCH  23  24
ATOM     24  N   UNL     1       1.389   1.454   3.640  0.00  0.00    -0.315 N 
ATOM     25  C   UNL     1       1.611   0.983   2.397  0.00  0.00    +0.210 C 
ATOM     26  O   UNL     1       0.730   1.028   1.565  0.00  0.00    -0.276 OA
ATOM     27  C   UNL     1       2.955   0.401   2.040  0.00  0.00    +0.109 C 
ATOM     28  H   UNL     1       2.094   1.418   4.305  0.00  0.00    +0.149 HD
ENDBRANCH  23  24
ENDBRANCH  22  23
ENDBRANCH  13  22
ENDBRANCH   5  12
BRANCH   1  32
ATOM     29  C   UNL     1      -3.632   8.836  11.153  0.00  0.00    -0.045 A 
ATOM     30  C   UNL     1      -4.239   9.120   9.943  0.00  0.00    +0.006 A 
ATOM     31  C   UNL     1      -3.564   8.890   8.760  0.00  0.00    +0.024 A 
ATOM     32  C   UNL     1      -2.275   8.373   8.787  0.00  0.00    +0.046 A 
ATOM     33  C   UNL     1      -1.671   8.083  10.003  0.00  0.00    +0.024 A 
ATOM     34  C   UNL     1      -2.349   8.321  11.183  0.00  0.00    +0.006 A 
BRANCH  29  36
ATOM     35  C   UNL     1      -4.518   7.775  13.212  0.00  0.00    +0.012 C 
ATOM     36  C   UNL     1      -4.371   9.089  12.442  0.00  0.00    +0.013 C 
ATOM     37  C   UNL     1      -3.588  10.093  13.290  0.00  0.00    +0.012 C 
ENDBRANCH  29  36
ENDBRANCH   1  32
TORSDOF 6
