REMARK  Name = ZINC37358828
REMARK  6 active torsions:
REMARK  status: ('A' for Active; 'I' for Inactive)
REMARK    1  A    between atoms: C_5  and  C_7
REMARK    2  A    between atoms: C_9  and  N_32
REMARK    3  A    between atoms: N_10  and  C_25
REMARK    4  A    between atoms: N_16  and  C_17
REMARK    5  A    between atoms: C_17  and  C_18
REMARK    6  A    between atoms: C_18  and  C_19
REMARK                            x       y       z     vdW  Elec       q    Type
REMARK                         _______ _______ _______ _____ _____    ______ ____
ROOT
ATOM      1  C   UNL     1       1.215  -2.166  -0.262  0.00  0.00    +0.091 A 
ATOM      2  C   UNL     1       0.039  -2.911  -0.021  0.00  0.00    +0.086 A 
ATOM      3  C   UNL     1      -1.298  -2.613   0.212  0.00  0.00    +0.131 A 
ATOM      4  N   UNL     1      -1.951  -3.781   0.373  0.00  0.00    -0.216 N 
ATOM      5  N   UNL     1      -1.056  -4.849   0.248  0.00  0.00    -0.144 NA
ATOM      6  C   UNL     1       0.151  -4.381   0.011  0.00  0.00    +0.189 A 
ATOM      7  N   UNL     1       1.366  -4.925  -0.192  0.00  0.00    -0.193 NA
ATOM      8  C   UNL     1       2.412  -4.154  -0.410  0.00  0.00    +0.218 A 
ATOM      9  N   UNL     1       2.351  -2.827  -0.451  0.00  0.00    -0.214 NA
ATOM     10  N   UNL     1       3.639  -4.759  -0.613  0.00  0.00    -0.313 N 
ATOM     11  H   UNL     1       4.426  -4.216  -0.776  0.00  0.00    +0.149 HD
ENDROOT
BRANCH   1  16
ATOM     12  C   UNL     1       0.678   1.415   0.738  0.00  0.00    +0.001 A 
ATOM     13  C   UNL     1       1.115   2.081  -0.394  0.00  0.00    +0.003 A 
ATOM     14  C   UNL     1       1.584   1.372  -1.484  0.00  0.00    +0.039 A 
ATOM     15  C   UNL     1       1.620  -0.010  -1.448  0.00  0.00    +0.133 A 
ATOM     16  C   UNL     1       1.181  -0.688  -0.308  0.00  0.00    +0.036 A 
ATOM     17  C   UNL     1       0.709   0.037   0.787  0.00  0.00    +0.013 A 
ATOM     18  F   UNL     1       2.078  -0.704  -2.514  0.00  0.00    -0.205 F 
ENDBRANCH   1  16
BRANCH   4  19
ATOM     19  C   UNL     1      -3.322  -3.906   0.628  0.00  0.00    +0.068 A 
ATOM     20  C   UNL     1      -3.974  -2.962   1.411  0.00  0.00    +0.030 A 
ATOM     21  C   UNL     1      -5.326  -3.088   1.661  0.00  0.00    +0.040 A 
ATOM     22  C   UNL     1      -6.032  -4.155   1.133  0.00  0.00    +0.124 A 
ATOM     23  C   UNL     1      -5.385  -5.098   0.353  0.00  0.00    +0.040 A 
ATOM     24  C   UNL     1      -4.034  -4.973   0.095  0.00  0.00    +0.030 A 
ATOM     25  F   UNL     1      -7.355  -4.276   1.379  0.00  0.00    -0.205 F 
ENDBRANCH   4  19
BRANCH   3  26
ATOM     26  N   UNL     1      -1.855  -1.350   0.269  0.00  0.00    -0.342 N 
ATOM     27  H   UNL     1      -1.296  -0.567   0.147  0.00  0.00    +0.144 HD
ATOM     28  H   UNL     1      -2.806  -1.246   0.432  0.00  0.00    +0.144 HD
ENDBRANCH   3  26
BRANCH  10  29
ATOM     29  C   UNL     1       3.750  -6.219  -0.581  0.00  0.00    +0.110 C 
BRANCH  29  30
ATOM     30  C   UNL     1       5.204  -6.626  -0.831  0.00  0.00    +0.074 C 
BRANCH  30  31
ATOM     31  C   UNL     1       5.318  -8.128  -0.798  0.00  0.00    +0.043 A 
ATOM     32  C   UNL     1       5.875  -8.795  -1.874  0.00  0.00    +0.023 A 
ATOM     33  C   UNL     1       5.975 -10.177  -1.833  0.00  0.00    +0.003 A 
ATOM     34  C   UNL     1       5.510 -10.840  -0.708  0.00  0.00    +0.020 A 
ATOM     35  C   UNL     1       4.966 -10.106   0.329  0.00  0.00    +0.111 A 
ATOM     36  N   UNL     1       4.891  -8.791   0.258  0.00  0.00    -0.260 NA
ENDBRANCH  30  31
ENDBRANCH  29  30
ENDBRANCH  10  29
TORSDOF 6
