REMARK  Name = ZINC36500959
REMARK  14 active torsions:
REMARK  status: ('A' for Active; 'I' for Inactive)
REMARK    1  A    between atoms: C_1  and  C_2
REMARK    2  A    between atoms: C_2  and  C_3
REMARK    3  A    between atoms: C_2  and  C_4
REMARK    4  A    between atoms: C_2  and  N_5
REMARK    5  A    between atoms: C_6  and  C_8
REMARK    6  A    between atoms: C_8  and  C_10
REMARK    7  A    between atoms: C_8  and  N_19
REMARK    8  A    between atoms: C_11  and  O_18
REMARK    9  A    between atoms: C_13  and  O_17
REMARK   10  A    between atoms: C_15  and  O_16
REMARK   11  A    between atoms: N_19  and  C_20
REMARK   12  A    between atoms: C_20  and  C_21
REMARK   13  A    between atoms: C_26  and  C_28
REMARK   14  A    between atoms: C_28  and  C_29
REMARK                            x       y       z     vdW  Elec       q    Type
REMARK                         _______ _______ _______ _____ _____    ______ ____
ROOT
ATOM      1  C   UNL     1       2.770  -0.288  -2.926  0.00  0.00    +0.200 C 
ENDROOT
BRANCH   1   2
ATOM      2  C   UNL     1       2.681  -1.669  -3.524  0.00  0.00    +0.065 A 
ATOM      3  C   UNL     1       3.436  -2.704  -2.994  0.00  0.00    +0.129 A 
ATOM      4  C   UNL     1       3.354  -3.974  -3.544  0.00  0.00    +0.091 A 
ATOM      5  C   UNL     1       2.517  -4.210  -4.624  0.00  0.00    +0.124 A 
ATOM      6  C   UNL     1       1.762  -3.175  -5.154  0.00  0.00    +0.091 A 
ATOM      7  C   UNL     1       1.840  -1.905  -4.601  0.00  0.00    +0.129 A 
BRANCH   7   8
ATOM      8  O   UNL     1       1.096  -0.892  -5.118  0.00  0.00    -0.506 OA
ATOM      9  H   UNL     1       1.538  -0.400  -5.824  0.00  0.00    +0.292 HD
ENDBRANCH   7   8
BRANCH   5  10
ATOM     10  O   UNL     1       2.438  -5.454  -5.164  0.00  0.00    -0.507 OA
ATOM     11  H   UNL     1       1.756  -6.013  -4.766  0.00  0.00    +0.292 HD
ENDBRANCH   5  10
BRANCH   3  12
ATOM     12  O   UNL     1       4.256  -2.474  -1.935  0.00  0.00    -0.506 OA
ATOM     13  H   UNL     1       3.824  -2.567  -1.075  0.00  0.00    +0.292 HD
ENDBRANCH   3  12
ENDBRANCH   1   2
BRANCH   1  15
ATOM     14  N   UNL     1       0.811  -0.267  -1.416  0.00  0.00    -0.309 N 
ATOM     15  C   UNL     1       2.152  -0.295  -1.552  0.00  0.00    +0.239 C 
ATOM     16  O   UNL     1       2.861  -0.327  -0.569  0.00  0.00    -0.273 OA
ATOM     17  H   UNL     1       0.244  -0.243  -2.202  0.00  0.00    +0.149 HD
BRANCH  14  19
ATOM     18  C   UNL     1       0.687   0.953   0.700  0.00  0.00    +0.031 C 
ATOM     19  C   UNL     1       0.210  -0.274  -0.080  0.00  0.00    +0.026 C 
ATOM     20  C   UNL     1       0.631  -1.545   0.662  0.00  0.00    +0.031 C 
ATOM     21  C   UNL     1      -1.314  -0.238  -0.206  0.00  0.00    +0.031 C 
ENDBRANCH  14  19
ENDBRANCH   1  15
BRANCH   1  22
ATOM     22  N   UNL     1       4.176   0.112  -2.828  0.00  0.00    -0.278 N 
ATOM     23  C   UNL     1       5.031  -0.180  -3.828  0.00  0.00    +0.221 C 
ATOM     24  O   UNL     1       4.637  -0.773  -4.809  0.00  0.00    -0.275 OA
BRANCH  22  25
ATOM     25  C   UNL     1       4.652   0.828  -1.642  0.00  0.00    +0.183 C 
BRANCH  25  26
ATOM     26  C   UNL     1       5.427  -0.118  -0.761  0.00  0.00    +0.122 A 
ATOM     27  C   UNL     1       6.755  -0.324  -0.805  0.00  0.00    +0.046 A 
ATOM     28  C   UNL     1       7.054  -1.284   0.189  0.00  0.00    +0.041 A 
ATOM     29  C   UNL     1       5.891  -1.608   0.780  0.00  0.00    +0.195 A 
ATOM     30  O   UNL     1       4.909  -0.895   0.205  0.00  0.00    -0.466 OA
ENDBRANCH  25  26
ENDBRANCH  22  25
BRANCH  23  31
ATOM     31  C   UNL     1       6.477   0.232  -3.726  0.00  0.00    +0.132 C 
BRANCH  31  32
ATOM     32  C   UNL     1       7.213  -0.209  -4.965  0.00  0.00    -0.019 A 
ATOM     33  C   UNL     1       7.893  -1.413  -4.973  0.00  0.00    +0.005 A 
ATOM     34  C   UNL     1       8.569  -1.819  -6.109  0.00  0.00    +0.002 A 
ATOM     35  C   UNL     1       8.565  -1.021  -7.238  0.00  0.00    +0.021 A 
ATOM     36  C   UNL     1       7.886   0.184  -7.231  0.00  0.00    +0.060 A 
ATOM     37  C   UNL     1       7.204   0.587  -6.095  0.00  0.00    +0.063 A 
ATOM     38 CL   UNL     1       6.344   2.095  -6.088  0.00  0.00    -0.082 Cl
ATOM     39 CL   UNL     1       7.881   1.186  -8.649  0.00  0.00    -0.082 Cl
ENDBRANCH  31  32
ENDBRANCH  23  31
ENDBRANCH   1  22
TORSDOF 11
