REMARK  Name = ZINC35640817
REMARK  10 active torsions:
REMARK  status: ('A' for Active; 'I' for Inactive)
REMARK    1  A    between atoms: C_1  and  C_2
REMARK    2  A    between atoms: C_2  and  N_3
REMARK    3  A    between atoms: C_4  and  C_21
REMARK    4  A    between atoms: C_5  and  C_16
REMARK    5  A    between atoms: C_6  and  C_11
REMARK    6  A    between atoms: C_16  and  O_18
REMARK    7  A    between atoms: O_18  and  C_19
REMARK    8  A    between atoms: C_19  and  C_20
REMARK    9  A    between atoms: C_21  and  N_22
REMARK   10  A    between atoms: C_26  and  C_29
REMARK                            x       y       z     vdW  Elec       q    Type
REMARK                         _______ _______ _______ _____ _____    ______ ____
ROOT
ATOM      1  N   UNL     1       0.743  -0.444  -1.190  0.00  0.00    -0.258 N 
ATOM      2  C   UNL     1      -0.033  -0.577  -2.306  0.00  0.00    +0.041 C 
ATOM      3  C   UNL     1       0.484  -1.045  -3.463  0.00  0.00    +0.080 C 
ATOM      4  C   UNL     1       1.952  -1.418  -3.479  0.00  0.00    +0.144 C 
ATOM      5  N   UNL     1       2.701  -1.237  -2.224  0.00  0.00    -0.288 N 
ATOM      6  C   UNL     1       2.045  -0.754  -1.151  0.00  0.00    +0.307 C 
ATOM      7  O   UNL     1       2.655  -0.597  -0.111  0.00  0.00    -0.252 OA
ATOM      8  H   UNL     1       3.644  -1.458  -2.172  0.00  0.00    +0.151 HD
ENDROOT
BRANCH   4   9
ATOM      9  C   UNL     1       2.059  -2.867  -3.879  0.00  0.00    -0.015 A 
ATOM     10  C   UNL     1       2.387  -3.215  -5.176  0.00  0.00    +0.013 A 
ATOM     11  C   UNL     1       2.475  -4.527  -5.503  0.00  0.00    +0.045 A 
ATOM     12  S   UNL     1       2.088  -5.321  -3.951  0.00  0.00    -0.105 S 
ATOM     13  C   UNL     1       1.841  -3.849  -2.971  0.00  0.00    +0.051 A 
ENDBRANCH   4   9
BRANCH   1  15
ATOM     14  C   UNL     1       0.231   1.596   0.058  0.00  0.00    +0.025 C 
ATOM     15  C   UNL     1       0.117   0.070   0.030  0.00  0.00    +0.111 C 
ENDBRANCH   1  15
BRANCH   3  16
ATOM     16  C   UNL     1      -0.319  -1.183  -4.619  0.00  0.00    +0.339 C 
ATOM     17  O   UNL     1      -0.764  -2.274  -4.924  0.00  0.00    -0.245 OA
BRANCH  16  18
ATOM     18  O   UNL     1      -0.592  -0.106  -5.384  0.00  0.00    -0.462 OA
BRANCH  18  19
ATOM     19  C   UNL     1      -1.409  -0.319  -6.537  0.00  0.00    +0.229 C 
ATOM     20  C   UNL     1      -1.607   1.008  -7.274  0.00  0.00    +0.048 C 
ENDBRANCH  18  19
ENDBRANCH  16  18
ENDBRANCH   3  16
BRANCH   2  21
ATOM     21  C   UNL     1      -1.489  -0.194  -2.246  0.00  0.00    +0.136 C 
BRANCH  21  22
ATOM     22  N   UNL     1      -2.202  -1.119  -1.354  0.00  0.00    -0.300 NA
ATOM     23  C   UNL     1      -2.225  -2.477  -1.914  0.00  0.00    +0.066 C 
ATOM     24  C   UNL     1      -2.922  -3.419  -0.930  0.00  0.00    -0.067 C 
ATOM     25  N   UNL     1      -4.292  -2.948  -0.686  0.00  0.00    +0.382 N 
ATOM     26  C   UNL     1      -4.251  -1.599  -0.105  0.00  0.00    -0.061 C 
ATOM     27  C   UNL     1      -3.565  -0.642  -1.082  0.00  0.00    +0.069 C 
ATOM     28  C   UNL     1      -5.678  -1.117   0.165  0.00  0.00    -0.012 C 
ATOM     29  H   UNL     1      -4.799  -2.922  -1.559  0.00  0.00    -0.085 HD
ATOM     30  H   UNL     1      -4.755  -3.576  -0.047  0.00  0.00    -0.085 HD
ENDBRANCH  21  22
ENDBRANCH   2  21
TORSDOF 7
