REMARK  Name = ZINC32109289
REMARK  2 active torsions:
REMARK  status: ('A' for Active; 'I' for Inactive)
REMARK    1  A    between atoms: C_6  and  C_7
REMARK    2  A    between atoms: C_20  and  C_23
REMARK                            x       y       z     vdW  Elec       q    Type
REMARK                         _______ _______ _______ _____ _____    ______ ____
ROOT
ATOM      1  C   UNL     1       1.096   6.666  -0.560  0.00  0.00    +0.105 C 
ATOM      2  C   UNL     1       2.504   6.772   0.032  0.00  0.00    +0.029 C 
ATOM      3  C   UNL     1       3.348   7.679  -0.906  0.00  0.00    +0.033 C 
ATOM      4  C   UNL     1       3.796   6.737  -2.006  0.00  0.00    -0.030 C 
ATOM      5  C   UNL     1       3.737   5.494  -1.598  0.00  0.00    -0.023 C 
ATOM      6  C   UNL     1       3.235   5.427  -0.173  0.00  0.00    +0.049 C 
ATOM      7  C   UNL     1       2.304   4.263   0.004  0.00  0.00    -0.018 A 
ATOM      8  C   UNL     1       2.851   2.988   0.000  0.00  0.00    +0.021 A 
ATOM      9  C   UNL     1       2.051   1.869   0.150  0.00  0.00    +0.019 A 
ATOM     10  C   UNL     1       0.688   2.006   0.300  0.00  0.00    +0.032 A 
ATOM     11  C   UNL     1       0.120   3.281   0.313  0.00  0.00    +0.085 A 
ATOM     12  C   UNL     1       0.938   4.418   0.163  0.00  0.00    +0.046 A 
ATOM     13  N   UNL     1       0.331   5.664   0.183  0.00  0.00    -0.336 N 
ATOM     14 BR   UNL     1       2.830   0.146   0.140  0.00  0.00    -0.050 Br
ATOM     15  H   UNL     1      -0.612   5.946   0.676  0.00  0.00    +0.147 HD
ENDROOT
BRANCH   1  21
ATOM     16  C   UNL     1       0.992   4.935  -2.365  0.00  0.00    +0.006 A 
ATOM     17  C   UNL     1       1.072   4.560  -3.693  0.00  0.00    +0.015 A 
ATOM     18  C   UNL     1       1.359   5.504  -4.662  0.00  0.00    +0.018 A 
ATOM     19  C   UNL     1       1.561   6.824  -4.303  0.00  0.00    +0.015 A 
ATOM     20  C   UNL     1       1.476   7.200  -2.975  0.00  0.00    +0.006 A 
ATOM     21  C   UNL     1       1.189   6.256  -2.007  0.00  0.00    -0.027 A 
ATOM     22 BR   UNL     1       1.475   4.990  -6.478  0.00  0.00    -0.050 Br
ENDBRANCH   1  21
BRANCH  11  23
ATOM     23  C   UNL     1      -1.336   3.437   0.479  0.00  0.00    +0.388 C 
ATOM     24  O   UNL     1      -1.831   4.547   0.486  0.00  0.00    -0.241 OA
ATOM     25  O   UNL     1      -2.118   2.349   0.623  0.00  0.00    -0.241 OA
ENDBRANCH  11  23
TORSDOF 2
