REMARK  Name = ZINC08936811
REMARK  6 active torsions:
REMARK  status: ('A' for Active; 'I' for Inactive)
REMARK    1  A    between atoms: C_1  and  C_2
REMARK    2  A    between atoms: C_2  and  C_3
REMARK    3  A    between atoms: C_13  and  C_15
REMARK    4  A    between atoms: C_15  and  N_16
REMARK    5  A    between atoms: C_19  and  C_23
REMARK    6  A    between atoms: C_19  and  C_24
REMARK                            x       y       z     vdW  Elec       q    Type
REMARK                         _______ _______ _______ _____ _____    ______ ____
ROOT
ATOM      1  C   UNL     1      -2.143   1.058   1.278  0.00  0.00    -0.046 A 
ATOM      2  C   UNL     1      -2.436  -0.161   1.873  0.00  0.00    +0.006 A 
ATOM      3  C   UNL     1      -3.712  -0.658   1.896  0.00  0.00    +0.029 A 
ATOM      4  C   UNL     1      -4.779   0.062   1.310  0.00  0.00    +0.080 A 
ATOM      5  C   UNL     1      -4.444   1.299   0.714  0.00  0.00    +0.041 A 
ATOM      6  C   UNL     1      -3.162   1.791   0.700  0.00  0.00    +0.021 A 
ATOM      7  S   UNL     1      -6.016   1.868   0.113  0.00  0.00    -0.052 S 
ATOM      8  C   UNL     1      -6.987   0.475   0.671  0.00  0.00    +0.165 A 
ATOM      9  N   UNL     1      -6.083  -0.283   1.247  0.00  0.00    -0.225 NA
ATOM     10  N   UNL     1      -8.347   0.253   0.532  0.00  0.00    -0.263 N 
ATOM     11  C   UNL     1      -8.900  -0.872   1.028  0.00  0.00    +0.237 C 
ATOM     12  O   UNL     1      -8.207  -1.690   1.595  0.00  0.00    -0.274 OA
ATOM     13  H   UNL     1      -8.902   0.907   0.079  0.00  0.00    +0.157 HD
ENDROOT
BRANCH   1  15
ATOM     14  C   UNL     1      -0.013   1.086   0.008  0.00  0.00    +0.009 C 
ATOM     15  C   UNL     1      -0.729   1.579   1.267  0.00  0.00    +0.032 C 
ENDBRANCH   1  15
BRANCH  11  16
ATOM     16  C   UNL     1     -10.380  -1.114   0.876  0.00  0.00    +0.214 C 
BRANCH  16  17
ATOM     17  N   UNL     1     -10.731  -2.395   1.493  0.00  0.00    -0.215 N 
ATOM     18  C   UNL     1     -10.734  -3.574   0.840  0.00  0.00    +0.246 C 
ATOM     19  O   UNL     1     -10.457  -3.767  -0.324  0.00  0.00    -0.273 OA
ATOM     20  C   UNL     1     -11.153  -4.609   1.865  0.00  0.00    +0.107 C 
ATOM     21  N   UNL     1     -11.365  -3.818   3.090  0.00  0.00    -0.285 N 
ATOM     22  C   UNL     1     -11.094  -2.539   2.773  0.00  0.00    +0.310 C 
ATOM     23  O   UNL     1     -11.169  -1.617   3.562  0.00  0.00    -0.252 OA
ATOM     24  C   UNL     1     -10.045  -5.643   2.077  0.00  0.00    +0.041 C 
ATOM     25  C   UNL     1     -12.453  -5.292   1.434  0.00  0.00    +0.041 C 
ATOM     26  H   UNL     1     -11.645  -4.154   3.955  0.00  0.00    +0.151 HD
ENDBRANCH  16  17
ENDBRANCH  11  16
TORSDOF 3
