REMARK  Name = ZINC38673033
REMARK  8 active torsions:
REMARK  status: ('A' for Active; 'I' for Inactive)
REMARK    1  A    between atoms: C_1  and  N_2
REMARK    2  A    between atoms: N_5  and  C_8
REMARK    3  A    between atoms: C_8  and  C_10
REMARK    4  A    between atoms: C_8  and  C_28
REMARK    5  A    between atoms: C_10  and  N_11
REMARK    6  A    between atoms: C_12  and  C_14
REMARK    7  A    between atoms: N_19  and  C_21
REMARK    8  A    between atoms: N_37  and  C_38
REMARK                            x       y       z     vdW  Elec       q    Type
REMARK                         _______ _______ _______ _____ _____    ______ ____
ROOT
ATOM      1  C   UNL     1       1.461  -3.973  -0.039  0.00  0.00    +0.104 C 
ENDROOT
BRANCH   1   2
ATOM      2  C   UNL     1       2.165  -4.573   1.150  0.00  0.00    -0.028 A 
ATOM      3  C   UNL     1       3.336  -4.004   1.618  0.00  0.00    +0.007 A 
ATOM      4  C   UNL     1       3.982  -4.554   2.707  0.00  0.00    +0.024 A 
ATOM      5  C   UNL     1       3.455  -5.679   3.333  0.00  0.00    +0.033 A 
ATOM      6  C   UNL     1       2.280  -6.246   2.865  0.00  0.00    -0.026 A 
ATOM      7  C   UNL     1       1.637  -5.686   1.774  0.00  0.00    +0.010 A 
ATOM      8  C   UNL     1       1.675  -7.458   3.525  0.00  0.00    +0.038 C 
ATOM      9  C   UNL     1       2.729  -8.206   4.341  0.00  0.00    +0.024 C 
ATOM     10  C   UNL     1       3.433  -7.210   5.272  0.00  0.00    +0.105 C 
ATOM     11  N   UNL     1       4.127  -6.224   4.432  0.00  0.00    -0.333 N 
ATOM     12  C   UNL     1       5.501  -5.819   4.740  0.00  0.00    +0.129 C 
ENDBRANCH   1   2
BRANCH   1  17
ATOM     13  C   UNL     1       0.481   1.569   0.247  0.00  0.00    -0.096 C 
ATOM     14  N   UNL     1       0.370   0.106   0.160  0.00  0.00    +0.379 N 
ATOM     15  C   UNL     1       1.060  -0.366  -1.048  0.00  0.00    -0.064 C 
ATOM     16  C   UNL     1       0.929  -1.887  -1.149  0.00  0.00    +0.066 C 
ATOM     17  N   UNL     1       1.517  -2.507   0.046  0.00  0.00    -0.297 NA
ATOM     18  C   UNL     1       0.853  -2.025   1.265  0.00  0.00    +0.066 C 
ATOM     19  C   UNL     1       0.985  -0.503   1.347  0.00  0.00    -0.064 C 
ATOM     20  H   UNL     1      -0.604  -0.155   0.114  0.00  0.00    -0.082 HD
ENDBRANCH   1  17
BRANCH   1  21
ATOM     21  C   UNL     1       2.149  -4.435  -1.326  0.00  0.00    +0.127 C 
BRANCH  21  22
ATOM     22  N   UNL     1       2.024  -5.889  -1.451  0.00  0.00    -0.313 N 
ATOM     23  C   UNL     1       2.644  -6.535  -2.458  0.00  0.00    +0.218 C 
ATOM     24  O   UNL     1       3.305  -5.912  -3.261  0.00  0.00    -0.275 OA
ATOM     25  H   UNL     1       1.494  -6.388  -0.808  0.00  0.00    +0.149 HD
BRANCH  23  26
ATOM     26  C   UNL     1       2.515  -8.031  -2.587  0.00  0.00    +0.101 C 
ATOM     27  C   UNL     1       3.162  -8.748  -1.379  0.00  0.00    +0.110 C 
ATOM     28  C   UNL     1       3.794  -9.985  -1.978  0.00  0.00    +0.221 C 
ATOM     29  O   UNL     1       4.159 -10.954  -1.345  0.00  0.00    -0.275 OA
ATOM     30  N   UNL     1       3.892  -9.855  -3.312  0.00  0.00    -0.271 N 
ATOM     31  C   UNL     1       3.367  -8.560  -3.762  0.00  0.00    +0.127 C 
BRANCH  30  32
ATOM     32  C   UNL     1       4.426 -10.829  -4.163  0.00  0.00    +0.036 A 
ATOM     33  C   UNL     1       4.999 -11.978  -3.633  0.00  0.00    +0.025 A 
ATOM     34  C   UNL     1       5.525 -12.938  -4.475  0.00  0.00    +0.022 A 
ATOM     35  C   UNL     1       5.481 -12.756  -5.846  0.00  0.00    +0.041 A 
ATOM     36  C   UNL     1       4.910 -11.613  -6.377  0.00  0.00    +0.022 A 
ATOM     37  C   UNL     1       4.377 -10.652  -5.540  0.00  0.00    +0.025 A 
ATOM     38 CL   UNL     1       6.143 -13.964  -6.902  0.00  0.00    -0.084 Cl
ENDBRANCH  30  32
ENDBRANCH  23  26
ENDBRANCH  21  22
ENDBRANCH   1  21
TORSDOF 6
