REMARK  Name = ZINC21869916
REMARK  13 active torsions:
REMARK  status: ('A' for Active; 'I' for Inactive)
REMARK    1  A    between atoms: C_1  and  N_2
REMARK    2  A    between atoms: N_2  and  C_3
REMARK    3  A    between atoms: N_2  and  C_4
REMARK    4  A    between atoms: C_4  and  C_6
REMARK    5  A    between atoms: C_4  and  C_34
REMARK    6  A    between atoms: C_6  and  N_7
REMARK    7  A    between atoms: C_8  and  C_10
REMARK    8  A    between atoms: C_10  and  C_11
REMARK    9  A    between atoms: C_11  and  C_12
REMARK   10  A    between atoms: C_15  and  C_26
REMARK   11  A    between atoms: C_18  and  C_20
REMARK   12  A    between atoms: C_29  and  O_32
REMARK   13  A    between atoms: O_32  and  C_33
REMARK                            x       y       z     vdW  Elec       q    Type
REMARK                         _______ _______ _______ _____ _____    ______ ____
ROOT
ATOM      1  C   UNL     1      -5.373  -3.888   0.759  0.00  0.00    +0.236 C 
ATOM      2  O   UNL     1      -6.154  -3.000   1.032  0.00  0.00    -0.274 OA
ATOM      3  N   UNL     1      -5.832  -5.087   0.349  0.00  0.00    -0.185 N 
ATOM      4  C   UNL     1      -7.248  -5.454   0.194  0.00  0.00    +0.137 C 
ATOM      5  C   UNL     1      -7.192  -6.915  -0.294  0.00  0.00    +0.087 C 
ATOM      6  C   UNL     1      -5.713  -7.222  -0.354  0.00  0.00    +0.069 C 
ATOM      7  N   UNL     1      -5.043  -6.183   0.008  0.00  0.00    -0.181 NA
ENDROOT
BRANCH   6   8
ATOM      8  C   UNL     1      -5.127  -8.512  -0.765  0.00  0.00    -0.002 A 
ATOM      9  C   UNL     1      -5.957  -9.573  -1.134  0.00  0.00    +0.010 A 
ATOM     10  C   UNL     1      -5.402 -10.775  -1.522  0.00  0.00    +0.001 A 
ATOM     11  C   UNL     1      -4.028 -10.934  -1.536  0.00  0.00    +0.000 A 
ATOM     12  C   UNL     1      -3.200  -9.889  -1.166  0.00  0.00    +0.001 A 
ATOM     13  C   UNL     1      -3.741  -8.679  -0.781  0.00  0.00    +0.010 A 
ENDBRANCH   6   8
BRANCH   4  14
ATOM     14  C   UNL     1      -7.968  -5.360   1.515  0.00  0.00    -0.024 A 
ATOM     15  C   UNL     1      -7.335  -5.765   2.675  0.00  0.00    +0.009 A 
ATOM     16  C   UNL     1      -7.991  -5.675   3.888  0.00  0.00    +0.046 A 
ATOM     17  C   UNL     1      -9.289  -5.189   3.939  0.00  0.00    +0.120 A 
ATOM     18  C   UNL     1      -9.924  -4.789   2.772  0.00  0.00    +0.046 A 
ATOM     19  C   UNL     1      -9.262  -4.876   1.563  0.00  0.00    +0.009 A 
BRANCH  17  20
ATOM     20  O   UNL     1      -9.938  -5.105   5.130  0.00  0.00    -0.495 OA
ATOM     21  C   UNL     1      -9.223  -5.534   6.291  0.00  0.00    +0.277 C 
ENDBRANCH  17  20
ENDBRANCH   4  14
BRANCH   1  22
ATOM     22  C   UNL     1      -3.890  -3.650   0.880  0.00  0.00    +0.107 C 
BRANCH  22  23
ATOM     23  C   UNL     1      -3.640  -2.219   1.361  0.00  0.00    +0.105 C 
BRANCH  23  25
ATOM     24  N   UNL     1      -1.698  -0.782   1.892  0.00  0.00    -0.317 N 
ATOM     25  C   UNL     1      -2.157  -1.981   1.482  0.00  0.00    +0.213 C 
ATOM     26  O   UNL     1      -1.376  -2.868   1.209  0.00  0.00    -0.276 OA
ATOM     27  H   UNL     1      -2.406   0.023   2.139  0.00  0.00    +0.149 HD
BRANCH  24  28
ATOM     28  C   UNL     1      -0.256  -0.551   2.009  0.00  0.00    +0.093 C 
BRANCH  28  29
ATOM     29  C   UNL     1      -0.007   0.880   2.490  0.00  0.00    -0.021 C 
BRANCH  29  30
ATOM     30  C   UNL     1       1.474   1.158   2.494  0.00  0.00    -0.059 A 
ATOM     31  C   UNL     1       2.206   1.019   1.329  0.00  0.00    +0.002 A 
ATOM     32  C   UNL     1       3.564   1.278   1.331  0.00  0.00    +0.000 A 
ATOM     33  C   UNL     1       4.192   1.667   2.499  0.00  0.00    +0.000 A 
ATOM     34  C   UNL     1       3.461   1.801   3.665  0.00  0.00    +0.000 A 
ATOM     35  C   UNL     1       2.102   1.546   3.662  0.00  0.00    +0.002 A 
ENDBRANCH  29  30
BRANCH  29  37
ATOM     36  C   UNL     1      -0.713   1.308   0.214  0.00  0.00    -0.096 C 
ATOM     37  N   UNL     1      -0.680   1.825   1.589  0.00  0.00    +0.382 N 
ATOM     38  C   UNL     1      -0.042   3.147   1.639  0.00  0.00    -0.096 C 
ATOM     39  H   UNL     1      -1.719   1.938   1.933  0.00  0.00    -0.082 HD
ENDBRANCH  29  37
ENDBRANCH  28  29
ENDBRANCH  24  28
ENDBRANCH  23  25
ENDBRANCH  22  23
ENDBRANCH   1  22
TORSDOF 10
