REMARK  Name = ZINC14647761
REMARK  10 active torsions:
REMARK  status: ('A' for Active; 'I' for Inactive)
REMARK    1  A    between atoms: C_1  and  C_2
REMARK    2  A    between atoms: C_2  and  C_3
REMARK    3  A    between atoms: C_3  and  O_4
REMARK    4  A    between atoms: O_4  and  C_5
REMARK    5  A    between atoms: C_8  and  C_12
REMARK    6  A    between atoms: N_14  and  C_15
REMARK    7  A    between atoms: C_15  and  N_17
REMARK    8  A    between atoms: N_17  and  N_18
REMARK    9  A    between atoms: C_19  and  C_21
REMARK   10  A    between atoms: C_24  and  C_27
REMARK                            x       y       z     vdW  Elec       q    Type
REMARK                         _______ _______ _______ _____ _____    ______ ____
ROOT
ATOM      1  N   UNL     1      -6.013   3.153   0.072  0.00  0.00    -0.245 N 
ATOM      2  H   UNL     1      -6.858   3.628   0.082  0.00  0.00    +0.172 HD
ENDROOT
BRANCH   1   3
ATOM      3  N   UNL     1      -5.996   1.752   0.066  0.00  0.00    -0.231 N 
ATOM      4  C   UNL     1      -7.155   1.064   0.073  0.00  0.00    +0.260 C 
ATOM      5  O   UNL     1      -8.215   1.660   0.085  0.00  0.00    -0.269 OA
ATOM      6  H   UNL     1      -5.151   1.277   0.056  0.00  0.00    +0.173 HD
BRANCH   4   7
ATOM      7  C   UNL     1      -7.138  -0.413   0.067  0.00  0.00    +0.038 A 
ATOM      8  C   UNL     1      -5.921  -1.098   0.047  0.00  0.00    +0.014 A 
ATOM      9  C   UNL     1      -5.906  -2.474   0.046  0.00  0.00    +0.009 A 
ATOM     10  C   UNL     1      -7.106  -3.185   0.053  0.00  0.00    -0.018 A 
ATOM     11  C   UNL     1      -8.323  -2.502   0.068  0.00  0.00    +0.009 A 
ATOM     12  C   UNL     1      -8.340  -1.126   0.074  0.00  0.00    +0.014 A 
BRANCH  10  13
ATOM     13  C   UNL     1      -7.089  -4.668   0.046  0.00  0.00    -0.018 A 
ATOM     14  C   UNL     1      -8.286  -5.382   0.059  0.00  0.00    +0.008 A 
ATOM     15  C   UNL     1      -8.264  -6.761   0.047  0.00  0.00    +0.001 A 
ATOM     16  C   UNL     1      -7.057  -7.436   0.032  0.00  0.00    +0.000 A 
ATOM     17  C   UNL     1      -5.865  -6.733   0.024  0.00  0.00    +0.001 A 
ATOM     18  C   UNL     1      -5.875  -5.354   0.031  0.00  0.00    +0.008 A 
ENDBRANCH  10  13
ENDBRANCH   4   7
ENDBRANCH   1   3
BRANCH   1  19
ATOM     19  C   UNL     1      -4.853   3.840   0.065  0.00  0.00    +0.153 C 
ATOM     20  S   UNL     1      -4.873   5.552   0.072  0.00  0.00    -0.017 S 
BRANCH  19  23
ATOM     21  C   UNL     1      -2.519   3.867   0.044  0.00  0.00    +0.250 C 
ATOM     22  O   UNL     1      -2.533   5.083   0.049  0.00  0.00    -0.270 OA
ATOM     23  N   UNL     1      -3.678   3.180   0.051  0.00  0.00    -0.263 N 
ATOM     24  H   UNL     1      -3.667   2.210   0.047  0.00  0.00    +0.157 HD
BRANCH  21  28
ATOM     25  C   UNL     1       1.182   1.786   0.000  0.00  0.00    +0.134 A 
ATOM     26  C   UNL     1      -0.013   1.076   0.008  0.00  0.00    +0.047 A 
ATOM     27  C   UNL     1      -1.215   1.747   0.017  0.00  0.00    +0.017 A 
ATOM     28  C   UNL     1      -1.233   3.145   0.029  0.00  0.00    +0.038 A 
ATOM     29  C   UNL     1      -0.030   3.856   0.022  0.00  0.00    +0.032 A 
ATOM     30  C   UNL     1       1.169   3.177   0.007  0.00  0.00    +0.060 A 
ATOM     31 BR   UNL     1       2.798   4.137  -0.003  0.00  0.00    -0.046 Br
BRANCH  25  32
ATOM     32  O   UNL     1       2.365   1.121  -0.015  0.00  0.00    -0.491 OA
BRANCH  32  33
ATOM     33  C   UNL     1       2.306  -0.307  -0.022  0.00  0.00    +0.229 C 
BRANCH  33  35
ATOM     34  C   UNL     1       3.663  -2.405  -0.046  0.00  0.00    +0.007 C 
ATOM     35  C   UNL     1       3.726  -0.876  -0.038  0.00  0.00    +0.038 C 
ENDBRANCH  33  35
ENDBRANCH  32  33
ENDBRANCH  25  32
ENDBRANCH  21  28
ENDBRANCH  19  23
ENDBRANCH   1  19
TORSDOF 9
