REMARK  Name = ZINC05341839
REMARK  5 active torsions:
REMARK  status: ('A' for Active; 'I' for Inactive)
REMARK    1  A    between atoms: C_4  and  N_7
REMARK    2  A    between atoms: C_8  and  C_10
REMARK    3  A    between atoms: C_10  and  N_55
REMARK    4  A    between atoms: C_13  and  O_29
REMARK    5  A    between atoms: C_20  and  C_22
REMARK                            x       y       z     vdW  Elec       q    Type
REMARK                         _______ _______ _______ _____ _____    ______ ____
ROOT
ATOM      1  C   UNL     1      -3.522   6.961   1.066  0.00  0.00    -0.075 C 
ATOM      2  C   UNL     1      -4.984   7.397   0.942  0.00  0.00    +0.016 C 
ATOM      3  C   UNL     1      -5.082   8.905   1.185  0.00  0.00    +0.066 C 
ATOM      4  C   UNL     1      -6.534   9.353   1.014  0.00  0.00    +0.035 C 
ATOM      5  C   UNL     1      -7.008   9.060  -0.411  0.00  0.00    +0.003 C 
ATOM      6  C   UNL     1      -6.120   9.812  -1.405  0.00  0.00    +0.000 C 
ATOM      7  C   UNL     1      -4.672   9.346  -1.247  0.00  0.00    +0.005 C 
ATOM      8  C   UNL     1      -4.192   9.636   0.177  0.00  0.00    +0.011 C 
ATOM      9  C   UNL     1      -2.751   9.139   0.332  0.00  0.00    -0.031 C 
ATOM     10  N   UNL     1      -2.716   7.686   0.061  0.00  0.00    +0.390 N 
ATOM     11  H   UNL     1      -3.112   7.512  -0.871  0.00  0.00    -0.080 HD
ENDROOT
BRANCH   9  12
ATOM     12  C   UNL     1      -1.867   9.844  -0.664  0.00  0.00    -0.060 A 
ATOM     13  C   UNL     1      -1.831   9.419  -1.979  0.00  0.00    +0.005 A 
ATOM     14  C   UNL     1      -1.024  10.068  -2.894  0.00  0.00    +0.038 A 
ATOM     15  C   UNL     1      -0.242  11.137  -2.491  0.00  0.00    +0.123 A 
ATOM     16  C   UNL     1      -0.275  11.559  -1.172  0.00  0.00    +0.038 A 
ATOM     17  C   UNL     1      -1.087  10.912  -0.260  0.00  0.00    +0.005 A 
ATOM     18  F   UNL     1       0.551  11.769  -3.384  0.00  0.00    -0.205 F 
ENDBRANCH   9  12
BRANCH   3  19
ATOM     19  O   UNL     1      -4.638   9.198   2.511  0.00  0.00    -0.388 OA
ATOM     20  H   UNL     1      -5.157   8.768   3.204  0.00  0.00    +0.210 HD
ENDBRANCH   3  19
BRANCH  10  21
ATOM     21  C   UNL     1      -1.321   7.201   0.088  0.00  0.00    +0.020 C 
BRANCH  21  23
ATOM     22  N   UNL     1       0.504   6.895   1.729  0.00  0.00    -0.287 N 
ATOM     23  C   UNL     1      -0.724   7.382   1.460  0.00  0.00    +0.201 C 
ATOM     24  O   UNL     1      -1.347   7.965   2.321  0.00  0.00    -0.278 OA
ATOM     25  H   UNL     1       1.034   6.497   1.021  0.00  0.00    +0.155 HD
BRANCH  22  29
ATOM     26  C   UNL     1       2.022   7.101   5.603  0.00  0.00    +0.000 A 
ATOM     27  C   UNL     1       2.876   7.210   4.521  0.00  0.00    +0.002 A 
ATOM     28  C   UNL     1       2.377   7.136   3.235  0.00  0.00    +0.023 A 
ATOM     29  C   UNL     1       1.014   6.964   3.030  0.00  0.00    +0.033 A 
ATOM     30  C   UNL     1       0.159   6.861   4.119  0.00  0.00    +0.023 A 
ATOM     31  C   UNL     1       0.665   6.929   5.402  0.00  0.00    +0.002 A 
ENDBRANCH  22  29
ENDBRANCH  21  23
ENDBRANCH  10  21
TORSDOF 5
