REMARK  Name = ZINC02667764
REMARK  11 active torsions:
REMARK  status: ('A' for Active; 'I' for Inactive)
REMARK    1  A    between atoms: C_1  and  C_2
REMARK    2  A    between atoms: C_2  and  O_3
REMARK    3  A    between atoms: O_3  and  C_4
REMARK    4  A    between atoms: C_4  and  C_6
REMARK    5  A    between atoms: C_7  and  C_35
REMARK    6  A    between atoms: C_11  and  C_20
REMARK    7  A    between atoms: C_12  and  O_19
REMARK    8  A    between atoms: C_20  and  C_22
REMARK    9  A    between atoms: C_20  and  N_66
REMARK   10  A    between atoms: C_25  and  O_28
REMARK   11  A    between atoms: O_28  and  C_29
REMARK                            x       y       z     vdW  Elec       q    Type
REMARK                         _______ _______ _______ _____ _____    ______ ____
ROOT
ATOM      1  C   UNL     1       5.119   3.525  -1.153  0.00  0.00    +0.108 A 
ATOM      2  C   UNL     1       5.544   4.566  -1.922  0.00  0.00    +0.117 A 
ATOM      3  O   UNL     1       5.023   5.707  -1.461  0.00  0.00    -0.459 OA
ATOM      4  C   UNL     1       4.241   5.489  -0.385  0.00  0.00    +0.144 A 
ATOM      5  C   UNL     1       4.247   4.121  -0.121  0.00  0.00    +0.040 A 
ATOM      6  C   UNL     1       3.515   3.591   0.952  0.00  0.00    -0.003 A 
ATOM      7  C   UNL     1       2.777   4.402   1.757  0.00  0.00    +0.127 A 
ATOM      8  C   UNL     1       2.750   5.796   1.524  0.00  0.00    +0.027 A 
ATOM      9  C   UNL     1       3.484   6.344   0.445  0.00  0.00    +0.029 A 
ATOM     10  C   UNL     1       3.448   7.729   0.219  0.00  0.00    +0.012 A 
ATOM     11  C   UNL     1       2.708   8.527   1.038  0.00  0.00    +0.001 A 
ATOM     12  C   UNL     1       1.985   7.989   2.099  0.00  0.00    +0.001 A 
ATOM     13  C   UNL     1       1.998   6.649   2.347  0.00  0.00    +0.012 A 
ATOM     14  C   UNL     1       6.462   4.449  -3.112  0.00  0.00    +0.087 C 
ENDROOT
BRANCH   1  15
ATOM     15  C   UNL     1       5.456   2.104  -1.317  0.00  0.00    +0.343 C 
ATOM     16  O   UNL     1       4.762   1.391  -2.017  0.00  0.00    -0.245 OA
BRANCH  15  17
ATOM     17  O   UNL     1       6.535   1.591  -0.693  0.00  0.00    -0.461 OA
BRANCH  17  19
ATOM     18  C   UNL     1       8.061  -0.218  -0.118  0.00  0.00    +0.048 C 
ATOM     19  C   UNL     1       6.808   0.180  -0.900  0.00  0.00    +0.229 C 
ENDBRANCH  17  19
ENDBRANCH  15  17
ENDBRANCH   1  15
BRANCH   7  20
ATOM     20  O   UNL     1       2.069   3.872   2.789  0.00  0.00    -0.506 OA
ATOM     21  H   UNL     1       2.534   3.892   3.637  0.00  0.00    +0.292 HD
ENDBRANCH   7  20
BRANCH   6  22
ATOM     22  C   UNL     1       3.542   2.106   1.211  0.00  0.00    -0.002 C 
BRANCH  22  28
ATOM     23  C   UNL     1       1.317   1.964   0.268  0.00  0.00    -0.078 C 
ATOM     24  C   UNL     1      -0.130   1.572   0.573  0.00  0.00    -0.019 C 
ATOM     25  C   UNL     1      -0.199   0.068   0.851  0.00  0.00    -0.004 C 
ATOM     26  C   UNL     1       0.736  -0.272   2.015  0.00  0.00    -0.019 C 
ATOM     27  C   UNL     1       2.158   0.174   1.668  0.00  0.00    -0.078 C 
ATOM     28  N   UNL     1       2.161   1.634   1.436  0.00  0.00    +0.387 N 
ATOM     29  H   UNL     1       1.779   2.103   2.266  0.00  0.00    -0.080 HD
ENDBRANCH  22  28
BRANCH  22  30
ATOM     30  C   UNL     1       4.361   1.827   2.445  0.00  0.00    -0.056 A 
ATOM     31  C   UNL     1       3.771   1.896   3.694  0.00  0.00    +0.006 A 
ATOM     32  C   UNL     1       4.518   1.635   4.827  0.00  0.00    +0.046 A 
ATOM     33  C   UNL     1       5.863   1.315   4.711  0.00  0.00    +0.120 A 
ATOM     34  C   UNL     1       6.453   1.251   3.458  0.00  0.00    +0.046 A 
ATOM     35  C   UNL     1       5.701   1.508   2.328  0.00  0.00    +0.006 A 
BRANCH  33  36
ATOM     36  O   UNL     1       6.601   1.063   5.824  0.00  0.00    -0.495 OA
ATOM     37  C   UNL     1       5.927   1.147   7.082  0.00  0.00    +0.277 C 
ENDBRANCH  33  36
ENDBRANCH  22  30
ENDBRANCH   6  22
TORSDOF 8
