REMARK  Name = ZINC23876442
REMARK  10 active torsions:
REMARK  status: ('A' for Active; 'I' for Inactive)
REMARK    1  A    between atoms: C_1  and  C_2
REMARK    2  A    between atoms: C_2  and  C_4
REMARK    3  A    between atoms: C_2  and  S_15
REMARK    4  A    between atoms: N_6  and  C_7
REMARK    5  A    between atoms: N_11  and  C_12
REMARK    6  A    between atoms: C_12  and  C_13
REMARK    7  A    between atoms: C_12  and  C_14
REMARK    8  A    between atoms: S_15  and  C_16
REMARK    9  A    between atoms: C_19  and  C_22
REMARK   10  A    between atoms: N_20  and  N_21
REMARK                            x       y       z     vdW  Elec       q    Type
REMARK                         _______ _______ _______ _____ _____    ______ ____
ROOT
ATOM      1  S   UNL     1       0.942  -0.400  -1.496  0.00  0.00    -0.072 S 
ENDROOT
BRANCH   1   2
ATOM      2  C   UNL     1      -0.153   0.018  -2.811  0.00  0.00    +0.209 A 
ATOM      3  N   UNL     1      -1.354   0.539  -2.690  0.00  0.00    -0.121 NA
ATOM      4  N   UNL     1      -1.877   0.717  -3.851  0.00  0.00    -0.127 NA
ATOM      5  C   UNL     1      -1.043   0.320  -4.784  0.00  0.00    +0.183 A 
ATOM      6  N   UNL     1       0.089  -0.134  -4.147  0.00  0.00    -0.224 N 
BRANCH   5   7
ATOM      7  C   UNL     1      -1.273   0.360  -6.243  0.00  0.00    +0.035 A 
ATOM      8  C   UNL     1      -0.998  -0.761  -7.027  0.00  0.00    +0.013 A 
ATOM      9  C   UNL     1      -1.216  -0.718  -8.389  0.00  0.00    +0.001 A 
ATOM     10  C   UNL     1      -1.706   0.434  -8.978  0.00  0.00    +0.001 A 
ATOM     11  C   UNL     1      -1.982   1.549  -8.207  0.00  0.00    +0.016 A 
ATOM     12  C   UNL     1      -1.774   1.518  -6.843  0.00  0.00    +0.029 A 
ATOM     13 BR   UNL     1      -2.158   3.041  -5.790  0.00  0.00    -0.050 Br
ENDBRANCH   5   7
BRANCH   6  14
ATOM     14  N   UNL     1       1.219  -0.635  -4.729  0.00  0.00    -0.295 N 
ATOM     15  H   UNL     1       1.117  -1.619  -4.929  0.00  0.00    +0.163 HD
ATOM     16  H   UNL     1       1.455  -0.119  -5.563  0.00  0.00    +0.163 HD
ENDBRANCH   6  14
ENDBRANCH   1   2
BRANCH   1  18
ATOM     17  C   UNL     1      -0.196   1.561   0.035  0.00  0.00    +0.029 C 
ATOM     18  C   UNL     1       0.020   0.046   0.001  0.00  0.00    +0.137 C 
BRANCH  18  19
ATOM     19  C   UNL     1       0.803  -0.377   1.218  0.00  0.00    +0.231 C 
ATOM     20  O   UNL     1       2.008  -0.495   1.153  0.00  0.00    -0.274 OA
ATOM     21  N   UNL     1       0.163  -0.624   2.378  0.00  0.00    -0.270 N 
ATOM     22  H   UNL     1      -0.801  -0.529   2.430  0.00  0.00    +0.156 HD
BRANCH  21  23
ATOM     23  C   UNL     1       0.887  -1.015   3.504  0.00  0.00    +0.123 A 
ATOM     24  C   UNL     1       2.236  -1.181   3.575  0.00  0.00    +0.065 A 
ATOM     25  C   UNL     1       2.551  -1.576   4.878  0.00  0.00    +0.136 A 
ATOM     26  N   UNL     1       1.440  -1.647   5.566  0.00  0.00    -0.178 NA
ATOM     27  N   UNL     1       0.377  -1.294   4.726  0.00  0.00    -0.248 N 
BRANCH  27  28
ATOM     28  C   UNL     1      -1.038  -1.238   5.102  0.00  0.00    +0.103 C 
ATOM     29  C   UNL     1      -1.494  -2.620   5.574  0.00  0.00    +0.032 C 
ATOM     30  C   UNL     1      -1.225  -0.225   6.233  0.00  0.00    +0.032 C 
ENDBRANCH  27  28
ENDBRANCH  21  23
ENDBRANCH  18  19
ENDBRANCH   1  18
TORSDOF 7
