REMARK  Name = ZINC35312470
REMARK  7 active torsions:
REMARK  status: ('A' for Active; 'I' for Inactive)
REMARK    1  A    between atoms: C_1  and  C_2
REMARK    2  A    between atoms: C_7  and  N_12
REMARK    3  A    between atoms: C_9  and  C_11
REMARK    4  A    between atoms: C_13  and  C_15
REMARK    5  A    between atoms: C_15  and  C_36
REMARK    6  A    between atoms: N_27  and  C_28
REMARK    7  A    between atoms: C_28  and  C_29
REMARK                            x       y       z     vdW  Elec       q    Type
REMARK                         _______ _______ _______ _____ _____    ______ ____
ROOT
ATOM      1  C   UNL     1      -2.234  -3.576   2.307  0.00  0.00    +0.129 C 
ATOM      2  C   UNL     1      -2.360  -5.034   2.749  0.00  0.00    +0.157 C 
ATOM      3  N   UNL     1      -1.889  -5.904   1.669  0.00  0.00    -0.333 N 
ATOM      4  C   UNL     1      -1.316  -7.160   1.754  0.00  0.00    +0.057 A 
ATOM      5  C   UNL     1      -0.938  -8.085   2.737  0.00  0.00    +0.034 A 
ATOM      6  C   UNL     1      -0.382  -9.263   2.384  0.00  0.00    +0.048 A 
ATOM      7  S   UNL     1      -0.346  -9.160   0.603  0.00  0.00    -0.095 S 
ATOM      8  C   UNL     1      -1.073  -7.551   0.428  0.00  0.00    +0.038 A 
ATOM      9  C   UNL     1      -1.488  -6.545  -0.436  0.00  0.00    +0.048 A 
ATOM     10  C   UNL     1      -1.983  -5.533   0.332  0.00  0.00    +0.106 A 
ATOM     11  C   UNL     1      -2.533  -4.226  -0.048  0.00  0.00    +0.264 C 
ATOM     12  O   UNL     1      -2.781  -3.946  -1.206  0.00  0.00    -0.268 OA
ATOM     13  N   UNL     1      -2.750  -3.350   0.962  0.00  0.00    -0.276 N 
ATOM     14  C   UNL     1      -3.010  -2.695   3.288  0.00  0.00    +0.043 C 
ENDROOT
BRANCH   1  16
ATOM     15  N   UNL     1       0.018  -3.450   1.292  0.00  0.00    -0.310 N 
ATOM     16  C   UNL     1      -0.781  -3.179   2.343  0.00  0.00    +0.238 C 
ATOM     17  O   UNL     1      -0.330  -2.618   3.319  0.00  0.00    -0.273 OA
ATOM     18  H   UNL     1      -0.324  -3.963   0.542  0.00  0.00    +0.149 HD
BRANCH  15  24
ATOM     19  C   UNL     1       2.299  -4.083  -2.295  0.00  0.00    +0.008 C 
ATOM     20  C   UNL     1       1.815  -4.209  -0.849  0.00  0.00    -0.009 C 
ATOM     21  C   UNL     1       2.707  -5.200  -0.098  0.00  0.00    +0.003 C 
ATOM     22  C   UNL     1       2.223  -5.326   1.348  0.00  0.00    +0.002 C 
ATOM     23  C   UNL     1       2.293  -3.959   2.031  0.00  0.00    +0.022 C 
ATOM     24  C   UNL     1       1.401  -2.968   1.280  0.00  0.00    +0.076 C 
ATOM     25  C   UNL     1       1.885  -2.841  -0.166  0.00  0.00    +0.009 C 
ATOM     26  C   UNL     1       0.994  -1.851  -0.917  0.00  0.00    +0.009 C 
ENDBRANCH  15  24
ENDBRANCH   1  16
BRANCH  13  27
ATOM     27  C   UNL     1      -3.528  -2.138   0.694  0.00  0.00    +0.145 C 
BRANCH  27  28
ATOM     28  C   UNL     1      -2.607  -1.045   0.217  0.00  0.00    -0.012 A 
ATOM     29  C   UNL     1      -1.895  -0.292   1.133  0.00  0.00    +0.006 A 
ATOM     30  C   UNL     1      -1.050   0.710   0.696  0.00  0.00    +0.000 A 
ATOM     31  C   UNL     1      -0.916   0.961  -0.657  0.00  0.00    +0.001 A 
ATOM     32  C   UNL     1      -1.626   0.209  -1.574  0.00  0.00    +0.020 A 
ATOM     33  C   UNL     1      -2.468  -0.799  -1.137  0.00  0.00    +0.046 A 
ATOM     34 CL   UNL     1      -3.356  -1.748  -2.288  0.00  0.00    -0.083 Cl
ENDBRANCH  27  28
ENDBRANCH  13  27
TORSDOF 4
