REMARK  Name = ZINC01299798
REMARK  3 active torsions:
REMARK  status: ('A' for Active; 'I' for Inactive)
REMARK    1  A    between atoms: C_1  and  N_44
REMARK    2  A    between atoms: C_9  and  O_24
REMARK    3  A    between atoms: C_11  and  C_14
REMARK                            x       y       z     vdW  Elec       q    Type
REMARK                         _______ _______ _______ _____ _____    ______ ____
ROOT
ATOM      1  C   UNL     1       4.464   6.322  -8.113  0.00  0.00    -0.096 C 
ATOM      2  C   UNL     1       2.801   6.957  -6.471  0.00  0.00    -0.074 C 
ATOM      3  C   UNL     1       2.061   6.454  -5.228  0.00  0.00    +0.018 C 
ATOM      4  C   UNL     1       3.077   6.287  -4.103  0.00  0.00    -0.027 A 
ATOM      5  C   UNL     1       4.400   6.223  -4.391  0.00  0.00    -0.021 A 
ATOM      6  S   UNL     1       5.198   6.034  -2.821  0.00  0.00    -0.080 S 
ATOM      7  C   UNL     1       3.813   6.045  -1.815  0.00  0.00    +0.080 A 
ATOM      8  C   UNL     1       2.735   6.188  -2.698  0.00  0.00    +0.067 A 
ATOM      9  C   UNL     1       1.372   6.216  -2.107  0.00  0.00    +0.220 C 
ATOM     10  N   UNL     1       1.251   5.910  -0.846  0.00  0.00    -0.223 NA
ATOM     11  C   UNL     1       2.337   5.445   0.007  0.00  0.00    +0.224 C 
ATOM     12  N   UNL     1       3.644   5.947  -0.456  0.00  0.00    -0.313 N 
ATOM     13  C   UNL     1       5.019   6.296  -5.751  0.00  0.00    -0.036 C 
ATOM     14  H   UNL     1       4.346   6.194   0.167  0.00  0.00    +0.149 HD
ATOM     15  N   UNL     1       3.947   6.067  -6.751  0.00  0.00    +0.381 N 
ATOM     16  H   UNL     1       3.636   5.091  -6.690  0.00  0.00    -0.082 HD
ENDROOT
BRANCH  11  17
ATOM     17  C   UNL     1       2.358   3.939  -0.000  0.00  0.00    +0.002 A 
ATOM     18  C   UNL     1       1.877   3.253  -1.073  0.00  0.00    +0.008 A 
ATOM     19  C   UNL     1       1.887   1.860  -1.098  0.00  0.00    +0.001 A 
ATOM     20  C   UNL     1       2.379   1.144  -0.050  0.00  0.00    +0.008 A 
ATOM     21  C   UNL     1       2.884   1.817   1.076  0.00  0.00    -0.018 A 
ATOM     22  C   UNL     1       2.873   3.234   1.101  0.00  0.00    -0.011 A 
ATOM     23  C   UNL     1       3.378   3.907   2.226  0.00  0.00    +0.009 A 
ATOM     24  C   UNL     1       3.869   3.192   3.275  0.00  0.00    +0.001 A 
ATOM     25  C   UNL     1       3.875   1.798   3.252  0.00  0.00    +0.001 A 
ATOM     26  C   UNL     1       3.400   1.113   2.177  0.00  0.00    +0.008 A 
ENDBRANCH  11  17
BRANCH   9  27
ATOM     27  O   UNL     1       0.293   6.548  -2.853  0.00  0.00    -0.492 OA
ATOM     28  H   UNL     1      -0.542   6.533  -2.366  0.00  0.00    +0.294 HD
ENDBRANCH   9  27
TORSDOF 2
