REMARK  Name = ZINC23935898
REMARK  12 active torsions:
REMARK  status: ('A' for Active; 'I' for Inactive)
REMARK    1  A    between atoms: C_1  and  C_2
REMARK    2  A    between atoms: C_4  and  C_32
REMARK    3  A    between atoms: C_5  and  N_9
REMARK    4  A    between atoms: C_6  and  C_8
REMARK    5  A    between atoms: C_10  and  C_12
REMARK    6  A    between atoms: C_12  and  C_14
REMARK    7  A    between atoms: C_12  and  S_15
REMARK    8  A    between atoms: S_15  and  C_16
REMARK    9  A    between atoms: C_19  and  C_22
REMARK   10  A    between atoms: N_20  and  N_21
REMARK   11  A    between atoms: C_25  and  O_28
REMARK   12  A    between atoms: O_28  and  C_29
REMARK                            x       y       z     vdW  Elec       q    Type
REMARK                         _______ _______ _______ _____ _____    ______ ____
ROOT
ATOM      1  C   UNL     1       8.620  -1.180  -1.442  0.00  0.00    +0.209 A 
ATOM      2  N   UNL     1       8.658  -2.326  -0.802  0.00  0.00    -0.121 NA
ATOM      3  N   UNL     1       9.779  -2.917  -1.019  0.00  0.00    -0.127 NA
ATOM      4  C   UNL     1      10.526  -2.183  -1.812  0.00  0.00    +0.182 A 
ATOM      5  N   UNL     1       9.804  -1.050  -2.111  0.00  0.00    -0.224 N 
ENDROOT
BRANCH   4   6
ATOM      6  C   UNL     1      11.883  -2.514  -2.296  0.00  0.00    +0.021 A 
ATOM      7  C   UNL     1      12.680  -1.526  -2.875  0.00  0.00    +0.015 A 
ATOM      8  C   UNL     1      13.946  -1.838  -3.321  0.00  0.00    +0.046 A 
ATOM      9  C   UNL     1      14.425  -3.136  -3.204  0.00  0.00    +0.127 A 
ATOM     10  C   UNL     1      13.633  -4.123  -2.633  0.00  0.00    +0.046 A 
ATOM     11  C   UNL     1      12.368  -3.818  -2.180  0.00  0.00    +0.015 A 
BRANCH   9  12
ATOM     12  O   UNL     1      15.672  -3.441  -3.649  0.00  0.00    -0.434 OA
BRANCH  12  13
ATOM     13  C   UNL     1      16.433  -2.377  -4.226  0.00  0.00    +0.541 C 
ATOM     14  F   UNL     1      15.752  -1.865  -5.335  0.00  0.00    -0.166 F 
ATOM     15  F   UNL     1      16.610  -1.363  -3.278  0.00  0.00    -0.166 F 
ENDBRANCH  12  13
ENDBRANCH   9  12
ENDBRANCH   4   6
BRANCH   5  16
ATOM     16  N   UNL     1      10.192  -0.012  -2.909  0.00  0.00    -0.295 N 
ATOM     17  H   UNL     1      11.180  -0.030  -3.394  0.00  0.00    +0.163 HD
ATOM     18  H   UNL     1       9.518   0.842  -3.067  0.00  0.00    +0.163 HD
ENDBRANCH   5  16
BRANCH   1  19
ATOM     19  S   UNL     1       7.287  -0.027  -1.444  0.00  0.00    -0.072 S 
BRANCH  19  20
ATOM     20  C   UNL     1       6.121  -0.895  -0.366  0.00  0.00    +0.137 C 
ATOM     21  C   UNL     1       6.707  -0.997   1.044  0.00  0.00    +0.029 C 
BRANCH  20  23
ATOM     22  N   UNL     1       3.691  -0.753   0.075  0.00  0.00    -0.284 N 
ATOM     23  C   UNL     1       4.822  -0.133  -0.315  0.00  0.00    +0.230 C 
ATOM     24  O   UNL     1       4.794   1.040  -0.625  0.00  0.00    -0.274 OA
ATOM     25  H   UNL     1       3.729  -1.793   0.432  0.00  0.00    +0.155 HD
BRANCH  22  30
ATOM     26  C   UNL     1      -1.267   1.996  -0.136  0.00  0.00    +0.044 C 
ATOM     27  C   UNL     1       0.048   1.264  -0.076  0.00  0.00    -0.050 A 
ATOM     28  C   UNL     1       1.101   1.792   0.649  0.00  0.00    +0.008 A 
ATOM     29  C   UNL     1       2.309   1.126   0.701  0.00  0.00    -0.029 A 
ATOM     30  C   UNL     1       2.467  -0.076   0.024  0.00  0.00    +0.039 A 
ATOM     31  C   UNL     1       1.409  -0.605  -0.703  0.00  0.00    -0.029 A 
ATOM     32  C   UNL     1       0.203   0.067  -0.751  0.00  0.00    +0.008 A 
ATOM     33  C   UNL     1       1.576  -1.909  -1.439  0.00  0.00    +0.045 C 
ATOM     34  C   UNL     1       3.455   1.703   1.492  0.00  0.00    +0.045 C 
ENDBRANCH  22  30
ENDBRANCH  20  23
ENDBRANCH  19  20
ENDBRANCH   1  19
TORSDOF 8
