REMARK  Name = ZINC39675780
REMARK  12 active torsions:
REMARK  status: ('A' for Active; 'I' for Inactive)
REMARK    1  A    between atoms: C_1  and  C_2
REMARK    2  A    between atoms: C_3  and  C_12
REMARK    3  A    between atoms: C_7  and  O_8
REMARK    4  A    between atoms: O_8  and  C_9
REMARK    5  A    between atoms: C_9  and  C_11
REMARK    6  A    between atoms: C_16  and  C_25
REMARK    7  A    between atoms: N_27  and  C_28
REMARK    8  A    between atoms: C_28  and  C_29
REMARK    9  A    between atoms: C_29  and  C_31
REMARK   10  A    between atoms: C_29  and  N_37
REMARK   11  A    between atoms: N_37  and  C_38
REMARK   12  A    between atoms: N_37  and  C_39
REMARK                            x       y       z     vdW  Elec       q    Type
REMARK                         _______ _______ _______ _____ _____    ______ ____
ROOT
ATOM      1  C   UNL     1      -1.024  -0.328  -2.986  0.00  0.00    +0.247 C 
ATOM      2  O   UNL     1      -1.050   0.879  -3.126  0.00  0.00    -0.270 OA
ATOM      3  N   UNL     1      -0.974  -1.130  -4.068  0.00  0.00    -0.296 N 
ATOM      4  C   UNL     1      -1.067  -2.609  -4.108  0.00  0.00    +0.121 C 
ATOM      5  C   UNL     1      -1.923  -2.913  -5.358  0.00  0.00    +0.100 C 
ATOM      6  C   UNL     1      -1.752  -1.679  -6.260  0.00  0.00    -0.004 C 
ATOM      7  C   UNL     1      -0.821  -0.733  -5.488  0.00  0.00    +0.115 C 
ATOM      8  C   UNL     1      -3.100  -1.007  -6.497  0.00  0.00    -0.010 C 
ATOM      9  C   UNL     1      -2.913   0.183  -7.442  0.00  0.00    -0.082 C 
ATOM     10  N   UNL     1      -2.347  -0.284  -8.714  0.00  0.00    +0.379 N 
ATOM     11  C   UNL     1      -1.009  -0.846  -8.490  0.00  0.00    -0.082 C 
ATOM     12  C   UNL     1      -1.116  -2.079  -7.588  0.00  0.00    -0.010 C 
ATOM     13  H   UNL     1      -2.947  -0.994  -9.107  0.00  0.00    -0.086 HD
ATOM     14  H   UNL     1      -2.281   0.491  -9.356  0.00  0.00    -0.086 HD
ENDROOT
BRANCH   1  17
ATOM     15  C   UNL     1      -2.584   0.936  -0.904  0.00  0.00    +0.048 C 
ATOM     16  C   UNL     1      -1.794  -0.316  -0.618  0.00  0.00    +0.004 A 
ATOM     17  C   UNL     1      -1.045  -0.917  -1.630  0.00  0.00    +0.043 A 
ATOM     18  C   UNL     1      -0.316  -2.075  -1.358  0.00  0.00    +0.013 A 
ATOM     19  C   UNL     1      -0.339  -2.622  -0.091  0.00  0.00    +0.004 A 
ATOM     20  C   UNL     1      -1.082  -2.026   0.911  0.00  0.00    +0.047 A 
ATOM     21  C   UNL     1      -1.806  -0.870   0.651  0.00  0.00    +0.135 A 
BRANCH  21  22
ATOM     22  O   UNL     1      -2.531  -0.285   1.641  0.00  0.00    -0.426 OA
BRANCH  22  23
ATOM     23  C   UNL     1      -2.031   0.820   2.219  0.00  0.00    +0.309 C 
ATOM     24  O   UNL     1      -0.927   1.210   1.922  0.00  0.00    -0.251 OA
ATOM     25  C   UNL     1      -2.848   1.571   3.238  0.00  0.00    +0.136 C 
ENDBRANCH  22  23
ENDBRANCH  21  22
ENDBRANCH   1  17
BRANCH   5  26
ATOM     26  C   UNL     1      -1.414  -4.149  -6.054  0.00  0.00    +0.218 C 
ATOM     27  O   UNL     1      -0.256  -4.484  -5.925  0.00  0.00    -0.275 OA
ATOM     28  N   UNL     1      -2.247  -4.883  -6.819  0.00  0.00    -0.316 N 
ATOM     29  H   UNL     1      -3.174  -4.615  -6.921  0.00  0.00    +0.149 HD
BRANCH  28  30
ATOM     30  C   UNL     1      -1.753  -6.085  -7.495  0.00  0.00    +0.093 C 
BRANCH  30  31
ATOM     31  C   UNL     1      -2.856  -6.657  -8.388  0.00  0.00    -0.021 C 
BRANCH  31  32
ATOM     32  C   UNL     1      -4.035  -7.055  -7.537  0.00  0.00    -0.059 A 
ATOM     33  C   UNL     1      -4.015  -8.251  -6.844  0.00  0.00    +0.002 A 
ATOM     34  C   UNL     1      -5.097  -8.615  -6.064  0.00  0.00    +0.000 A 
ATOM     35  C   UNL     1      -6.198  -7.783  -5.977  0.00  0.00    +0.000 A 
ATOM     36  C   UNL     1      -6.217  -6.587  -6.670  0.00  0.00    +0.000 A 
ATOM     37  C   UNL     1      -5.133  -6.221  -7.446  0.00  0.00    +0.002 A 
ENDBRANCH  31  32
BRANCH  31  38
ATOM     38  N   UNL     1      -2.346  -7.837  -9.100  0.00  0.00    +0.382 N 
ATOM     39  C   UNL     1      -3.367  -8.322 -10.038  0.00  0.00    -0.096 C 
ATOM     40  C   UNL     1      -1.132  -7.473  -9.843  0.00  0.00    -0.096 C 
ATOM     41  H   UNL     1      -2.128  -8.563  -8.434  0.00  0.00    -0.082 HD
ENDBRANCH  31  38
ENDBRANCH  30  31
ENDBRANCH  28  30
ENDBRANCH   5  26
TORSDOF 8
