REMARK  Name = ZINC08847634
REMARK  8 active torsions:
REMARK  status: ('A' for Active; 'I' for Inactive)
REMARK    1  A    between atoms: C_1  and  C_2
REMARK    2  A    between atoms: C_2  and  C_3
REMARK    3  A    between atoms: N_10  and  N_11
REMARK    4  A    between atoms: C_23  and  C_25
REMARK    5  A    between atoms: C_28  and  C_31
REMARK    6  A    between atoms: C_31  and  C_32
REMARK    7  A    between atoms: C_31  and  C_33
REMARK    8  A    between atoms: C_31  and  C_34
REMARK                            x       y       z     vdW  Elec       q    Type
REMARK                         _______ _______ _______ _____ _____    ______ ____
ROOT
ATOM      1  C   UNL     1      -1.412  -0.526   0.013  0.00  0.00    -0.047 A 
ATOM      2  C   UNL     1      -2.051  -0.766   1.217  0.00  0.00    +0.007 A 
ATOM      3  C   UNL     1      -3.346  -1.246   1.245  0.00  0.00    +0.047 A 
ATOM      4  C   UNL     1      -4.020  -1.491   0.057  0.00  0.00    +0.138 A 
ATOM      5  C   UNL     1      -3.371  -1.242  -1.160  0.00  0.00    +0.042 A 
ATOM      6  C   UNL     1      -2.070  -0.758  -1.179  0.00  0.00    +0.017 A 
ATOM      7  C   UNL     1      -4.122  -1.499  -2.416  0.00  0.00    +0.067 A 
ATOM      8  N   UNL     1      -3.529  -1.529  -3.586  0.00  0.00    -0.303 N 
ATOM      9  C   UNL     1      -5.574  -1.720  -2.268  0.00  0.00    +0.074 A 
ATOM     10  C   UNL     1      -6.065  -1.934  -1.027  0.00  0.00    +0.138 A 
ATOM     11  O   UNL     1      -5.285  -1.967   0.070  0.00  0.00    -0.455 OA
ATOM     12  H   UNL     1      -2.572  -1.380  -3.649  0.00  0.00    +0.184 HD
ENDROOT
BRANCH   8  13
ATOM     13  N   UNL     1      -4.277  -1.775  -4.745  0.00  0.00    -0.229 N 
ATOM     14  C   UNL     1      -3.656  -1.806  -5.972  0.00  0.00    +0.212 A 
ATOM     15  N   UNL     1      -4.283  -2.030  -7.166  0.00  0.00    -0.325 N 
ATOM     16  H   UNL     1      -5.231  -2.194  -7.296  0.00  0.00    +0.169 HD
ATOM     17  C   UNL     1      -3.315  -1.981  -8.155  0.00  0.00    +0.067 A 
ATOM     18  C   UNL     1      -3.340  -2.129  -9.533  0.00  0.00    +0.028 A 
ATOM     19  C   UNL     1      -2.171  -2.020 -10.257  0.00  0.00    +0.002 A 
ATOM     20  C   UNL     1      -0.968  -1.762  -9.615  0.00  0.00    +0.002 A 
ATOM     21  C   UNL     1      -0.924  -1.611  -8.247  0.00  0.00    +0.030 A 
ATOM     22  C   UNL     1      -2.100  -1.719  -7.499  0.00  0.00    +0.091 A 
ATOM     23  N   UNL     1      -2.373  -1.619  -6.173  0.00  0.00    -0.213 NA
ATOM     24  H   UNL     1      -5.234  -1.923  -4.681  0.00  0.00    +0.175 HD
ENDBRANCH   8  13
BRANCH  10  25
ATOM     25  C   UNL     1      -7.518  -2.138  -0.867  0.00  0.00    +0.017 A 
ATOM     26  C   UNL     1      -8.357  -2.114  -1.983  0.00  0.00    +0.012 A 
ATOM     27  C   UNL     1      -9.714  -2.306  -1.826  0.00  0.00    +0.005 A 
ATOM     28  C   UNL     1     -10.245  -2.521  -0.566  0.00  0.00    -0.042 A 
ATOM     29  C   UNL     1      -9.420  -2.545   0.544  0.00  0.00    +0.005 A 
ATOM     30  C   UNL     1      -8.060  -2.361   0.401  0.00  0.00    +0.012 A 
BRANCH  28  31
ATOM     31  C   UNL     1     -11.728  -2.729  -0.403  0.00  0.00    -0.013 C 
ATOM     32  C   UNL     1     -12.162  -3.958  -1.204  0.00  0.00    +0.015 C 
ATOM     33  C   UNL     1     -12.053  -2.943   1.077  0.00  0.00    +0.015 C 
ATOM     34  C   UNL     1     -12.476  -1.496  -0.916  0.00  0.00    +0.015 C 
ENDBRANCH  28  31
ENDBRANCH  10  25
BRANCH   1  36
ATOM     35  C   UNL     1      -0.019   1.526   0.010  0.00  0.00    +0.009 C 
ATOM     36  C   UNL     1       0.002  -0.004   0.002  0.00  0.00    +0.032 C 
ENDBRANCH   1  36
TORSDOF 4
