REMARK  Name = ZINC10202573
REMARK  2 active torsions:
REMARK  status: ('A' for Active; 'I' for Inactive)
REMARK    1  A    between atoms: C_10  and  S_11
REMARK    2  A    between atoms: S_11  and  C_12
REMARK                            x       y       z     vdW  Elec       q    Type
REMARK                         _______ _______ _______ _____ _____    ______ ____
ROOT
ATOM      1  C   UNL     1       6.235   3.620  -4.604  0.00  0.00    +0.045 A 
ATOM      2  C   UNL     1       6.411   4.209  -3.338  0.00  0.00    +0.059 A 
ATOM      3  C   UNL     1       5.434   4.139  -2.410  0.00  0.00    +0.115 A 
ATOM      4  N   UNL     1       4.260   3.494  -2.687  0.00  0.00    -0.275 N 
ATOM      5  C   UNL     1       4.060   2.907  -3.918  0.00  0.00    +0.180 A 
ATOM      6  C   UNL     1       5.074   2.975  -4.896  0.00  0.00    +0.087 A 
ATOM      7 CL   UNL     1       4.843   2.243  -6.453  0.00  0.00    -0.080 Cl
ATOM      8  N   UNL     1       2.854   2.369  -3.895  0.00  0.00    -0.127 NA
ATOM      9  N   UNL     1       2.309   2.576  -2.748  0.00  0.00    -0.122 NA
ATOM     10  C   UNL     1       3.120   3.262  -1.975  0.00  0.00    +0.197 A 
ATOM     11 CL   UNL     1       7.894   5.032  -2.967  0.00  0.00    -0.082 Cl
ENDROOT
BRANCH  10  12
ATOM     12  S   UNL     1       2.798   3.781  -0.323  0.00  0.00    -0.073 S 
BRANCH  12  13
ATOM     13  C   UNL     1       1.128   3.158   0.015  0.00  0.00    +0.140 C 
ATOM     14  C   UNL     1       0.675   3.627   1.400  0.00  0.00    +0.024 C 
ATOM     15  C   UNL     1      -0.840   3.668   1.484  0.00  0.00    +0.003 C 
ATOM     16  C   UNL     1      -1.496   2.302   1.407  0.00  0.00    +0.019 C 
ATOM     17  C   UNL     1      -1.298   1.680   0.017  0.00  0.00    +0.104 C 
ATOM     18  N   UNL     1      -0.011   0.966   0.007  0.00  0.00    -0.314 N 
ATOM     19  C   UNL     1       1.137   1.644   0.000  0.00  0.00    +0.226 C 
ATOM     20  O   UNL     1       2.192   1.046  -0.018  0.00  0.00    -0.275 OA
ATOM     21  H   UNL     1       0.002  -0.004   0.002  0.00  0.00    +0.149 HD
ENDBRANCH  12  13
ENDBRANCH  10  12
TORSDOF 2
