REMARK  Name = ZINC35268753
REMARK  6 active torsions:
REMARK  status: ('A' for Active; 'I' for Inactive)
REMARK    1  A    between atoms: C_1  and  C_2
REMARK    2  A    between atoms: C_5  and  C_8
REMARK    3  A    between atoms: C_14  and  C_16
REMARK    4  A    between atoms: N_21  and  S_22
REMARK    5  A    between atoms: S_22  and  C_25
REMARK    6  A    between atoms: C_28  and  C_31
REMARK                            x       y       z     vdW  Elec       q    Type
REMARK                         _______ _______ _______ _____ _____    ______ ____
ROOT
ATOM      1  C   UNL     1       0.312  -4.246  -1.236  0.00  0.00    +0.134 A 
ATOM      2  N   UNL     1       0.694  -5.242  -2.026  0.00  0.00    -0.140 NA
ATOM      3  N   UNL     1       0.623  -6.426  -1.592  0.00  0.00    -0.125 NA
ATOM      4  C   UNL     1       0.180  -6.700  -0.379  0.00  0.00    +0.188 A 
ATOM      5  S   UNL     1      -0.165  -5.163   0.222  0.00  0.00    -0.030 S 
ATOM      6  N   UNL     1       0.041  -7.934   0.244  0.00  0.00    -0.262 N 
ATOM      7  C   UNL     1       0.382  -9.062  -0.411  0.00  0.00    +0.238 C 
ATOM      8  O   UNL     1       0.810  -8.999  -1.544  0.00  0.00    -0.274 OA
ATOM      9  H   UNL     1      -0.302  -7.984   1.150  0.00  0.00    +0.157 HD
ENDROOT
BRANCH   1  14
ATOM     10  C   UNL     1       0.236   1.423  -2.220  0.00  0.00    +0.044 C 
ATOM     11  C   UNL     1       0.255  -0.061  -1.962  0.00  0.00    -0.050 A 
ATOM     12  C   UNL     1       0.695  -0.926  -2.949  0.00  0.00    +0.004 A 
ATOM     13  C   UNL     1       0.716  -2.286  -2.720  0.00  0.00    +0.011 A 
ATOM     14  C   UNL     1       0.292  -2.790  -1.489  0.00  0.00    +0.009 A 
ATOM     15  C   UNL     1      -0.150  -1.912  -0.498  0.00  0.00    +0.011 A 
ATOM     16  C   UNL     1      -0.161  -0.554  -0.738  0.00  0.00    +0.004 A 
ENDBRANCH   1  14
BRANCH   7  17
ATOM     17  C   UNL     1       0.230 -10.400   0.264  0.00  0.00    +0.166 C 
ATOM     18  C   UNL     1       1.516 -10.742   1.046  0.00  0.00    +0.031 C 
ATOM     19  C   UNL     1       1.672 -12.267   0.809  0.00  0.00    +0.019 C 
ATOM     20  C   UNL     1       1.158 -12.410  -0.645  0.00  0.00    +0.110 C 
ATOM     21  N   UNL     1       0.038 -11.451  -0.747  0.00  0.00    -0.165 NA
BRANCH  21  22
ATOM     22  S   UNL     1      -1.222 -11.542  -1.817  0.00  0.00    +0.062 S 
ATOM     23  O   UNL     1      -1.810 -10.249  -1.863  0.00  0.00    -0.153 OA
ATOM     24  O   UNL     1      -0.724 -12.194  -2.977  0.00  0.00    -0.153 OA
BRANCH  22  25
ATOM     25  C   UNL     1      -2.427 -12.618  -1.113  0.00  0.00    +0.106 A 
ATOM     26  C   UNL     1      -2.325 -13.984  -1.297  0.00  0.00    +0.029 A 
ATOM     27  C   UNL     1      -3.271 -14.829  -0.745  0.00  0.00    +0.005 A 
ATOM     28  C   UNL     1      -4.317 -14.306  -0.007  0.00  0.00    -0.050 A 
ATOM     29  C   UNL     1      -4.418 -12.940   0.178  0.00  0.00    +0.005 A 
ATOM     30  C   UNL     1      -3.470 -12.097  -0.371  0.00  0.00    +0.029 A 
ATOM     31  C   UNL     1      -5.348 -15.227   0.594  0.00  0.00    +0.044 C 
ENDBRANCH  22  25
ENDBRANCH  21  22
ENDBRANCH   7  17
TORSDOF 4
