REMARK  Name = ZINC39634619
REMARK  9 active torsions:
REMARK  status: ('A' for Active; 'I' for Inactive)
REMARK    1  A    between atoms: C_1  and  O_2
REMARK    2  A    between atoms: O_2  and  C_3
REMARK    3  A    between atoms: C_6  and  C_11
REMARK    4  A    between atoms: C_8  and  O_9
REMARK    5  A    between atoms: O_9  and  C_10
REMARK    6  A    between atoms: C_11  and  C_12
REMARK    7  A    between atoms: C_12  and  N_13
REMARK    8  A    between atoms: C_14  and  C_16
REMARK    9  A    between atoms: C_27  and  C_29
REMARK                            x       y       z     vdW  Elec       q    Type
REMARK                         _______ _______ _______ _____ _____    ______ ____
ROOT
ATOM      1  C   UNL     1       6.655  -4.031  -7.265  0.00  0.00    +0.100 C 
ATOM      2  C   UNL     1       6.216  -5.466  -6.899  0.00  0.00    +0.121 C 
ATOM      3  N   UNL     1       7.373  -6.317  -7.266  0.00  0.00    -0.300 N 
ATOM      4  C   UNL     1       8.558  -5.520  -6.867  0.00  0.00    +0.115 C 
ATOM      5  C   UNL     1       8.193  -4.070  -7.242  0.00  0.00    -0.004 C 
ATOM      6  C   UNL     1       8.730  -3.103  -6.192  0.00  0.00    -0.010 C 
ATOM      7  C   UNL     1      10.261  -3.116  -6.228  0.00  0.00    -0.082 C 
ATOM      8  N   UNL     1      10.724  -2.725  -7.565  0.00  0.00    +0.379 N 
ATOM      9  C   UNL     1      10.280  -3.712  -8.557  0.00  0.00    -0.082 C 
ATOM     10  C   UNL     1       8.751  -3.724  -8.619  0.00  0.00    -0.010 C 
ATOM     11  C   UNL     1       7.353  -7.538  -7.836  0.00  0.00    +0.219 C 
ATOM     12  O   UNL     1       6.299  -8.030  -8.179  0.00  0.00    -0.275 OA
ATOM     13  H   UNL     1      10.344  -1.820  -7.800  0.00  0.00    -0.086 HD
ATOM     14  H   UNL     1      11.732  -2.675  -7.569  0.00  0.00    -0.086 HD
ENDROOT
BRANCH  11  15
ATOM     15  C   UNL     1       8.640  -8.293  -8.045  0.00  0.00    +0.079 C 
ATOM     16  C   UNL     1       8.475  -9.281  -9.207  0.00  0.00    +0.017 C 
ATOM     17  C   UNL     1       9.841  -9.902  -9.512  0.00  0.00    +0.027 C 
ATOM     18  C   UNL     1      10.476 -10.400  -8.247  0.00  0.00    -0.031 C 
ATOM     19  C   UNL     1      10.106 -10.042  -7.059  0.00  0.00    -0.030 C 
ATOM     20  C   UNL     1       8.986  -9.082  -6.779  0.00  0.00    +0.039 C 
ENDBRANCH  11  15
BRANCH   1  22
ATOM     21  N   UNL     1       5.898  -1.772  -6.601  0.00  0.00    -0.315 N 
ATOM     22  C   UNL     1       6.140  -3.049  -6.245  0.00  0.00    +0.218 C 
ATOM     23  O   UNL     1       5.943  -3.407  -5.103  0.00  0.00    -0.275 OA
ATOM     24  H   UNL     1       6.055  -1.485  -7.515  0.00  0.00    +0.149 HD
BRANCH  21  25
ATOM     25  C   UNL     1       5.397  -0.817  -5.610  0.00  0.00    +0.109 C 
BRANCH  25  26
ATOM     26  C   UNL     1       5.208   0.551  -6.269  0.00  0.00    +0.054 C 
BRANCH  26  30
ATOM     27  C   UNL     1       3.751   3.341  -3.373  0.00  0.00    +0.161 A 
ATOM     28  C   UNL     1       5.115   3.179  -3.559  0.00  0.00    +0.049 A 
ATOM     29  C   UNL     1       5.583   2.276  -4.495  0.00  0.00    +0.007 A 
ATOM     30  C   UNL     1       4.693   1.533  -5.249  0.00  0.00    -0.042 A 
ATOM     31  C   UNL     1       3.331   1.690  -5.069  0.00  0.00    +0.053 A 
ATOM     32  C   UNL     1       2.856   2.589  -4.127  0.00  0.00    +0.162 A 
BRANCH  27  34
ATOM     33  C   UNL     1       4.267   4.965  -1.714  0.00  0.00    +0.277 C 
ATOM     34  O   UNL     1       3.289   4.228  -2.452  0.00  0.00    -0.491 OA
ENDBRANCH  27  34
BRANCH  32  35
ATOM     35  O   UNL     1       1.516   2.740  -3.944  0.00  0.00    -0.491 OA
ATOM     36  C   UNL     1       0.657   1.935  -4.754  0.00  0.00    +0.277 C 
ENDBRANCH  32  35
ENDBRANCH  26  30
ENDBRANCH  25  26
ENDBRANCH  21  25
ENDBRANCH   1  22
TORSDOF 7
