REMARK  Name = ZINC63743466
REMARK  6 active torsions:
REMARK  status: ('A' for Active; 'I' for Inactive)
REMARK    1  A    between atoms: C_4  and  N_18
REMARK    2  A    between atoms: C_5  and  C_7
REMARK    3  A    between atoms: C_7  and  C_8
REMARK    4  A    between atoms: C_8  and  C_9
REMARK    5  A    between atoms: N_18  and  S_19
REMARK    6  A    between atoms: S_19  and  C_22
REMARK                            x       y       z     vdW  Elec       q    Type
REMARK                         _______ _______ _______ _____ _____    ______ ____
ROOT
ATOM      1  C   UNL     1      -0.130   1.075   0.513  0.00  0.00    +0.000 A 
ATOM      2  C   UNL     1       0.991   1.879   0.413  0.00  0.00    +0.002 A 
ATOM      3  C   UNL     1       2.236   1.310   0.231  0.00  0.00    +0.025 A 
ATOM      4  C   UNL     1       2.362  -0.071   0.148  0.00  0.00    +0.051 A 
ATOM      5  C   UNL     1       1.234  -0.875   0.249  0.00  0.00    -0.025 A 
ATOM      6  C   UNL     1      -0.009  -0.299   0.431  0.00  0.00    +0.005 A 
ENDROOT
BRANCH   4   7
ATOM      7  N   UNL     1       3.620  -0.649  -0.036  0.00  0.00    -0.216 N 
ATOM      8  H   UNL     1       3.711  -1.448  -0.579  0.00  0.00    +0.174 HD
BRANCH   7   9
ATOM      9  S   UNL     1       4.955   0.028   0.671  0.00  0.00    +0.073 S 
ATOM     10  O   UNL     1       6.041  -0.850   0.412  0.00  0.00    -0.150 OA
ATOM     11  O   UNL     1       4.971   1.395   0.282  0.00  0.00    -0.150 OA
BRANCH   9  12
ATOM     12  C   UNL     1       4.691   0.003   2.413  0.00  0.00    +0.114 A 
ATOM     13  C   UNL     1       4.067   1.070   3.032  0.00  0.00    +0.067 A 
ATOM     14  C   UNL     1       3.860   1.052   4.401  0.00  0.00    +0.128 A 
ATOM     15  C   UNL     1       4.276  -0.036   5.149  0.00  0.00    +0.076 A 
ATOM     16  C   UNL     1       4.900  -1.104   4.528  0.00  0.00    +0.128 A 
ATOM     17  C   UNL     1       5.102  -1.086   3.158  0.00  0.00    +0.067 A 
ATOM     18  F   UNL     1       5.307  -2.166   5.257  0.00  0.00    -0.205 F 
ATOM     19  F   UNL     1       3.251   2.095   5.007  0.00  0.00    -0.205 F 
ENDBRANCH   9  12
ENDBRANCH   7   9
ENDBRANCH   4   7
BRANCH   5  20
ATOM     20  C   UNL     1       1.365  -2.373   0.159  0.00  0.00    +0.041 C 
BRANCH  20  21
ATOM     21  C   UNL     1       1.711  -2.939   1.538  0.00  0.00    +0.051 C 
BRANCH  21  22
ATOM     22  C   UNL     1       1.845  -4.460   1.447  0.00  0.00    +0.174 C 
ATOM     23  N   UNL     1       0.560  -5.056   1.058  0.00  0.00    -0.363 N 
ATOM     24  C   UNL     1       0.192  -5.854   2.018  0.00  0.00    +0.060 A 
ATOM     25  C   UNL     1      -0.982  -6.716   2.206  0.00  0.00    +0.027 A 
ATOM     26  C   UNL     1      -1.097  -7.448   3.332  0.00  0.00    +0.002 A 
ATOM     27  C   UNL     1      -0.131  -7.424   4.354  0.00  0.00    +0.002 A 
ATOM     28  C   UNL     1       0.983  -6.668   4.283  0.00  0.00    +0.027 A 
ATOM     29  C   UNL     1       1.216  -5.829   3.099  0.00  0.00    +0.060 A 
ATOM     30  N   UNL     1       2.176  -5.017   2.765  0.00  0.00    -0.363 N 
ATOM     31  H   UNL     1       0.075  -4.886   0.235  0.00  0.00    +0.162 HD
ATOM     32  H   UNL     1       2.967  -4.816   3.290  0.00  0.00    +0.162 HD
ENDBRANCH  21  22
ENDBRANCH  20  21
ENDBRANCH   5  20
TORSDOF 6
