REMARK  Name = ZINC66557379
REMARK  6 active torsions:
REMARK  status: ('A' for Active; 'I' for Inactive)
REMARK    1  A    between atoms: C_1  and  C_2
REMARK    2  A    between atoms: C_6  and  C_7
REMARK    3  A    between atoms: N_9  and  N_10
REMARK    4  A    between atoms: C_11  and  C_13
REMARK    5  A    between atoms: C_14  and  C_15
REMARK    6  A    between atoms: C_18  and  N_21
REMARK                            x       y       z     vdW  Elec       q    Type
REMARK                         _______ _______ _______ _____ _____    ______ ____
ROOT
ATOM      1  N   UNL     1       0.029  -0.732   4.900  0.00  0.00    -0.231 N 
ATOM      2  C   UNL     1       0.066  -1.625   5.909  0.00  0.00    +0.253 C 
ATOM      3  O   UNL     1       0.093  -2.817   5.666  0.00  0.00    -0.269 OA
ATOM      4  H   UNL     1       0.008   0.218   5.094  0.00  0.00    +0.173 HD
ENDROOT
BRANCH   1   7
ATOM      5  C   UNL     1      -0.015  -0.284   2.563  0.00  0.00    +0.267 C 
ATOM      6  O   UNL     1      -0.042   0.908   2.806  0.00  0.00    -0.268 OA
ATOM      7  N   UNL     1       0.022  -1.177   3.572  0.00  0.00    -0.230 N 
ATOM      8  H   UNL     1       0.044  -2.127   3.378  0.00  0.00    +0.173 HD
BRANCH   5  14
ATOM      9  C   UNL     1      -0.096   1.501   0.011  0.00  0.00    +0.045 C 
ATOM     10  C   UNL     1      -0.057  -0.005   0.003  0.00  0.00    -0.031 A 
ATOM     11  C   UNL     1      -0.048  -0.729  -1.165  0.00  0.00    +0.011 A 
ATOM     12  C   UNL     1      -0.013  -2.083  -1.101  0.00  0.00    +0.046 A 
ATOM     13  S   UNL     1       0.010  -2.417   0.545  0.00  0.00    -0.092 S 
ATOM     14  C   UNL     1      -0.022  -0.749   1.173  0.00  0.00    +0.078 A 
ENDBRANCH   5  14
ENDBRANCH   1   7
BRANCH   2  15
ATOM     15  C   UNL     1       0.073  -1.161   7.296  0.00  0.00    +0.069 C 
ATOM     16  C   UNL     1       0.110  -2.055   8.307  0.00  0.00    +0.013 C 
BRANCH  16  17
ATOM     17  C   UNL     1       0.117  -1.589   9.701  0.00  0.00    -0.025 A 
ATOM     18  C   UNL     1       0.081  -0.219   9.983  0.00  0.00    +0.010 A 
ATOM     19  C   UNL     1       0.087   0.213  11.290  0.00  0.00    +0.024 A 
ATOM     20  C   UNL     1       0.131  -0.710  12.330  0.00  0.00    +0.036 A 
ATOM     21  C   UNL     1       0.168  -2.074  12.054  0.00  0.00    +0.024 A 
ATOM     22  C   UNL     1       0.155  -2.515  10.750  0.00  0.00    +0.010 A 
BRANCH  20  23
ATOM     23  N   UNL     1       0.138  -0.268  13.653  0.00  0.00    -0.271 N 
ATOM     24  C   UNL     1       0.068  -1.152  14.822  0.00  0.00    +0.114 C 
ATOM     25  C   UNL     1       0.539  -0.294  16.017  0.00  0.00    +0.029 C 
ATOM     26  C   UNL     1       0.206   1.135  15.529  0.00  0.00    +0.098 C 
ATOM     27  C   UNL     1       0.217   1.023  14.020  0.00  0.00    +0.220 C 
ATOM     28  O   UNL     1       0.284   1.960  13.254  0.00  0.00    -0.275 OA
ENDBRANCH  20  23
ENDBRANCH  16  17
ENDBRANCH   2  15
TORSDOF 5
