REMARK  Name = ZINC40334715
REMARK  10 active torsions:
REMARK  status: ('A' for Active; 'I' for Inactive)
REMARK    1  A    between atoms: C_1  and  C_2
REMARK    2  A    between atoms: C_3  and  C_9
REMARK    3  A    between atoms: C_5  and  N_8
REMARK    4  A    between atoms: N_11  and  C_12
REMARK    5  A    between atoms: N_11  and  C_13
REMARK    6  A    between atoms: C_13  and  C_14
REMARK    7  A    between atoms: N_16  and  C_17
REMARK    8  A    between atoms: C_17  and  C_18
REMARK    9  A    between atoms: C_17  and  C_19
REMARK   10  A    between atoms: C_17  and  C_20
REMARK                            x       y       z     vdW  Elec       q    Type
REMARK                         _______ _______ _______ _____ _____    ______ ____
ROOT
ATOM      1  C   UNL     1      -0.124   0.215  -2.389  0.00  0.00    +0.249 C 
ATOM      2  O   UNL     1      -0.012   1.424  -2.317  0.00  0.00    -0.270 OA
ATOM      3  N   UNL     1      -0.293  -0.375  -3.589  0.00  0.00    -0.292 N 
ATOM      4  C   UNL     1      -0.523  -1.819  -3.669  0.00  0.00    +0.133 C 
ENDROOT
BRANCH   1   7
ATOM      5  C   UNL     1       2.117   0.467  -0.579  0.00  0.00    +0.066 C 
ATOM      6  C   UNL     1       0.999  -0.497  -0.277  0.00  0.00    +0.050 A 
ATOM      7  C   UNL     1      -0.076  -0.607  -1.162  0.00  0.00    +0.060 A 
ATOM      8  C   UNL     1      -1.106  -1.506  -0.868  0.00  0.00    +0.039 A 
ATOM      9  C   UNL     1      -1.012  -2.255   0.300  0.00  0.00    +0.044 A 
ATOM     10  C   UNL     1       0.093  -2.085   1.127  0.00  0.00    +0.133 A 
ATOM     11  N   UNL     1       1.049  -1.231   0.815  0.00  0.00    -0.258 NA
BRANCH   9  12
ATOM     12  N   UNL     1      -2.015  -3.167   0.639  0.00  0.00    -0.357 N 
ATOM     13  H   UNL     1      -2.783  -3.280   0.058  0.00  0.00    +0.142 HD
ATOM     14  H   UNL     1      -1.943  -3.686   1.455  0.00  0.00    +0.142 HD
ENDBRANCH   9  12
ENDBRANCH   1   7
BRANCH   3  15
ATOM     15  C   UNL     1      -0.247   0.428  -4.814  0.00  0.00    +0.203 C 
BRANCH  15  16
ATOM     16  C   UNL     1       1.170   0.486  -5.324  0.00  0.00    +0.231 C 
ATOM     17  O   UNL     1       2.054  -0.087  -4.723  0.00  0.00    -0.274 OA
ATOM     18  N   UNL     1       1.455   1.175  -6.447  0.00  0.00    -0.309 N 
ATOM     19  H   UNL     1       0.747   1.633  -6.927  0.00  0.00    +0.149 HD
BRANCH  18  20
ATOM     20  C   UNL     1       2.832   1.231  -6.942  0.00  0.00    +0.026 C 
ATOM     21  C   UNL     1       3.324  -0.187  -7.243  0.00  0.00    +0.031 C 
ATOM     22  C   UNL     1       2.880   2.070  -8.221  0.00  0.00    +0.031 C 
ATOM     23  C   UNL     1       3.731   1.867  -5.880  0.00  0.00    +0.031 C 
ENDBRANCH  18  20
ENDBRANCH  15  16
ENDBRANCH   3  15
TORSDOF 5
