REMARK  Name = ZINC34829695
REMARK  8 active torsions:
REMARK  status: ('A' for Active; 'I' for Inactive)
REMARK    1  A    between atoms: C_1  and  C_2
REMARK    2  A    between atoms: C_9  and  C_11
REMARK    3  A    between atoms: C_14  and  C_16
REMARK    4  A    between atoms: C_22  and  C_24
REMARK    5  A    between atoms: C_24  and  N_25
REMARK    6  A    between atoms: C_33  and  C_35
REMARK    7  A    between atoms: C_38  and  O_41
REMARK    8  A    between atoms: O_41  and  C_42
REMARK                            x       y       z     vdW  Elec       q    Type
REMARK                         _______ _______ _______ _____ _____    ______ ____
ROOT
ATOM      1  C   UNL     1       0.005   1.527  -0.005  0.00  0.00    +0.029 C 
ATOM      2  C   UNL     1       0.014  -0.003  -0.006  0.00  0.00    +0.090 C 
ATOM      3  C   UNL     1       0.633  -0.512  -1.314  0.00  0.00    +0.130 C 
ATOM      4  N   UNL     1       0.871  -1.957  -1.189  0.00  0.00    -0.300 N 
ATOM      5  C   UNL     1       1.680  -2.447  -0.064  0.00  0.00    +0.126 C 
ATOM      6  C   UNL     1       1.062  -1.937   1.244  0.00  0.00    +0.127 C 
ATOM      7  N   UNL     1       0.820  -0.492   1.121  0.00  0.00    -0.295 N 
ATOM      8  C   UNL     1       1.333   0.368   2.023  0.00  0.00    +0.220 C 
ATOM      9  O   UNL     1       1.046   1.545   1.968  0.00  0.00    -0.275 OA
ATOM     10  C   UNL     1       0.356  -2.818  -2.089  0.00  0.00    +0.199 C 
ATOM     11  O   UNL     1      -0.310  -2.402  -3.014  0.00  0.00    -0.278 OA
ENDROOT
BRANCH   8  12
ATOM     12  C   UNL     1       2.261  -0.133   3.099  0.00  0.00    +0.083 C 
ATOM     13  C   UNL     1       1.747  -0.116   4.540  0.00  0.00    +0.022 C 
ATOM     14  C   UNL     1       2.808   0.893   4.094  0.00  0.00    +0.032 C 
BRANCH  14  15
ATOM     15  C   UNL     1       4.214   0.693   4.598  0.00  0.00    -0.044 A 
ATOM     16  C   UNL     1       4.547  -0.464   5.276  0.00  0.00    +0.004 A 
ATOM     17  C   UNL     1       5.837  -0.648   5.738  0.00  0.00    +0.000 A 
ATOM     18  C   UNL     1       6.794   0.326   5.522  0.00  0.00    +0.000 A 
ATOM     19  C   UNL     1       6.461   1.483   4.843  0.00  0.00    +0.000 A 
ATOM     20  C   UNL     1       5.172   1.665   4.377  0.00  0.00    +0.004 A 
ENDBRANCH  14  15
ENDBRANCH   8  12
BRANCH  10  21
ATOM     21  C   UNL     1       0.609  -4.297  -1.948  0.00  0.00    +0.020 C 
BRANCH  21  22
ATOM     22  N   UNL     1      -0.053  -5.014  -3.046  0.00  0.00    +0.393 N 
ATOM     23  C   UNL     1       0.549  -4.606  -4.322  0.00  0.00    -0.072 C 
ATOM     24  C   UNL     1      -0.349  -5.091  -5.474  0.00  0.00    +0.024 C 
ATOM     25  C   UNL     1      -0.690  -6.521  -5.206  0.00  0.00    -0.010 A 
ATOM     26  C   UNL     1      -0.507  -7.191  -4.034  0.00  0.00    -0.047 A 
ATOM     27  C   UNL     1      -0.895  -8.528  -4.014  0.00  0.00    +0.010 A 
ATOM     28  C   UNL     1      -1.426  -9.095  -5.123  0.00  0.00    +0.045 A 
ATOM     29  S   UNL     1      -1.403  -7.733  -6.280  0.00  0.00    -0.101 S 
ATOM     30  C   UNL     1       0.095  -6.459  -2.838  0.00  0.00    -0.005 C 
ATOM     31  H   UNL     1      -1.034  -4.778  -3.052  0.00  0.00    -0.080 HD
BRANCH  30  32
ATOM     32  C   UNL     1      -0.630  -6.865  -1.580  0.00  0.00    -0.056 A 
ATOM     33  C   UNL     1      -1.860  -6.309  -1.282  0.00  0.00    +0.006 A 
ATOM     34  C   UNL     1      -2.526  -6.679  -0.130  0.00  0.00    +0.046 A 
ATOM     35  C   UNL     1      -1.960  -7.610   0.728  0.00  0.00    +0.120 A 
ATOM     36  C   UNL     1      -0.726  -8.168   0.427  0.00  0.00    +0.046 A 
ATOM     37  C   UNL     1      -0.067  -7.798  -0.729  0.00  0.00    +0.006 A 
BRANCH  35  38
ATOM     38  O   UNL     1      -2.614  -7.976   1.862  0.00  0.00    -0.495 OA
ATOM     39  C   UNL     1      -1.971  -8.940   2.699  0.00  0.00    +0.277 C 
ENDBRANCH  35  38
ENDBRANCH  30  32
ENDBRANCH  21  22
ENDBRANCH  10  21
TORSDOF 6
