REMARK  Name = ZINC20706098
REMARK  5 active torsions:
REMARK  status: ('A' for Active; 'I' for Inactive)
REMARK    1  A    between atoms: C_1  and  N_2
REMARK    2  A    between atoms: N_2  and  C_3
REMARK    3  A    between atoms: C_4  and  C_6
REMARK    4  A    between atoms: C_13  and  C_22
REMARK    5  A    between atoms: C_24  and  N_29
REMARK                            x       y       z     vdW  Elec       q    Type
REMARK                         _______ _______ _______ _____ _____    ______ ____
ROOT
ATOM      1  C   UNL     1      -1.257   1.993  -0.145  0.00  0.00    +0.058 A 
ATOM      2  C   UNL     1      -1.202   3.379  -0.281  0.00  0.00    +0.015 A 
ATOM      3  C   UNL     1      -2.366   4.109  -0.384  0.00  0.00    +0.001 A 
ATOM      4  C   UNL     1      -3.591   3.462  -0.360  0.00  0.00    +0.006 A 
ATOM      5  C   UNL     1      -3.663   2.092  -0.234  0.00  0.00    -0.019 A 
ATOM      6  C   UNL     1      -2.499   1.326  -0.117  0.00  0.00    +0.044 A 
ATOM      7  N   UNL     1      -2.485  -0.048   0.051  0.00  0.00    -0.336 N 
ATOM      8  C   UNL     1      -3.781  -0.741  -0.023  0.00  0.00    +0.106 C 
ATOM      9  C   UNL     1      -4.796   0.137   0.679  0.00  0.00    +0.029 C 
ATOM     10  C   UNL     1      -4.958   1.377  -0.244  0.00  0.00    +0.049 C 
ATOM     11  C   UNL     1      -6.220   1.993   0.222  0.00  0.00    -0.023 C 
ATOM     12  C   UNL     1      -6.989   1.039   0.734  0.00  0.00    -0.030 C 
ATOM     13  C   UNL     1      -6.263  -0.308   0.668  0.00  0.00    +0.033 C 
ATOM     14  H   UNL     1      -1.564  -0.622   0.233  0.00  0.00    +0.147 HD
ENDROOT
BRANCH   8  15
ATOM     15  C   UNL     1      -4.178  -0.936  -1.464  0.00  0.00    -0.007 A 
ATOM     16  C   UNL     1      -3.606  -0.154  -2.450  0.00  0.00    +0.039 A 
ATOM     17  C   UNL     1      -3.970  -0.333  -3.772  0.00  0.00    +0.127 A 
ATOM     18  C   UNL     1      -4.905  -1.294  -4.108  0.00  0.00    +0.034 A 
ATOM     19  C   UNL     1      -5.476  -2.077  -3.123  0.00  0.00    +0.022 A 
ATOM     20  C   UNL     1      -5.109  -1.901  -1.800  0.00  0.00    +0.046 A 
ATOM     21 CL   UNL     1      -5.822  -2.889  -0.563  0.00  0.00    -0.083 Cl
BRANCH  17  22
ATOM     22  N   UNL     1      -3.358   0.505  -4.827  0.00  0.00    +0.056 N 
ATOM     23  O   UNL     1      -2.534   1.352  -4.531  0.00  0.00    -0.126 OA
ATOM     24  O   UNL     1      -3.678   0.347  -5.992  0.00  0.00    -0.126 OA
ENDBRANCH  17  22
ENDBRANCH   8  15
BRANCH   1  28
ATOM     25  C   UNL     1       2.246   0.684  -0.793  0.00  0.00    +0.132 C 
ATOM     26  N   UNL     1       0.958   1.360  -0.965  0.00  0.00    -0.304 N 
ATOM     27  C   UNL     1       0.719   2.191  -2.147  0.00  0.00    +0.132 C 
ATOM     28  C   UNL     1      -0.007   1.218  -0.035  0.00  0.00    +0.248 C 
ATOM     29  O   UNL     1       0.151   0.448   0.893  0.00  0.00    -0.270 OA
ENDBRANCH   1  28
TORSDOF 3
