REMARK  Name = ZINC37443084
REMARK  6 active torsions:
REMARK  status: ('A' for Active; 'I' for Inactive)
REMARK    1  A    between atoms: C_1  and  C_2
REMARK    2  A    between atoms: C_8  and  N_10
REMARK    3  A    between atoms: C_11  and  C_13
REMARK    4  A    between atoms: C_13  and  C_34
REMARK    5  A    between atoms: N_25  and  C_26
REMARK    6  A    between atoms: C_26  and  C_27
REMARK                            x       y       z     vdW  Elec       q    Type
REMARK                         _______ _______ _______ _____ _____    ______ ____
ROOT
ATOM      1  C   UNL     1       4.278   0.482   2.373  0.00  0.00    +0.129 C 
ATOM      2  C   UNL     1       4.731   1.018   3.731  0.00  0.00    +0.157 C 
ATOM      3  N   UNL     1       4.193   2.368   3.916  0.00  0.00    -0.333 N 
ATOM      4  C   UNL     1       3.864   3.018   5.092  0.00  0.00    +0.057 A 
ATOM      5  C   UNL     1       3.858   2.768   6.472  0.00  0.00    +0.034 A 
ATOM      6  C   UNL     1       3.441   3.720   7.332  0.00  0.00    +0.048 A 
ATOM      7  S   UNL     1       3.017   5.070   6.246  0.00  0.00    -0.095 S 
ATOM      8  C   UNL     1       3.417   4.290   4.704  0.00  0.00    +0.038 A 
ATOM      9  C   UNL     1       3.471   4.400   3.320  0.00  0.00    +0.048 A 
ATOM     10  C   UNL     1       3.943   3.213   2.841  0.00  0.00    +0.106 A 
ATOM     11  C   UNL     1       4.179   2.766   1.463  0.00  0.00    +0.264 C 
ATOM     12  O   UNL     1       4.129   3.534   0.520  0.00  0.00    -0.268 OA
ATOM     13  N   UNL     1       4.456   1.451   1.298  0.00  0.00    -0.276 N 
ATOM     14  C   UNL     1       5.087  -0.775   2.045  0.00  0.00    +0.043 C 
ENDROOT
BRANCH   1  16
ATOM     15  N   UNL     1       2.389  -0.715   3.431  0.00  0.00    -0.310 N 
ATOM     16  C   UNL     1       2.819   0.112   2.457  0.00  0.00    +0.238 C 
ATOM     17  O   UNL     1       2.033   0.558   1.649  0.00  0.00    -0.273 OA
ATOM     18  H   UNL     1       3.003  -1.014   4.120  0.00  0.00    +0.149 HD
BRANCH  15  25
ATOM     19  C   UNL     1       1.751  -3.537   3.309  0.00  0.00    +0.009 C 
ATOM     20  C   UNL     1       0.908  -2.540   4.106  0.00  0.00    +0.006 C 
ATOM     21  C   UNL     1       1.435  -2.457   5.539  0.00  0.00    +0.005 C 
ATOM     22  C   UNL     1       0.592  -1.460   6.336  0.00  0.00    +0.000 C 
ATOM     23  C   UNL     1       0.677  -0.080   5.680  0.00  0.00    +0.002 C 
ATOM     24  C   UNL     1       0.150  -0.164   4.246  0.00  0.00    +0.022 C 
ATOM     25  C   UNL     1       0.993  -1.161   3.450  0.00  0.00    +0.076 C 
ENDBRANCH  15  25
ENDBRANCH   1  16
BRANCH  13  26
ATOM     26  C   UNL     1       4.951   0.987  -0.000  0.00  0.00    +0.144 C 
BRANCH  26  27
ATOM     27  C   UNL     1       3.786   0.742  -0.924  0.00  0.00    -0.030 A 
ATOM     28  C   UNL     1       3.129  -0.474  -0.899  0.00  0.00    +0.006 A 
ATOM     29  C   UNL     1       2.060  -0.700  -1.746  0.00  0.00    +0.020 A 
ATOM     30  C   UNL     1       1.647   0.292  -2.618  0.00  0.00    +0.041 A 
ATOM     31  C   UNL     1       2.305   1.509  -2.642  0.00  0.00    +0.020 A 
ATOM     32  C   UNL     1       3.371   1.735  -1.791  0.00  0.00    +0.006 A 
ATOM     33 CL   UNL     1       0.305   0.009  -3.682  0.00  0.00    -0.084 Cl
ENDBRANCH  26  27
ENDBRANCH  13  26
TORSDOF 4
