REMARK  Name = ZINC09433326
REMARK  15 active torsions:
REMARK  status: ('A' for Active; 'I' for Inactive)
REMARK    1  A    between atoms: C_1  and  C_2
REMARK    2  A    between atoms: C_2  and  C_3
REMARK    3  A    between atoms: C_2  and  C_4
REMARK    4  A    between atoms: C_4  and  N_5
REMARK    5  A    between atoms: C_6  and  C_34
REMARK    6  A    between atoms: C_8  and  C_18
REMARK    7  A    between atoms: N_20  and  C_21
REMARK    8  A    between atoms: C_21  and  C_22
REMARK    9  A    between atoms: C_22  and  C_23
REMARK   10  A    between atoms: C_23  and  N_76
REMARK   11  A    between atoms: C_24  and  C_25
REMARK   12  A    between atoms: C_24  and  N_76
REMARK   13  A    between atoms: C_31  and  C_32
REMARK   14  A    between atoms: C_31  and  C_33
REMARK   15  A    between atoms: C_31  and  N_76
REMARK                            x       y       z     vdW  Elec       q    Type
REMARK                         _______ _______ _______ _____ _____    ______ ____
ROOT
ATOM      1  N   UNL     1      -2.452  -8.177   5.257  0.00  0.00    -0.289 N 
ATOM      2  C   UNL     1      -1.254  -7.573   5.835  0.00  0.00    +0.129 C 
ATOM      3  C   UNL     1      -1.315  -6.050   5.755  0.00  0.00    +0.131 C 
ATOM      4  C   UNL     1      -2.627  -5.555   6.306  0.00  0.00    -0.021 A 
ATOM      5  C   UNL     1      -2.701  -4.349   6.968  0.00  0.00    +0.005 A 
ATOM      6  C   UNL     1      -3.916  -3.902   7.457  0.00  0.00    +0.000 A 
ATOM      7  C   UNL     1      -5.062  -4.658   7.283  0.00  0.00    +0.001 A 
ATOM      8  C   UNL     1      -5.000  -5.871   6.626  0.00  0.00    +0.013 A 
ATOM      9  C   UNL     1      -3.777  -6.328   6.139  0.00  0.00    +0.041 A 
ATOM     10  C   UNL     1      -3.670  -7.639   5.465  0.00  0.00    +0.247 C 
ATOM     11  O   UNL     1      -4.670  -8.227   5.102  0.00  0.00    -0.270 OA
ENDROOT
BRANCH   2  12
ATOM     12  C   UNL     1      -0.042  -8.060   5.082  0.00  0.00    +0.011 A 
ATOM     13  C   UNL     1       1.073  -8.665   5.558  0.00  0.00    +0.013 A 
ATOM     14  C   UNL     1       2.067  -9.033   4.671  0.00  0.00    +0.008 A 
ATOM     15  C   UNL     1       1.902  -8.768   3.352  0.00  0.00    +0.045 A 
ATOM     16  S   UNL     1       0.299  -7.982   3.331  0.00  0.00    -0.100 S 
ENDBRANCH   2  12
BRANCH   3  17
ATOM     17  C   UNL     1      -1.183  -5.620   4.316  0.00  0.00    +0.223 C 
ATOM     18  O   UNL     1      -1.882  -6.127   3.465  0.00  0.00    -0.275 OA
ATOM     19  N   UNL     1      -0.289  -4.671   3.976  0.00  0.00    -0.315 N 
ATOM     20  H   UNL     1       0.270  -4.265   4.657  0.00  0.00    +0.149 HD
BRANCH  19  21
ATOM     21  C   UNL     1      -0.160  -4.253   2.578  0.00  0.00    +0.102 C 
BRANCH  21  22
ATOM     22  C   UNL     1       0.917  -3.172   2.466  0.00  0.00    +0.000 C 
BRANCH  22  23
ATOM     23  C   UNL     1       1.051  -2.735   1.006  0.00  0.00    -0.076 C 
BRANCH  23  24
ATOM     24  N   UNL     1       2.080  -1.677   0.917  0.00  0.00    +0.384 N 
ATOM     25  H   UNL     1       1.863  -0.943   1.601  0.00  0.00    -0.081 HD
BRANCH  24  26
ATOM     26  C   UNL     1       3.411  -2.241   1.223  0.00  0.00    -0.074 C 
ATOM     27  C   UNL     1       3.896  -3.127   0.074  0.00  0.00    -0.014 C 
ATOM     28  C   UNL     1       4.397  -1.089   1.430  0.00  0.00    -0.014 C 
ENDBRANCH  24  26
BRANCH  24  29
ATOM     29  C   UNL     1       2.081  -1.086  -0.438  0.00  0.00    -0.043 C 
BRANCH  29  30
ATOM     30  C   UNL     1       0.917  -0.135  -0.550  0.00  0.00    -0.064 A 
ATOM     31  C   UNL     1      -0.268  -0.556  -1.122  0.00  0.00    +0.002 A 
ATOM     32  C   UNL     1      -1.336   0.315  -1.221  0.00  0.00    +0.000 A 
ATOM     33  C   UNL     1      -1.216   1.611  -0.757  0.00  0.00    +0.000 A 
ATOM     34  C   UNL     1      -0.029   2.035  -0.189  0.00  0.00    +0.000 A 
ATOM     35  C   UNL     1       1.038   1.162  -0.086  0.00  0.00    +0.002 A 
ENDBRANCH  29  30
ENDBRANCH  24  29
ENDBRANCH  23  24
ENDBRANCH  22  23
ENDBRANCH  21  22
ENDBRANCH  19  21
ENDBRANCH   3  17
BRANCH   1  36
ATOM     36  C   UNL     1      -2.328  -9.386   4.439  0.00  0.00    +0.111 C 
BRANCH  36  38
ATOM     37  C   UNL     1      -2.597 -11.870   4.427  0.00  0.00    +0.009 C 
ATOM     38  C   UNL     1      -2.595 -10.618   5.306  0.00  0.00    +0.000 C 
ATOM     39  C   UNL     1      -1.499 -10.742   6.367  0.00  0.00    +0.009 C 
ENDBRANCH  36  38
ENDBRANCH   1  36
TORSDOF 11
