REMARK  Name = ZINC15184638
REMARK  9 active torsions:
REMARK  status: ('A' for Active; 'I' for Inactive)
REMARK    1  A    between atoms: C_1  and  C_2
REMARK    2  A    between atoms: C_7  and  O_27
REMARK    3  A    between atoms: C_8  and  C_12
REMARK    4  A    between atoms: C_12  and  N_56
REMARK    5  A    between atoms: C_13  and  C_14
REMARK    6  A    between atoms: C_13  and  N_56
REMARK    7  A    between atoms: C_14  and  C_15
REMARK    8  A    between atoms: C_15  and  N_16
REMARK    9  A    between atoms: O_27  and  C_28
REMARK                            x       y       z     vdW  Elec       q    Type
REMARK                         _______ _______ _______ _____ _____    ______ ____
ROOT
ATOM      1  N   UNL     1      -3.055   0.930  -1.348  0.00  0.00    +0.382 N 
ATOM      2  H   UNL     1      -2.377   0.477  -1.971  0.00  0.00    -0.085 HD
ATOM      3  H   UNL     1      -3.228   1.890  -1.670  0.00  0.00    -0.085 HD
ENDROOT
BRANCH   1   4
ATOM      4  C   UNL     1      -2.509   0.968   0.022  0.00  0.00    -0.043 C 
BRANCH   4  11
ATOM      5  C   UNL     1       3.567   2.317   1.921  0.00  0.00    +0.052 C 
ATOM      6  C   UNL     1       3.353   2.377   0.407  0.00  0.00    +0.175 C 
ATOM      7  C   UNL     1       2.582   3.659   0.013  0.00  0.00    +0.083 C 
ATOM      8  C   UNL     1       1.146   3.173   0.011  0.00  0.00    +0.001 A 
ATOM      9  C   UNL     1      -0.057   3.845   0.022  0.00  0.00    +0.053 A 
ATOM     10  C   UNL     1      -1.248   3.133   0.028  0.00  0.00    +0.122 A 
ATOM     11  C   UNL     1      -1.218   1.746   0.017  0.00  0.00    -0.019 A 
ATOM     12  C   UNL     1      -0.013   1.076   0.008  0.00  0.00    +0.051 A 
ATOM     13  C   UNL     1       1.186   1.785   0.000  0.00  0.00    +0.125 A 
ATOM     14  O   UNL     1       2.469   1.329  -0.025  0.00  0.00    -0.488 OA
BRANCH  10  15
ATOM     15  O   UNL     1      -2.438   3.791   0.039  0.00  0.00    -0.495 OA
ATOM     16  C   UNL     1      -2.389   5.219   0.044  0.00  0.00    +0.277 C 
ENDBRANCH  10  15
ENDBRANCH   4  11
ENDBRANCH   1   4
BRANCH   1  17
ATOM     17  C   UNL     1      -4.321   0.174  -1.373  0.00  0.00    -0.081 C 
BRANCH  17  18
ATOM     18  C   UNL     1      -4.864   0.152  -2.804  0.00  0.00    +0.000 C 
BRANCH  18  19
ATOM     19  C   UNL     1      -6.177  -0.631  -2.839  0.00  0.00    +0.116 C 
BRANCH  19  20
ATOM     20  N   UNL     1      -6.697  -0.652  -4.209  0.00  0.00    -0.224 N 
ATOM     21  C   UNL     1      -6.399  -1.604  -5.120  0.00  0.00    +0.246 C 
ATOM     22  O   UNL     1      -5.679  -2.568  -4.968  0.00  0.00    -0.273 OA
ATOM     23  C   UNL     1      -7.153  -1.213  -6.365  0.00  0.00    +0.113 C 
ATOM     24  C   UNL     1      -8.142  -2.310  -6.779  0.00  0.00    +0.035 C 
ATOM     25  C   UNL     1      -8.127  -2.263  -8.329  0.00  0.00    +0.003 C 
ATOM     26  C   UNL     1      -6.641  -1.966  -8.651  0.00  0.00    +0.003 C 
ATOM     27  C   UNL     1      -6.201  -0.984  -7.542  0.00  0.00    +0.035 C 
ATOM     28  N   UNL     1      -7.853   0.019  -5.997  0.00  0.00    -0.285 N 
ATOM     29  C   UNL     1      -7.530   0.268  -4.712  0.00  0.00    +0.309 C 
ATOM     30  O   UNL     1      -7.946   1.220  -4.082  0.00  0.00    -0.252 OA
ATOM     31  H   UNL     1      -8.437   0.549  -6.564  0.00  0.00    +0.151 HD
ENDBRANCH  19  20
ENDBRANCH  18  19
ENDBRANCH  17  18
ENDBRANCH   1  17
TORSDOF 7
