REMARK  Name = ZINC20206022
REMARK  9 active torsions:
REMARK  status: ('A' for Active; 'I' for Inactive)
REMARK    1  A    between atoms: C_1  and  S_2
REMARK    2  A    between atoms: S_2  and  C_5
REMARK    3  A    between atoms: C_13  and  C_14
REMARK    4  A    between atoms: C_17  and  O_20
REMARK    5  A    between atoms: O_20  and  C_21
REMARK    6  A    between atoms: C_21  and  C_22
REMARK    7  A    between atoms: C_22  and  C_23
REMARK    8  A    between atoms: C_23  and  O_24
REMARK    9  A    between atoms: O_24  and  C_25
REMARK                            x       y       z     vdW  Elec       q    Type
REMARK                         _______ _______ _______ _____ _____    ______ ____
ROOT
ATOM      1  C   UNL     1      -4.785   1.503  -0.011  0.00  0.00    +0.257 C 
ATOM      2  N   UNL     1      -5.656   2.215   0.634  0.00  0.00    -0.174 NA
ATOM      3  S   UNL     1      -5.795   3.617  -0.275  0.00  0.00    +0.049 S 
ATOM      4  C   UNL     1      -4.753   3.239  -1.519  0.00  0.00    +0.183 C 
ATOM      5  N   UNL     1      -4.450   3.912  -2.606  0.00  0.00    -0.152 NA
ATOM      6  C   UNL     1      -3.618   3.368  -3.513  0.00  0.00    +0.273 C 
ATOM      7  O   UNL     1      -3.216   4.020  -4.463  0.00  0.00    -0.268 OA
ATOM      8  C   UNL     1      -3.202   1.955  -3.330  0.00  0.00    +0.078 C 
ATOM      9  C   UNL     1      -2.811   1.169  -4.390  0.00  0.00    +0.024 C 
ATOM     10  C   UNL     1      -3.230   1.435  -1.932  0.00  0.00    +0.117 C 
ATOM     11  N   UNL     1      -2.395   0.538  -1.482  0.00  0.00    -0.386 N 
ATOM     12  N   UNL     1      -4.244   2.013  -1.143  0.00  0.00    -0.203 N 
ATOM     13  H   UNL     1      -1.774   0.106  -2.089  0.00  0.00    +0.157 HD
ATOM     14  H   UNL     1      -2.396   0.304  -0.541  0.00  0.00    +0.157 HD
ENDROOT
BRANCH   9  15
ATOM     15  C   UNL     1      -2.979   1.653  -5.762  0.00  0.00    -0.024 A 
ATOM     16  C   UNL     1      -1.993   1.395  -6.725  0.00  0.00    +0.011 A 
ATOM     17  C   UNL     1      -2.156   1.851  -8.008  0.00  0.00    +0.046 A 
ATOM     18  C   UNL     1      -3.296   2.569  -8.354  0.00  0.00    +0.121 A 
ATOM     19  C   UNL     1      -4.277   2.828  -7.403  0.00  0.00    +0.046 A 
ATOM     20  C   UNL     1      -4.129   2.372  -6.119  0.00  0.00    +0.011 A 
BRANCH  18  21
ATOM     21  O   UNL     1      -3.451   3.018  -9.625  0.00  0.00    -0.492 OA
BRANCH  21  22
ATOM     22  C   UNL     1      -4.645   3.748  -9.914  0.00  0.00    +0.232 C 
BRANCH  22  23
ATOM     23  C   UNL     1      -4.643   4.169 -11.385  0.00  0.00    +0.082 C 
BRANCH  23  24
ATOM     24  C   UNL     1      -5.921   4.951 -11.694  0.00  0.00    +0.232 C 
BRANCH  24  25
ATOM     25  O   UNL     1      -5.919   5.344 -13.068  0.00  0.00    -0.492 OA
BRANCH  25  26
ATOM     26  C   UNL     1      -6.992   6.052 -13.509  0.00  0.00    +0.121 A 
ATOM     27  C   UNL     1      -8.023   6.367 -12.636  0.00  0.00    +0.047 A 
ATOM     28  C   UNL     1      -9.112   7.087 -13.086  0.00  0.00    +0.023 A 
ATOM     29  C   UNL     1      -9.176   7.494 -14.407  0.00  0.00    +0.041 A 
ATOM     30  C   UNL     1      -8.149   7.180 -15.279  0.00  0.00    +0.023 A 
ATOM     31  C   UNL     1      -7.055   6.466 -14.831  0.00  0.00    +0.047 A 
ATOM     32 CL   UNL     1     -10.547   8.398 -14.970  0.00  0.00    -0.084 Cl
ENDBRANCH  25  26
ENDBRANCH  24  25
ENDBRANCH  23  24
ENDBRANCH  22  23
ENDBRANCH  21  22
ENDBRANCH  18  21
ENDBRANCH   9  15
BRANCH   1  34
ATOM     33  C   UNL     1      -2.822   0.203   1.568  0.00  0.00    +0.203 C 
ATOM     34  S   UNL     1      -4.311  -0.090   0.575  0.00  0.00    +0.026 S 
ATOM     35  O   UNL     1      -3.982  -0.825  -0.596  0.00  0.00    -0.167 OA
ATOM     36  O   UNL     1      -5.384  -0.502   1.412  0.00  0.00    -0.167 OA
ENDBRANCH   1  34
TORSDOF 8
