REMARK  Name = ZINC32751085
REMARK  7 active torsions:
REMARK  status: ('A' for Active; 'I' for Inactive)
REMARK    1  A    between atoms: C_1  and  C_2
REMARK    2  A    between atoms: C_5  and  N_9
REMARK    3  A    between atoms: C_6  and  C_8
REMARK    4  A    between atoms: N_12  and  C_15
REMARK    5  A    between atoms: C_15  and  N_16
REMARK    6  A    between atoms: N_19  and  C_22
REMARK    7  A    between atoms: C_25  and  O_28
REMARK                            x       y       z     vdW  Elec       q    Type
REMARK                         _______ _______ _______ _____ _____    ______ ____
ROOT
ATOM      1  C   UNL     1       1.662   7.549  -1.035  0.00  0.00    +0.072 C 
ENDROOT
BRANCH   1   2
ATOM      2  N   UNL     1       1.681   6.080  -1.042  0.00  0.00    +0.395 N 
ATOM      3  C   UNL     1       2.462   5.557   0.088  0.00  0.00    -0.057 C 
ATOM      4  C   UNL     1       2.523   4.031  -0.001  0.00  0.00    +0.086 C 
ATOM      5  N   UNL     1       1.159   3.486   0.009  0.00  0.00    -0.333 N 
ATOM      6  C   UNL     1       0.378   4.009  -1.121  0.00  0.00    +0.086 C 
ATOM      7  C   UNL     1       0.316   5.535  -1.032  0.00  0.00    -0.057 C 
ATOM      8  H   UNL     1       2.170   5.754  -1.972  0.00  0.00    -0.079 HD
BRANCH   5   9
ATOM      9  C   UNL     1       1.177   2.087   0.002  0.00  0.00    +0.030 A 
ATOM     10  C   UNL     1      -0.017   1.377   0.010  0.00  0.00    +0.026 A 
ATOM     11  C   UNL     1       0.002  -0.004   0.002  0.00  0.00    +0.047 A 
ATOM     12  C   UNL     1       1.212  -0.681  -0.014  0.00  0.00    +0.117 A 
ATOM     13  C   UNL     1       2.405   0.027  -0.021  0.00  0.00    +0.047 A 
ATOM     14  C   UNL     1       2.388   1.408  -0.012  0.00  0.00    +0.026 A 
BRANCH  12  15
ATOM     15  O   UNL     1       1.230  -2.041  -0.022  0.00  0.00    -0.507 OA
ATOM     16  H   UNL     1       2.189  -2.579  -0.034  0.00  0.00    +0.292 HD
ENDBRANCH  12  15
ENDBRANCH   5   9
ENDBRANCH   1   2
BRANCH   1  20
ATOM     17  N   UNL     1      -0.221   8.719  -3.870  0.00  0.00    -0.278 N 
ATOM     18  C   UNL     1      -1.194   8.697  -2.899  0.00  0.00    +0.228 A 
ATOM     19  N   UNL     1      -0.667   8.288  -1.790  0.00  0.00    -0.161 NA
ATOM     20  N   UNL     1       0.691   8.030  -2.020  0.00  0.00    -0.257 N 
ATOM     21  C   UNL     1       0.939   8.311  -3.316  0.00  0.00    +0.181 A 
ATOM     22  S   UNL     1       2.449   8.172  -4.112  0.00  0.00    -0.011 S 
BRANCH  17  27
ATOM     23  C   UNL     1      -0.952  10.282  -9.276  0.00  0.00    +0.044 C 
ATOM     24  C   UNL     1      -0.758   9.867  -7.841  0.00  0.00    -0.050 A 
ATOM     25  C   UNL     1      -0.919  10.793  -6.827  0.00  0.00    +0.005 A 
ATOM     26  C   UNL     1      -0.742  10.416  -5.510  0.00  0.00    +0.027 A 
ATOM     27  C   UNL     1      -0.402   9.105  -5.205  0.00  0.00    +0.053 A 
ATOM     28  C   UNL     1      -0.235   8.178  -6.225  0.00  0.00    -0.026 A 
ATOM     29  C   UNL     1      -0.418   8.560  -7.540  0.00  0.00    +0.008 A 
ATOM     30  C   UNL     1       0.141   6.756  -5.899  0.00  0.00    +0.046 C 
ENDBRANCH  17  27
ENDBRANCH   1  20
TORSDOF 5
