REMARK  Name = ZINC35361184
REMARK  10 active torsions:
REMARK  status: ('A' for Active; 'I' for Inactive)
REMARK    1  A    between atoms: C_1  and  C_2
REMARK    2  A    between atoms: C_2  and  C_3
REMARK    3  A    between atoms: C_3  and  C_4
REMARK    4  A    between atoms: C_4  and  N_5
REMARK    5  A    between atoms: C_6  and  C_7
REMARK    6  A    between atoms: C_10  and  O_38
REMARK    7  A    between atoms: C_13  and  O_37
REMARK    8  A    between atoms: C_22  and  C_36
REMARK    9  A    between atoms: C_23  and  O_35
REMARK   10  A    between atoms: C_26  and  C_28
REMARK                            x       y       z     vdW  Elec       q    Type
REMARK                         _______ _______ _______ _____ _____    ______ ____
ROOT
ATOM      1  C   UNL     1      -4.649  -3.748  -0.978  0.00  0.00    +0.038 C 
ATOM      2  C   UNL     1      -5.424  -3.142  -2.149  0.00  0.00    +0.018 C 
ATOM      3  C   UNL     1      -5.441  -1.618  -2.016  0.00  0.00    +0.032 C 
ATOM      4  C   UNL     1      -6.119  -1.229  -0.700  0.00  0.00    +0.117 C 
ATOM      5  C   UNL     1      -5.343  -1.834   0.471  0.00  0.00    +0.067 C 
ATOM      6  C   UNL     1      -5.325  -3.359   0.338  0.00  0.00    +0.079 C 
ATOM      7  C   UNL     1      -4.546  -3.964   1.508  0.00  0.00    +0.036 C 
ATOM      8  C   UNL     1      -4.528  -5.488   1.375  0.00  0.00    +0.009 C 
ATOM      9  C   UNL     1      -3.856  -5.878   0.057  0.00  0.00    +0.025 C 
ATOM     10  C   UNL     1      -4.631  -5.272  -1.112  0.00  0.00    +0.009 C 
ATOM     11  C   UNL     1      -3.923  -5.657  -2.415  0.00  0.00    +0.005 C 
ATOM     12  C   UNL     1      -3.976  -7.175  -2.567  0.00  0.00    +0.010 C 
ATOM     13  C   UNL     1      -3.226  -7.860  -1.422  0.00  0.00    +0.003 C 
ATOM     14  C   UNL     1      -3.777  -7.380  -0.070  0.00  0.00    +0.075 C 
ATOM     15  C   UNL     1      -5.156  -8.056   0.040  0.00  0.00    +0.036 C 
ATOM     16  C   UNL     1      -4.917  -9.463  -0.556  0.00  0.00    +0.011 C 
ATOM     17  C   UNL     1      -3.641  -9.356  -1.450  0.00  0.00    +0.043 C 
ATOM     18  C   UNL     1      -1.712  -7.688  -1.557  0.00  0.00    +0.014 C 
ENDROOT
BRANCH  17  19
ATOM     19  C   UNL     1      -4.015  -9.771  -2.874  0.00  0.00    +0.204 C 
ATOM     20  C   UNL     1      -4.399 -11.231  -2.905  0.00  0.00    +0.024 C 
ATOM     21  C   UNL     1      -3.542 -11.838  -3.723  0.00  0.00    +0.091 C 
ATOM     22  C   UNL     1      -2.596 -10.847  -4.244  0.00  0.00    +0.332 C 
ATOM     23  O   UNL     1      -1.689 -11.086  -5.017  0.00  0.00    -0.246 OA
ATOM     24  O   UNL     1      -2.883  -9.632  -3.739  0.00  0.00    -0.454 OA
ENDBRANCH  17  19
BRANCH   1  26
ATOM     25  N   UNL     1      -2.787  -2.571   0.015  0.00  0.00    -0.295 NA
ATOM     26  C   UNL     1      -3.235  -3.226  -0.989  0.00  0.00    +0.087 C 
BRANCH  25  27
ATOM     27  C   UNL     1      -1.413  -2.063   0.004  0.00  0.00    +0.141 C 
BRANCH  27  28
ATOM     28  C   UNL     1      -1.433  -0.534   0.013  0.00  0.00    +0.023 C 
BRANCH  28  30
ATOM     29  C   UNL     1      -0.019   1.526   0.010  0.00  0.00    +0.004 C 
ATOM     30  C   UNL     1       0.002  -0.004   0.002  0.00  0.00    -0.002 C 
ENDBRANCH  28  30
ENDBRANCH  27  28
ENDBRANCH  25  27
ENDBRANCH   1  26
BRANCH  14  31
ATOM     31  O   UNL     1      -2.936  -7.896   0.964  0.00  0.00    -0.388 OA
ATOM     32  H   UNL     1      -3.241  -7.689   1.858  0.00  0.00    +0.210 HD
ENDBRANCH  14  31
BRANCH   6  33
ATOM     33  O   UNL     1      -6.665  -3.855   0.349  0.00  0.00    -0.388 OA
ATOM     34  H   UNL     1      -7.156  -3.645   1.156  0.00  0.00    +0.210 HD
ENDBRANCH   6  33
BRANCH   4  35
ATOM     35  O   UNL     1      -7.460  -1.723  -0.690  0.00  0.00    -0.392 OA
ATOM     36  H   UNL     1      -8.011  -1.381  -1.407  0.00  0.00    +0.210 HD
ENDBRANCH   4  35
TORSDOF 8
