REMARK  Name = ZINC58990470
REMARK  10 active torsions:
REMARK  status: ('A' for Active; 'I' for Inactive)
REMARK    1  A    between atoms: C_1  and  C_2
REMARK    2  A    between atoms: C_5  and  C_8
REMARK    3  A    between atoms: N_9  and  N_10
REMARK    4  A    between atoms: C_11  and  C_13
REMARK    5  A    between atoms: C_13  and  C_14
REMARK    6  A    between atoms: C_14  and  C_15
REMARK    7  A    between atoms: C_15  and  S_16
REMARK    8  A    between atoms: S_16  and  C_17
REMARK    9  A    between atoms: C_20  and  C_23
REMARK   10  A    between atoms: N_21  and  N_22
REMARK                            x       y       z     vdW  Elec       q    Type
REMARK                         _______ _______ _______ _____ _____    ______ ____
ROOT
ATOM      1  C   UNL     1       0.211 -10.542   3.668  0.00  0.00    +0.078 C 
ENDROOT
BRANCH   1   2
ATOM      2  C   UNL     1       0.285  -9.014   3.668  0.00  0.00    +0.020 C 
BRANCH   2   3
ATOM      3  C   UNL     1       0.139  -8.496   2.235  0.00  0.00    +0.098 C 
BRANCH   3   5
ATOM      4  N   UNL     1       0.107  -6.311   1.076  0.00  0.00    -0.207 N 
ATOM      5  C   UNL     1       0.212  -6.991   2.235  0.00  0.00    +0.232 C 
ATOM      6  O   UNL     1       0.366  -6.391   3.278  0.00  0.00    -0.274 OA
ATOM      7  H   UNL     1      -0.016  -6.791   0.242  0.00  0.00    +0.177 HD
BRANCH   4   9
ATOM      8  C   UNL     1       0.073  -4.258  -0.040  0.00  0.00    +0.138 C 
ATOM      9  N   UNL     1       0.175  -4.912   1.076  0.00  0.00    -0.188 NA
BRANCH   8  14
ATOM     10  C   UNL     1       0.350   1.487  -0.040  0.00  0.00    +0.044 C 
ATOM     11  C   UNL     1       0.278  -0.018  -0.040  0.00  0.00    -0.050 A 
ATOM     12  C   UNL     1       0.103  -0.699  -1.232  0.00  0.00    +0.004 A 
ATOM     13  C   UNL     1       0.035  -2.077  -1.239  0.00  0.00    +0.010 A 
ATOM     14  C   UNL     1       0.144  -2.784  -0.040  0.00  0.00    -0.005 A 
ATOM     15  C   UNL     1       0.321  -2.090   1.159  0.00  0.00    +0.010 A 
ATOM     16  C   UNL     1       0.392  -0.713   1.151  0.00  0.00    +0.004 A 
ENDBRANCH   8  14
ENDBRANCH   4   9
ENDBRANCH   3   5
ENDBRANCH   2   3
ENDBRANCH   1   2
BRANCH   1  17
ATOM     17  S   UNL     1       0.384 -11.155   5.366  0.00  0.00    -0.084 S 
BRANCH  17  18
ATOM     18  C   UNL     1       0.279 -12.906   5.200  0.00  0.00    +0.209 A 
ATOM     19  N   UNL     1       0.119 -13.575   4.079  0.00  0.00    -0.121 NA
ATOM     20  N   UNL     1       0.084 -14.837   4.319  0.00  0.00    -0.127 NA
ATOM     21  C   UNL     1       0.220 -15.052   5.607  0.00  0.00    +0.183 A 
ATOM     22  N   UNL     1       0.356 -13.822   6.210  0.00  0.00    -0.224 N 
BRANCH  21  23
ATOM     23  C   UNL     1       0.232 -16.367   6.282  0.00  0.00    +0.035 A 
ATOM     24  C   UNL     1      -0.547 -16.578   7.421  0.00  0.00    +0.013 A 
ATOM     25  C   UNL     1      -0.531 -17.808   8.045  0.00  0.00    +0.001 A 
ATOM     26  C   UNL     1       0.254 -18.832   7.546  0.00  0.00    +0.001 A 
ATOM     27  C   UNL     1       1.029 -18.630   6.418  0.00  0.00    +0.016 A 
ATOM     28  C   UNL     1       1.019 -17.406   5.779  0.00  0.00    +0.029 A 
ATOM     29 BR   UNL     1       2.072 -17.134   4.233  0.00  0.00    -0.050 Br
ENDBRANCH  21  23
BRANCH  22  30
ATOM     30  N   UNL     1       0.527 -13.570   7.541  0.00  0.00    -0.295 N 
ATOM     31  H   UNL     1      -0.360 -13.542   8.021  0.00  0.00    +0.163 HD
ATOM     32  H   UNL     1       1.144 -14.249   7.961  0.00  0.00    +0.163 HD
ENDBRANCH  22  30
ENDBRANCH  17  18
ENDBRANCH   1  17
TORSDOF 9
