REMARK  Name = ZINC09344917
REMARK  8 active torsions:
REMARK  status: ('A' for Active; 'I' for Inactive)
REMARK    1  A    between atoms: C_4  and  C_7
REMARK    2  A    between atoms: C_7  and  C_8
REMARK    3  A    between atoms: C_7  and  C_33
REMARK    4  A    between atoms: C_8  and  C_9
REMARK    5  A    between atoms: N_11  and  C_12
REMARK    6  A    between atoms: C_20  and  C_21
REMARK    7  A    between atoms: N_23  and  C_24
REMARK    8  A    between atoms: C_27  and  N_30
REMARK                            x       y       z     vdW  Elec       q    Type
REMARK                         _______ _______ _______ _____ _____    ______ ____
ROOT
ATOM      1  C   UNL     1      -0.957  -0.804  -0.684  0.00  0.00    +0.092 A 
ATOM      2  C   UNL     1      -0.473   0.522  -1.085  0.00  0.00    +0.042 A 
ATOM      3  C   UNL     1       0.751   1.011  -1.542  0.00  0.00    +0.013 A 
ATOM      4  C   UNL     1       0.882   2.339  -1.839  0.00  0.00    +0.001 A 
ATOM      5  C   UNL     1      -0.194   3.202  -1.690  0.00  0.00    +0.004 A 
ATOM      6  C   UNL     1      -1.411   2.738  -1.239  0.00  0.00    +0.047 A 
ATOM      7  C   UNL     1      -1.567   1.391  -0.931  0.00  0.00    +0.138 A 
ATOM      8  O   UNL     1      -2.612   0.664  -0.487  0.00  0.00    -0.448 OA
ATOM      9  C   UNL     1      -2.267  -0.633  -0.330  0.00  0.00    +0.212 A 
ENDROOT
BRANCH   1  12
ATOM     10  C   UNL     1       1.107  -1.960  -0.521  0.00  0.00    +0.218 C 
ATOM     11  O   UNL     1       1.673  -0.903  -0.337  0.00  0.00    -0.275 OA
ATOM     12  N   UNL     1      -0.232  -1.990  -0.666  0.00  0.00    -0.282 N 
ATOM     13  H   UNL     1      -0.691  -2.840  -0.759  0.00  0.00    +0.155 HD
BRANCH  10  14
ATOM     14  C   UNL     1       1.902  -3.239  -0.586  0.00  0.00    +0.109 C 
BRANCH  14  15
ATOM     15  C   UNL     1       3.387  -2.927  -0.391  0.00  0.00    +0.058 C 
BRANCH  15  19
ATOM     16  C   UNL     1       4.019  -1.403   3.549  0.00  0.00    +0.000 A 
ATOM     17  C   UNL     1       3.350  -2.599   3.369  0.00  0.00    +0.000 A 
ATOM     18  C   UNL     1       3.145  -3.092   2.094  0.00  0.00    +0.004 A 
ATOM     19  C   UNL     1       3.610  -2.389   0.999  0.00  0.00    -0.040 A 
ATOM     20  C   UNL     1       4.284  -1.196   1.178  0.00  0.00    +0.004 A 
ATOM     21  C   UNL     1       4.484  -0.700   2.453  0.00  0.00    +0.000 A 
ENDBRANCH  15  19
BRANCH  15  22
ATOM     22  C   UNL     1       4.193  -4.186  -0.578  0.00  0.00    -0.040 A 
ATOM     23  C   UNL     1       3.897  -5.313   0.166  0.00  0.00    +0.004 A 
ATOM     24  C   UNL     1       4.634  -6.470  -0.009  0.00  0.00    +0.000 A 
ATOM     25  C   UNL     1       5.673  -6.496  -0.920  0.00  0.00    +0.000 A 
ATOM     26  C   UNL     1       5.972  -5.368  -1.660  0.00  0.00    +0.000 A 
ATOM     27  C   UNL     1       5.232  -4.213  -1.489  0.00  0.00    +0.004 A 
ENDBRANCH  15  22
ENDBRANCH  14  15
ENDBRANCH  10  14
ENDBRANCH   1  12
BRANCH   9  28
ATOM     28  C   UNL     1      -3.159  -1.692   0.140  0.00  0.00    +0.285 C 
ATOM     29  O   UNL     1      -2.722  -2.811   0.342  0.00  0.00    -0.266 OA
ATOM     30  N   UNL     1      -4.464  -1.430   0.349  0.00  0.00    -0.279 N 
ATOM     31  H   UNL     1      -4.800  -0.526   0.244  0.00  0.00    +0.155 HD
BRANCH  30  32
ATOM     32  C   UNL     1      -5.333  -2.460   0.723  0.00  0.00    +0.034 A 
ATOM     33  C   UNL     1      -6.638  -2.478   0.247  0.00  0.00    +0.025 A 
ATOM     34  C   UNL     1      -7.491  -3.499   0.615  0.00  0.00    +0.034 A 
ATOM     35  C   UNL     1      -7.052  -4.497   1.464  0.00  0.00    +0.126 A 
ATOM     36  C   UNL     1      -5.755  -4.480   1.944  0.00  0.00    +0.034 A 
ATOM     37  C   UNL     1      -4.894  -3.465   1.576  0.00  0.00    +0.025 A 
BRANCH  35  38
ATOM     38  N   UNL     1      -7.972  -5.587   1.861  0.00  0.00    +0.056 N 
ATOM     39  O   UNL     1      -7.586  -6.468   2.609  0.00  0.00    -0.126 OA
ATOM     40  O   UNL     1      -9.114  -5.604   1.440  0.00  0.00    -0.126 OA
ENDBRANCH  35  38
ENDBRANCH  30  32
ENDBRANCH   9  28
TORSDOF 8
