REMARK  Name = ZINC63407883
REMARK  6 active torsions:
REMARK  status: ('A' for Active; 'I' for Inactive)
REMARK    1  A    between atoms: C_4  and  C_6
REMARK    2  A    between atoms: C_6  and  N_7
REMARK    3  A    between atoms: C_10  and  N_13
REMARK    4  A    between atoms: N_19  and  C_22
REMARK    5  A    between atoms: C_22  and  C_23
REMARK    6  A    between atoms: N_25  and  C_26
REMARK                            x       y       z     vdW  Elec       q    Type
REMARK                         _______ _______ _______ _____ _____    ______ ____
ROOT
ATOM      1  N   UNL     1      -1.613  -6.138  -1.296  0.00  0.00    -0.297 N 
ATOM      2  C   UNL     1      -2.159  -7.002  -2.174  0.00  0.00    +0.302 C 
ATOM      3  O   UNL     1      -2.238  -6.705  -3.350  0.00  0.00    -0.253 OA
ATOM      4  N   UNL     1      -2.619  -8.195  -1.748  0.00  0.00    -0.283 N 
ATOM      5  C   UNL     1      -3.307  -9.112  -2.670  0.00  0.00    +0.124 C 
ATOM      6  C   UNL     1      -2.650 -10.492  -2.564  0.00  0.00    +0.104 C 
ATOM      7  N   UNL     1      -2.637 -10.919  -1.159  0.00  0.00    -0.291 NA
ATOM      8  C   UNL     1      -1.822 -10.015  -0.335  0.00  0.00    +0.104 C 
ATOM      9  C   UNL     1      -2.440  -8.618  -0.351  0.00  0.00    +0.124 C 
ATOM     10  H   UNL     1      -1.484  -6.402  -0.371  0.00  0.00    +0.151 HD
ENDROOT
BRANCH   1  14
ATOM     11  N   UNL     1       0.637  -2.581  -1.520  0.00  0.00    +0.380 N 
ATOM     12  C   UNL     1      -0.728  -2.466  -0.993  0.00  0.00    -0.077 C 
ATOM     13  C   UNL     1      -1.222  -3.842  -0.542  0.00  0.00    +0.004 C 
ATOM     14  C   UNL     1      -1.213  -4.799  -1.737  0.00  0.00    +0.071 C 
ATOM     15  C   UNL     1       0.200  -4.854  -2.324  0.00  0.00    +0.004 C 
ATOM     16  C   UNL     1       0.642  -3.441  -2.709  0.00  0.00    -0.077 C 
ATOM     17  H   UNL     1       1.235  -2.983  -0.813  0.00  0.00    -0.082 HD
BRANCH  11  18
ATOM     18  C   UNL     1       1.135  -1.247  -1.879  0.00  0.00    -0.075 C 
BRANCH  18  22
ATOM     19  C   UNL     1       3.137   1.179  -0.233  0.00  0.00    +0.000 C 
ATOM     20  C   UNL     1       3.041   0.193   0.957  0.00  0.00    +0.000 C 
ATOM     21  C   UNL     1       2.311  -1.024   0.336  0.00  0.00    +0.002 C 
ATOM     22  C   UNL     1       1.272  -0.395  -0.615  0.00  0.00    -0.028 C 
ATOM     23  C   UNL     1       1.797   1.005  -0.977  0.00  0.00    +0.002 C 
ENDBRANCH  18  22
ENDBRANCH  11  18
ENDBRANCH   1  14
BRANCH   7  24
ATOM     24  C   UNL     1      -2.173 -12.307  -1.034  0.00  0.00    +0.180 C 
BRANCH  24  25
ATOM     25  C   UNL     1      -2.403 -12.789   0.375  0.00  0.00    +0.227 C 
ATOM     26  O   UNL     1      -2.904 -12.049   1.195  0.00  0.00    -0.274 OA
ATOM     27  N   UNL     1      -2.052 -14.042   0.724  0.00  0.00    -0.311 N 
ATOM     28  H   UNL     1      -1.651 -14.634   0.069  0.00  0.00    +0.149 HD
BRANCH  27  29
ATOM     29  C   UNL     1      -2.276 -14.511   2.094  0.00  0.00    +0.073 C 
ATOM     30  C   UNL     1      -1.151 -15.304   2.762  0.00  0.00    +0.024 C 
ATOM     31  C   UNL     1      -2.426 -16.018   2.309  0.00  0.00    +0.024 C 
ENDBRANCH  27  29
ENDBRANCH  24  25
ENDBRANCH   7  24
TORSDOF 6
