REMARK  Name = ZINC31167951
REMARK  16 active torsions:
REMARK  status: ('A' for Active; 'I' for Inactive)
REMARK    1  A    between atoms: C_1  and  C_2
REMARK    2  A    between atoms: C_2  and  C_39
REMARK    3  A    between atoms: C_3  and  C_4
REMARK    4  A    between atoms: C_4  and  C_5
REMARK    5  A    between atoms: C_6  and  C_20
REMARK    6  A    between atoms: C_8  and  O_19
REMARK    7  A    between atoms: C_12  and  O_18
REMARK    8  A    between atoms: C_14  and  C_16
REMARK    9  A    between atoms: C_14  and  C_17
REMARK   10  A    between atoms: C_21  and  O_38
REMARK   11  A    between atoms: C_25  and  O_37
REMARK   12  A    between atoms: C_27  and  O_36
REMARK   13  A    between atoms: C_28  and  C_31
REMARK   14  A    between atoms: C_31  and  C_32
REMARK   15  A    between atoms: C_31  and  C_33
REMARK   16  A    between atoms: C_31  and  C_34
REMARK                            x       y       z     vdW  Elec       q    Type
REMARK                         _______ _______ _______ _____ _____    ______ ____
ROOT
ATOM      1  C   UNL     1       2.215  -0.379   4.341  0.00  0.00    +0.181 A 
ATOM      2  C   UNL     1       1.567  -1.381   5.000  0.00  0.00    +0.208 A 
ATOM      3  C   UNL     1       0.887  -2.380   4.257  0.00  0.00    +0.238 A 
ATOM      4  O   UNL     1       0.296  -3.292   4.813  0.00  0.00    -0.283 OA
ATOM      5  C   UNL     1       0.923  -2.274   2.790  0.00  0.00    +0.109 A 
ATOM      6  C   UNL     1       0.279  -3.216   1.977  0.00  0.00    +0.135 A 
ATOM      7  C   UNL     1       0.335  -3.082   0.603  0.00  0.00    +0.092 A 
ATOM      8  C   UNL     1       1.022  -2.016   0.032  0.00  0.00    +0.128 A 
ATOM      9  C   UNL     1       1.666  -1.083   0.829  0.00  0.00    +0.046 A 
ATOM     10  C   UNL     1       1.621  -1.200   2.210  0.00  0.00    +0.151 A 
ATOM     11  O   UNL     1       2.239  -0.297   3.000  0.00  0.00    -0.450 OA
ENDROOT
BRANCH   1  13
ATOM     12  C   UNL     1       2.600   2.001   4.957  0.00  0.00    -0.026 A 
ATOM     13  C   UNL     1       2.916   0.652   5.129  0.00  0.00    +0.028 A 
ATOM     14  C   UNL     1       3.904   0.283   6.046  0.00  0.00    +0.061 A 
ATOM     15  C   UNL     1       4.556   1.256   6.777  0.00  0.00    +0.159 A 
ATOM     16  C   UNL     1       4.231   2.604   6.606  0.00  0.00    +0.166 A 
ATOM     17  C   UNL     1       3.250   2.969   5.698  0.00  0.00    +0.005 A 
ATOM     18  C   UNL     1       2.870   4.413   5.491  0.00  0.00    +0.074 C 
ATOM     19  C   UNL     1       3.972   5.321   6.042  0.00  0.00    +0.162 C 
ATOM     20  C   UNL     1       4.337   4.835   7.451  0.00  0.00    +0.131 C 
ATOM     21  O   UNL     1       4.902   3.528   7.343  0.00  0.00    -0.480 OA
ATOM     22  C   UNL     1       3.079   4.783   8.320  0.00  0.00    +0.058 C 
ATOM     23  C   UNL     1       5.358   5.787   8.077  0.00  0.00    +0.058 C 
BRANCH  19  24
ATOM     24  O   UNL     1       5.122   5.252   5.196  0.00  0.00    -0.388 OA
ATOM     25  H   UNL     1       6.018   5.842   5.436  0.00  0.00    +0.210 HD
ENDBRANCH  19  24
BRANCH  15  26
ATOM     26  O   UNL     1       5.519   0.900   7.669  0.00  0.00    -0.503 OA
ATOM     27  H   UNL     1       6.040   1.672   8.254  0.00  0.00    +0.292 HD
ENDBRANCH  15  26
BRANCH  12  28
ATOM     28  C   UNL     1       1.540   2.402   3.964  0.00  0.00    +0.063 C 
BRANCH  28  31
ATOM     29  C   UNL     1      -0.195   4.621   3.932  0.00  0.00    +0.038 C 
ATOM     30  C   UNL     1      -0.624   3.339   4.596  0.00  0.00    -0.079 C 
ATOM     31  C   UNL     1       0.183   2.307   4.611  0.00  0.00    -0.023 C 
ATOM     32  C   UNL     1      -1.982   3.243   5.244  0.00  0.00    +0.038 C 
ENDBRANCH  28  31
ENDBRANCH  12  28
ENDBRANCH   1  13
BRANCH   9  33
ATOM     33  C   UNL     1       2.411   0.063   0.195  0.00  0.00    +0.015 C 
ATOM     34  C   UNL     1       1.474   1.264   0.053  0.00  0.00    +0.020 C 
ATOM     35  C   UNL     1       3.602   0.447   1.075  0.00  0.00    +0.020 C 
BRANCH  33  36
ATOM     36  C   UNL     1       2.906  -0.351  -1.167  0.00  0.00    -0.023 C 
ATOM     37  C   UNL     1       2.594   0.360  -2.222  0.00  0.00    +0.005 C 
ENDBRANCH  33  36
ENDBRANCH   9  33
BRANCH   8  38
ATOM     38  O   UNL     1       1.066  -1.890  -1.319  0.00  0.00    -0.506 OA
ATOM     39  H   UNL     1       1.609  -1.049  -1.776  0.00  0.00    +0.292 HD
ENDBRANCH   8  38
BRANCH   6  40
ATOM     40  O   UNL     1      -0.396  -4.253   2.536  0.00  0.00    -0.506 OA
ATOM     41  H   UNL     1      -0.900  -4.991   1.894  0.00  0.00    +0.292 HD
ENDBRANCH   6  40
BRANCH   2  42
ATOM     42  O   UNL     1       1.571  -1.421   6.361  0.00  0.00    -0.501 OA
ATOM     43  H   UNL     1       1.047  -2.232   6.888  0.00  0.00    +0.292 HD
ENDBRANCH   2  42
TORSDOF 10
