REMARK  Name = ZINC56771224
REMARK  11 active torsions:
REMARK  status: ('A' for Active; 'I' for Inactive)
REMARK    1  A    between atoms: C_1  and  C_2
REMARK    2  A    between atoms: C_2  and  C_4
REMARK    3  A    between atoms: C_2  and  N_12
REMARK    4  A    between atoms: C_4  and  C_5
REMARK    5  A    between atoms: C_8  and  O_11
REMARK    6  A    between atoms: C_19  and  N_22
REMARK    7  A    between atoms: C_23  and  O_25
REMARK    8  A    between atoms: O_25  and  C_26
REMARK    9  A    between atoms: C_26  and  C_27
REMARK   10  A    between atoms: C_26  and  C_28
REMARK   11  A    between atoms: C_26  and  C_29
REMARK                            x       y       z     vdW  Elec       q    Type
REMARK                         _______ _______ _______ _____ _____    ______ ____
ROOT
ATOM      1  N   UNL     1      -1.306  -0.306  -2.405  0.00  0.00    -0.296 N 
ATOM      2  C   UNL     1       0.006  -0.608  -2.358  0.00  0.00    +0.302 C 
ATOM      3  O   UNL     1       0.642  -0.403  -1.343  0.00  0.00    -0.253 OA
ATOM      4  N   UNL     1       0.614  -1.138  -3.439  0.00  0.00    -0.284 N 
ATOM      5  C   UNL     1       2.014  -1.580  -3.368  0.00  0.00    +0.109 C 
ATOM      6  C   UNL     1       2.096  -3.033  -3.847  0.00  0.00    +0.021 C 
ATOM      7  C   UNL     1       1.471  -3.143  -5.240  0.00  0.00    +0.025 C 
ATOM      8  C   UNL     1      -0.004  -2.740  -5.172  0.00  0.00    +0.094 C 
ATOM      9  C   UNL     1      -0.112  -1.289  -4.707  0.00  0.00    +0.131 C 
ATOM     10  H   UNL     1      -1.797  -0.400  -3.236  0.00  0.00    +0.151 HD
ENDROOT
BRANCH   8  11
ATOM     11  N   UNL     1      -0.609  -2.877  -6.499  0.00  0.00    -0.277 N 
ATOM     12  C   UNL     1      -1.937  -3.075  -6.617  0.00  0.00    +0.401 C 
ATOM     13  O   UNL     1      -2.632  -3.141  -5.623  0.00  0.00    -0.226 OA
ATOM     14  H   UNL     1      -0.054  -2.824  -7.293  0.00  0.00    +0.152 HD
BRANCH  12  15
ATOM     15  O   UNL     1      -2.493  -3.201  -7.837  0.00  0.00    -0.445 OA
BRANCH  15  16
ATOM     16  C   UNL     1      -3.906  -3.409  -7.887  0.00  0.00    +0.107 C 
ATOM     17  C   UNL     1      -4.620  -2.227  -7.229  0.00  0.00    +0.055 C 
ATOM     18  C   UNL     1      -4.352  -3.528  -9.346  0.00  0.00    +0.055 C 
ATOM     19  C   UNL     1      -4.258  -4.697  -7.140  0.00  0.00    +0.055 C 
ENDBRANCH  15  16
ENDBRANCH  12  15
ENDBRANCH   8  11
BRANCH   1  21
ATOM     20  C   UNL     1      -2.449  -1.037  -0.369  0.00  0.00    +0.028 C 
ATOM     21  C   UNL     1      -1.992   0.165  -1.199  0.00  0.00    +0.076 C 
BRANCH  21  22
ATOM     22  C   UNL     1      -3.210   1.001  -1.598  0.00  0.00    +0.057 C 
BRANCH  22  23
ATOM     23  C   UNL     1      -2.752   2.248  -2.309  0.00  0.00    -0.045 A 
ATOM     24  C   UNL     1      -2.485   3.396  -1.586  0.00  0.00    +0.007 A 
ATOM     25  C   UNL     1      -2.065   4.540  -2.235  0.00  0.00    +0.045 A 
ATOM     26  C   UNL     1      -1.912   4.538  -3.614  0.00  0.00    +0.117 A 
ATOM     27  C   UNL     1      -2.181   3.385  -4.338  0.00  0.00    +0.045 A 
ATOM     28  C   UNL     1      -2.595   2.241  -3.683  0.00  0.00    +0.007 A 
BRANCH  26  29
ATOM     29  O   UNL     1      -1.500   5.663  -4.255  0.00  0.00    -0.507 OA
ATOM     30  H   UNL     1      -0.540   5.734  -4.347  0.00  0.00    +0.292 HD
ENDBRANCH  26  29
ENDBRANCH  22  23
ENDBRANCH  21  22
ENDBRANCH   1  21
TORSDOF 7
