REMARK  Name = ZINC08443638
REMARK  9 active torsions:
REMARK  status: ('A' for Active; 'I' for Inactive)
REMARK    1  A    between atoms: C_1  and  C_2
REMARK    2  A    between atoms: C_2  and  C_3
REMARK    3  A    between atoms: C_2  and  C_4
REMARK    4  A    between atoms: C_2  and  C_5
REMARK    5  A    between atoms: C_12  and  N_16
REMARK    6  A    between atoms: C_13  and  C_14
REMARK    7  A    between atoms: C_17  and  C_19
REMARK    8  A    between atoms: C_24  and  C_36
REMARK    9  A    between atoms: C_27  and  C_30
REMARK                            x       y       z     vdW  Elec       q    Type
REMARK                         _______ _______ _______ _____ _____    ______ ____
ROOT
ATOM      1  C   UNL     1       7.852  -1.212  -5.998  0.00  0.00    +0.149 A 
ATOM      2  C   UNL     1       9.012  -0.418  -6.146  0.00  0.00    +0.078 A 
ATOM      3  C   UNL     1       9.777  -0.988  -7.097  0.00  0.00    +0.119 A 
ATOM      4  N   UNL     1       9.134  -2.107  -7.547  0.00  0.00    -0.238 N 
ATOM      5  N   UNL     1       7.938  -2.227  -6.841  0.00  0.00    -0.164 NA
ATOM      6  C   UNL     1       9.667  -2.985  -8.592  0.00  0.00    +0.215 C 
ATOM      7  C   UNL     1      10.730  -2.221  -9.389  0.00  0.00    +0.063 C 
ATOM      8  C   UNL     1      11.734  -1.571  -8.430  0.00  0.00    +0.104 C 
ATOM      9  N   UNL     1      11.018  -0.584  -7.599  0.00  0.00    -0.322 N 
ATOM     10  H   UNL     1      11.386   0.293  -7.411  0.00  0.00    +0.148 HD
ENDROOT
BRANCH   8  11
ATOM     11  C   UNL     1      12.350  -2.628  -7.550  0.00  0.00    -0.027 A 
ATOM     12  C   UNL     1      11.657  -3.104  -6.452  0.00  0.00    +0.005 A 
ATOM     13  C   UNL     1      12.222  -4.073  -5.645  0.00  0.00    +0.000 A 
ATOM     14  C   UNL     1      13.480  -4.567  -5.935  0.00  0.00    +0.000 A 
ATOM     15  C   UNL     1      14.173  -4.092  -7.033  0.00  0.00    +0.000 A 
ATOM     16  C   UNL     1      13.606  -3.126  -7.843  0.00  0.00    +0.005 A 
ENDBRANCH   8  11
BRANCH   1  18
ATOM     17  N   UNL     1       5.689  -1.799  -5.016  0.00  0.00    -0.274 N 
ATOM     18  C   UNL     1       6.740  -0.956  -5.061  0.00  0.00    +0.269 C 
ATOM     19  O   UNL     1       6.772   0.015  -4.331  0.00  0.00    -0.268 OA
ATOM     20  H   UNL     1       5.664  -2.574  -5.598  0.00  0.00    +0.156 HD
BRANCH  17  27
ATOM     21  C   UNL     1       0.718  -0.497  -1.257  0.00  0.00    -0.000 C 
ATOM     22  C   UNL     1       0.745  -2.029  -1.264  0.00  0.00    +0.009 C 
ATOM     23  C   UNL     1       1.234  -2.534  -2.624  0.00  0.00    +0.037 C 
ATOM     24  C   UNL     1       2.546  -1.841  -2.959  0.00  0.00    -0.018 A 
ATOM     25  C   UNL     1       2.920  -0.705  -2.331  0.00  0.00    -0.004 A 
ATOM     26  S   UNL     1       4.484  -0.290  -3.047  0.00  0.00    -0.077 S 
ATOM     27  C   UNL     1       4.645  -1.559  -4.135  0.00  0.00    +0.090 A 
ATOM     28  C   UNL     1       3.495  -2.310  -3.953  0.00  0.00    +0.084 A 
ATOM     29  C   UNL     1       2.161   0.028  -1.267  0.00  0.00    +0.047 C 
BRANCH  21  31
ATOM     30  C   UNL     1      -0.019   1.526   0.010  0.00  0.00    +0.011 C 
ATOM     31  C   UNL     1       0.002  -0.004   0.002  0.00  0.00    -0.035 C 
ATOM     32  C   UNL     1       0.742  -0.511   1.242  0.00  0.00    +0.011 C 
ATOM     33  C   UNL     1      -1.433  -0.534   0.013  0.00  0.00    +0.011 C 
ENDBRANCH  21  31
BRANCH  28  34
ATOM     34  C   UNL     1       3.253  -3.499  -4.712  0.00  0.00    +0.102 C 
ATOM     35  N   UNL     1       3.060  -4.443  -5.315  0.00  0.00    -0.191 NA
ENDBRANCH  28  34
ENDBRANCH  17  27
ENDBRANCH   1  18
BRANCH   6  36
ATOM     36  C   UNL     1       8.534  -3.416  -9.526  0.00  0.00    +0.412 C 
ATOM     37  F   UNL     1       7.962  -2.284 -10.117  0.00  0.00    -0.168 F 
ATOM     38  F   UNL     1       9.045  -4.255 -10.523  0.00  0.00    -0.168 F 
ATOM     39  F   UNL     1       7.560  -4.102  -8.793  0.00  0.00    -0.168 F 
ENDBRANCH   6  36
TORSDOF 6
