REMARK  Name = ZINC00341032
REMARK  5 active torsions:
REMARK  status: ('A' for Active; 'I' for Inactive)
REMARK    1  A    between atoms: C_1  and  C_2
REMARK    2  A    between atoms: C_2  and  C_22
REMARK    3  A    between atoms: C_6  and  C_10
REMARK    4  A    between atoms: C_10  and  O_21
REMARK    5  A    between atoms: N_17  and  C_20
REMARK                            x       y       z     vdW  Elec       q    Type
REMARK                         _______ _______ _______ _____ _____    ______ ____
ROOT
ATOM      1  C   UNL     1       4.249   0.261   0.203  0.00  0.00    +0.180 C 
ATOM      2  C   UNL     1       5.193  -0.341  -0.812  0.00  0.00    +0.015 A 
ATOM      3  C   UNL     1       5.151  -0.446  -2.184  0.00  0.00    +0.009 A 
ATOM      4  C   UNL     1       6.186  -1.065  -2.861  0.00  0.00    +0.000 A 
ATOM      5  C   UNL     1       7.261  -1.577  -2.156  0.00  0.00    +0.002 A 
ATOM      6  C   UNL     1       7.306  -1.473  -0.781  0.00  0.00    +0.024 A 
ATOM      7  C   UNL     1       6.267  -0.851  -0.092  0.00  0.00    +0.042 A 
ATOM      8  N   UNL     1       6.084  -0.625   1.272  0.00  0.00    -0.271 N 
ATOM      9  C   UNL     1       4.932   0.018   1.532  0.00  0.00    +0.257 C 
ATOM     10  O   UNL     1       4.519   0.342   2.625  0.00  0.00    -0.272 OA
ATOM     11  C   UNL     1       7.037  -1.041   2.304  0.00  0.00    +0.138 C 
ENDROOT
BRANCH   1  17
ATOM     12  C   UNL     1       1.886  -2.299   2.980  0.00  0.00    +0.042 C 
ATOM     13  C   UNL     1       1.052  -2.116   1.711  0.00  0.00    +0.071 C 
ATOM     14  C   UNL     1       0.705  -0.632   1.536  0.00  0.00    +0.109 C 
ATOM     15  C   UNL     1       1.986   0.118   1.234  0.00  0.00    +0.145 C 
ATOM     16  O   UNL     1       2.274   1.129   1.827  0.00  0.00    -0.297 OA
ATOM     17  C   UNL     1       2.893  -0.448   0.160  0.00  0.00    +0.126 C 
ATOM     18  C   UNL     1       3.081  -1.945   0.435  0.00  0.00    +0.175 C 
ATOM     19  O   UNL     1       1.801  -2.562   0.579  0.00  0.00    -0.373 OA
ATOM     20  C   UNL     1      -0.237  -2.932   1.825  0.00  0.00    +0.042 C 
ENDBRANCH   1  17
BRANCH   1  21
ATOM     21  O   UNL     1       4.088   1.662  -0.028  0.00  0.00    -0.374 OA
ATOM     22  H   UNL     1       4.916   2.161  -0.012  0.00  0.00    +0.211 HD
ENDBRANCH   1  21
TORSDOF 2
