REMARK  Name = ZINC21248481
REMARK  12 active torsions:
REMARK  status: ('A' for Active; 'I' for Inactive)
REMARK    1  A    between atoms: C_1  and  C_2
REMARK    2  A    between atoms: C_2  and  O_3
REMARK    3  A    between atoms: O_3  and  C_4
REMARK    4  A    between atoms: C_7  and  C_10
REMARK    5  A    between atoms: C_15  and  C_25
REMARK    6  A    between atoms: C_28  and  O_34
REMARK    7  A    between atoms: C_29  and  O_31
REMARK    8  A    between atoms: O_31  and  C_32
REMARK    9  A    between atoms: C_32  and  C_33
REMARK   10  A    between atoms: O_34  and  C_35
REMARK   11  A    between atoms: C_35  and  C_36
REMARK   12  A    between atoms: C_35  and  C_37
REMARK                            x       y       z     vdW  Elec       q    Type
REMARK                         _______ _______ _______ _____ _____    ______ ____
ROOT
ATOM      1  C   UNL     1      -1.884   1.500  -0.911  0.00  0.00    +0.032 C 
ATOM      2  C   UNL     1      -3.353   1.180  -0.643  0.00  0.00    +0.059 C 
ATOM      3  C   UNL     1      -3.796   1.829   0.658  0.00  0.00    +0.017 C 
ATOM      4  C   UNL     1      -2.927   1.982   1.673  0.00  0.00    +0.036 C 
ATOM      5  C   UNL     1      -3.233   2.603   3.015  0.00  0.00    +0.136 C 
ATOM      6  N   UNL     1      -4.642   2.815   3.272  0.00  0.00    -0.331 N 
ATOM      7  C   UNL     1      -5.385   3.710   2.503  0.00  0.00    +0.049 A 
ATOM      8  C   UNL     1      -5.934   4.856   3.054  0.00  0.00    +0.025 A 
ATOM      9  C   UNL     1      -6.625   5.738   2.241  0.00  0.00    +0.002 A 
ATOM     10  C   UNL     1      -6.763   5.482   0.889  0.00  0.00    +0.002 A 
ATOM     11  C   UNL     1      -6.230   4.329   0.339  0.00  0.00    +0.025 A 
ATOM     12  C   UNL     1      -5.559   3.435   1.155  0.00  0.00    +0.052 A 
ATOM     13  N   UNL     1      -5.098   2.207   0.692  0.00  0.00    -0.316 N 
ATOM     14  C   UNL     1      -1.581   1.556   1.534  0.00  0.00    +0.163 C 
ATOM     15  O   UNL     1      -0.821   1.683   2.474  0.00  0.00    -0.292 OA
ATOM     16  C   UNL     1      -1.065   0.952   0.263  0.00  0.00    +0.088 C 
ATOM     17  H   UNL     1      -5.142   2.267   4.084  0.00  0.00    +0.147 HD
ATOM     18  H   UNL     1      -5.880   1.520   0.336  0.00  0.00    +0.152 HD
ENDROOT
BRANCH   1  22
ATOM     19  C   UNL     1      -0.633  -0.364  -4.547  0.00  0.00    +0.121 A 
ATOM     20  C   UNL     1      -0.535   1.012  -4.403  0.00  0.00    +0.046 A 
ATOM     21  C   UNL     1      -0.940   1.612  -3.226  0.00  0.00    +0.007 A 
ATOM     22  C   UNL     1      -1.443   0.843  -2.193  0.00  0.00    -0.043 A 
ATOM     23  C   UNL     1      -1.537  -0.530  -2.333  0.00  0.00    +0.007 A 
ATOM     24  C   UNL     1      -1.138  -1.134  -3.509  0.00  0.00    +0.046 A 
BRANCH  19  25
ATOM     25  O   UNL     1      -0.236  -0.958  -5.704  0.00  0.00    -0.492 OA
BRANCH  25  27
ATOM     26  C   UNL     1       0.128  -2.861  -7.147  0.00  0.00    +0.048 C 
ATOM     27  C   UNL     1      -0.366  -2.378  -5.782  0.00  0.00    +0.225 C 
ENDBRANCH  25  27
ENDBRANCH  19  25
ENDBRANCH   1  22
BRANCH   5  28
ATOM     28  C   UNL     1      -2.527   3.932   3.098  0.00  0.00    -0.019 A 
ATOM     29  C   UNL     1      -2.885   4.958   2.244  0.00  0.00    +0.009 A 
ATOM     30  C   UNL     1      -2.244   6.180   2.321  0.00  0.00    +0.050 A 
ATOM     31  C   UNL     1      -1.232   6.375   3.248  0.00  0.00    +0.162 A 
ATOM     32  C   UNL     1      -0.868   5.340   4.103  0.00  0.00    +0.162 A 
ATOM     33  C   UNL     1      -1.519   4.119   4.025  0.00  0.00    +0.055 A 
BRANCH  32  34
ATOM     34  O   UNL     1       0.124   5.527   5.015  0.00  0.00    -0.489 OA
BRANCH  34  35
ATOM     35  C   UNL     1       0.444   4.420   5.861  0.00  0.00    +0.226 C 
ATOM     36  C   UNL     1       1.575   4.817   6.812  0.00  0.00    +0.048 C 
ENDBRANCH  34  35
ENDBRANCH  32  34
BRANCH  31  37
ATOM     37  O   UNL     1      -0.597   7.576   3.321  0.00  0.00    -0.486 OA
BRANCH  37  38
ATOM     38  C   UNL     1      -0.947   8.555   2.341  0.00  0.00    +0.167 C 
ATOM     39  C   UNL     1      -2.174   9.336   2.816  0.00  0.00    +0.051 C 
ATOM     40  C   UNL     1       0.225   9.519   2.143  0.00  0.00    +0.051 C 
ENDBRANCH  37  38
ENDBRANCH  31  37
ENDBRANCH   5  28
TORSDOF 8
