REMARK  Name = ZINC02366391
REMARK  8 active torsions:
REMARK  status: ('A' for Active; 'I' for Inactive)
REMARK    1  A    between atoms: C_1  and  C_2
REMARK    2  A    between atoms: C_4  and  C_26
REMARK    3  A    between atoms: C_6  and  N_8
REMARK    4  A    between atoms: C_9  and  C_11
REMARK    5  A    between atoms: C_11  and  S_12
REMARK    6  A    between atoms: S_12  and  C_13
REMARK    7  A    between atoms: C_16  and  C_19
REMARK    8  A    between atoms: N_17  and  N_18
REMARK                            x       y       z     vdW  Elec       q    Type
REMARK                         _______ _______ _______ _____ _____    ______ ____
ROOT
ATOM      1  C   UNL     1       0.478   0.796  -2.642  0.00  0.00    +0.209 A 
ATOM      2  N   UNL     1       1.541   0.074  -2.366  0.00  0.00    -0.121 NA
ATOM      3  N   UNL     1       2.108  -0.309  -3.454  0.00  0.00    -0.127 NA
ATOM      4  C   UNL     1       1.448   0.152  -4.490  0.00  0.00    +0.184 A 
ATOM      5  N   UNL     1       0.383   0.874  -4.002  0.00  0.00    -0.224 N 
ENDROOT
BRANCH   4   6
ATOM      6  C   UNL     1       1.784  -0.064  -5.913  0.00  0.00    +0.056 A 
ATOM      7  C   UNL     1       1.832   1.017  -6.794  0.00  0.00    +0.014 A 
ATOM      8  C   UNL     1       2.147   0.809  -8.121  0.00  0.00    +0.001 A 
ATOM      9  C   UNL     1       2.416  -0.468  -8.581  0.00  0.00    +0.003 A 
ATOM     10  C   UNL     1       2.370  -1.546  -7.715  0.00  0.00    +0.039 A 
ATOM     11  C   UNL     1       2.062  -1.351  -6.382  0.00  0.00    +0.134 A 
ATOM     12  F   UNL     1       2.024  -2.403  -5.535  0.00  0.00    -0.205 F 
ENDBRANCH   4   6
BRANCH   5  13
ATOM     13  N   UNL     1      -0.569   1.532  -4.727  0.00  0.00    -0.295 N 
ATOM     14  H   UNL     1      -0.328   2.505  -4.843  0.00  0.00    +0.163 HD
ATOM     15  H   UNL     1      -0.715   1.087  -5.621  0.00  0.00    +0.163 HD
ENDBRANCH   5  13
BRANCH   1  16
ATOM     16  S   UNL     1      -0.616   1.534  -1.474  0.00  0.00    -0.075 S 
BRANCH  16  17
ATOM     17  C   UNL     1       0.158   0.990   0.069  0.00  0.00    +0.173 C 
BRANCH  17  19
ATOM     18  N   UNL     1      -0.238   1.237   2.498  0.00  0.00    -0.285 N 
ATOM     19  C   UNL     1      -0.631   1.518   1.240  0.00  0.00    +0.227 C 
ATOM     20  O   UNL     1      -1.619   2.195   1.050  0.00  0.00    -0.275 OA
ATOM     21  H   UNL     1       0.586   0.748   2.651  0.00  0.00    +0.155 HD
BRANCH  18  27
ATOM     22  C   UNL     1      -1.978   0.407   7.021  0.00  0.00    +0.044 C 
ATOM     23  C   UNL     1      -1.879   1.269   5.788  0.00  0.00    -0.048 A 
ATOM     24  C   UNL     1      -2.560   2.471   5.729  0.00  0.00    +0.006 A 
ATOM     25  C   UNL     1      -2.472   3.264   4.601  0.00  0.00    -0.048 A 
ATOM     26  C   UNL     1      -1.703   2.858   3.528  0.00  0.00    +0.026 A 
ATOM     27  C   UNL     1      -1.018   1.651   3.583  0.00  0.00    +0.034 A 
ATOM     28  C   UNL     1      -1.113   0.854   4.716  0.00  0.00    +0.026 A 
ATOM     29  C   UNL     1      -3.215   4.574   4.541  0.00  0.00    +0.044 C 
ENDBRANCH  18  27
ENDBRANCH  17  19
ENDBRANCH  16  17
ENDBRANCH   1  16
TORSDOF 6
