REMARK  Name = ZINC22822603
REMARK  3 active torsions:
REMARK  status: ('A' for Active; 'I' for Inactive)
REMARK    1  A    between atoms: C_1  and  C_2
REMARK    2  A    between atoms: C_6  and  C_8
REMARK    3  A    between atoms: C_13  and  C_28
REMARK                            x       y       z     vdW  Elec       q    Type
REMARK                         _______ _______ _______ _____ _____    ______ ____
ROOT
ATOM      1  C   UNL     1       0.698  10.548  -1.758  0.00  0.00    +0.032 C 
ATOM      2  C   UNL     1       1.661   9.961  -0.723  0.00  0.00    +0.060 C 
ATOM      3  C   UNL     1       1.212   8.574  -0.344  0.00  0.00    +0.020 C 
ATOM      4  C   UNL     1      -0.096   8.234  -0.358  0.00  0.00    +0.041 C 
ATOM      5  C   UNL     1      -0.524   6.848   0.051  0.00  0.00    +0.173 C 
ATOM      6  N   UNL     1       0.595   5.917   0.023  0.00  0.00    -0.243 NA
ATOM      7  C   UNL     1       1.829   6.308   0.019  0.00  0.00    +0.186 C 
ATOM      8  N   UNL     1       2.151   7.647   0.023  0.00  0.00    -0.290 N 
ATOM      9  N   UNL     1       2.837   5.368   0.004  0.00  0.00    -0.266 N 
ATOM     10  C   UNL     1       2.526   4.020  -0.001  0.00  0.00    +0.165 A 
ATOM     11  N   UNL     1       1.345   3.447   0.008  0.00  0.00    -0.225 NA
ATOM     12  C   UNL     1       1.189   2.105   0.002  0.00  0.00    +0.080 A 
ATOM     13  C   UNL     1      -0.017   1.366   0.010  0.00  0.00    +0.029 A 
ATOM     14  C   UNL     1       0.002  -0.004   0.002  0.00  0.00    +0.002 A 
ATOM     15  C   UNL     1       1.195  -0.713  -0.013  0.00  0.00    +0.001 A 
ATOM     16  C   UNL     1       2.393  -0.022  -0.021  0.00  0.00    +0.017 A 
ATOM     17  C   UNL     1       2.384   1.350  -0.013  0.00  0.00    +0.041 A 
ATOM     18  S   UNL     1       3.631   2.615  -0.019  0.00  0.00    -0.052 S 
ATOM     19  C   UNL     1      -1.080   9.157  -0.746  0.00  0.00    +0.164 C 
ATOM     20  O   UNL     1      -2.248   8.821  -0.745  0.00  0.00    -0.292 OA
ATOM     21  C   UNL     1      -0.713  10.556  -1.161  0.00  0.00    +0.088 C 
ATOM     22  H   UNL     1       3.158   7.972   0.321  0.00  0.00    +0.154 HD
ATOM     23  H   UNL     1       3.889   5.691  -0.004  0.00  0.00    +0.157 HD
ENDROOT
BRANCH   5  24
ATOM     24  C   UNL     1      -1.094   6.900   1.445  0.00  0.00    -0.013 A 
ATOM     25  C   UNL     1      -0.246   6.922   2.537  0.00  0.00    +0.044 A 
ATOM     26  C   UNL     1      -0.769   6.974   3.818  0.00  0.00    +0.126 A 
ATOM     27  C   UNL     1      -2.140   6.993   4.006  0.00  0.00    +0.076 A 
ATOM     28  C   UNL     1      -2.988   6.966   2.913  0.00  0.00    +0.126 A 
ATOM     29  C   UNL     1      -2.463   6.919   1.632  0.00  0.00    +0.044 A 
ATOM     30  F   UNL     1      -4.326   6.984   3.094  0.00  0.00    -0.205 F 
ATOM     31  F   UNL     1       0.060   7.001   4.885  0.00  0.00    -0.205 F 
ENDBRANCH   5  24
BRANCH   1  37
ATOM     32  C   UNL     1       2.153  13.950  -5.128  0.00  0.00    +0.044 C 
ATOM     33  C   UNL     1       1.809  13.585  -3.707  0.00  0.00    -0.050 A 
ATOM     34  C   UNL     1       1.875  14.542  -2.712  0.00  0.00    +0.003 A 
ATOM     35  C   UNL     1       1.558  14.207  -1.408  0.00  0.00    +0.001 A 
ATOM     36  C   UNL     1       1.174  12.916  -1.100  0.00  0.00    +0.004 A 
ATOM     37  C   UNL     1       1.113  11.957  -2.094  0.00  0.00    -0.043 A 
ATOM     38  C   UNL     1       1.428  12.292  -3.398  0.00  0.00    +0.007 A 
ENDBRANCH   1  37
TORSDOF 2
