REMARK  Name = ZINC22370301
REMARK  14 active torsions:
REMARK  status: ('A' for Active; 'I' for Inactive)
REMARK    1  A    between atoms: C_1  and  C_2
REMARK    2  A    between atoms: C_2  and  C_3
REMARK    3  A    between atoms: N_9  and  C_10
REMARK    4  A    between atoms: C_10  and  C_11
REMARK    5  A    between atoms: C_11  and  C_12
REMARK    6  A    between atoms: C_12  and  N_13
REMARK    7  A    between atoms: C_14  and  C_16
REMARK    8  A    between atoms: C_16  and  N_17
REMARK    9  A    between atoms: N_17  and  C_18
REMARK   10  A    between atoms: N_17  and  S_25
REMARK   11  A    between atoms: S_25  and  C_28
REMARK   12  A    between atoms: C_31  and  O_34
REMARK   13  A    between atoms: O_34  and  C_35
REMARK   14  A    between atoms: C_35  and  C_36
REMARK                            x       y       z     vdW  Elec       q    Type
REMARK                         _______ _______ _______ _____ _____    ______ ____
ROOT
ATOM      1  N   UNL     1      -9.647   1.023   4.090  0.00  0.00    -0.194 N 
ENDROOT
BRANCH   1   2
ATOM      2  C   UNL     1     -10.412   2.051   3.529  0.00  0.00    +0.052 A 
ATOM      3  C   UNL     1     -11.792   1.925   3.446  0.00  0.00    +0.027 A 
ATOM      4  C   UNL     1     -12.545   2.944   2.895  0.00  0.00    +0.040 A 
ATOM      5  C   UNL     1     -11.924   4.085   2.417  0.00  0.00    +0.124 A 
ATOM      6  C   UNL     1     -10.547   4.210   2.494  0.00  0.00    +0.040 A 
ATOM      7  C   UNL     1      -9.790   3.196   3.048  0.00  0.00    +0.027 A 
ATOM      8  F   UNL     1     -12.662   5.078   1.874  0.00  0.00    -0.205 F 
ENDBRANCH   1   2
BRANCH   1   9
ATOM      9  S   UNL     1     -10.215  -0.532   4.077  0.00  0.00    +0.075 S 
ATOM     10  O   UNL     1     -11.156  -0.612   3.015  0.00  0.00    -0.150 OA
ATOM     11  O   UNL     1      -9.077  -1.380   4.151  0.00  0.00    -0.150 OA
BRANCH   9  12
ATOM     12  C   UNL     1     -11.119  -0.771   5.570  0.00  0.00    +0.109 A 
ATOM     13  C   UNL     1     -10.453  -1.116   6.732  0.00  0.00    +0.032 A 
ATOM     14  C   UNL     1     -11.159  -1.297   7.906  0.00  0.00    +0.047 A 
ATOM     15  C   UNL     1     -12.538  -1.144   7.915  0.00  0.00    +0.121 A 
ATOM     16  C   UNL     1     -13.204  -0.804   6.747  0.00  0.00    +0.047 A 
ATOM     17  C   UNL     1     -12.493  -0.618   5.577  0.00  0.00    +0.032 A 
BRANCH  15  18
ATOM     18  O   UNL     1     -13.235  -1.327   9.067  0.00  0.00    -0.492 OA
BRANCH  18  19
ATOM     19  C   UNL     1     -12.484  -1.677  10.232  0.00  0.00    +0.225 C 
ATOM     20  C   UNL     1     -13.432  -1.840  11.421  0.00  0.00    +0.048 C 
ENDBRANCH  18  19
ENDBRANCH  15  18
ENDBRANCH   9  12
ENDBRANCH   1   9
BRANCH   1  21
ATOM     21  C   UNL     1      -8.345   1.323   4.691  0.00  0.00    +0.227 C 
BRANCH  21  23
ATOM     22  N   UNL     1      -6.003   1.582   3.939  0.00  0.00    -0.314 N 
ATOM     23  C   UNL     1      -7.287   1.328   3.618  0.00  0.00    +0.232 C 
ATOM     24  O   UNL     1      -7.590   1.103   2.465  0.00  0.00    -0.274 OA
ATOM     25  H   UNL     1      -5.727   1.786   4.984  0.00  0.00    +0.149 HD
BRANCH  22  26
ATOM     26  C   UNL     1      -4.974   1.587   2.896  0.00  0.00    +0.102 C 
BRANCH  26  27
ATOM     27  C   UNL     1      -3.614   1.900   3.523  0.00  0.00    +0.000 C 
BRANCH  27  28
ATOM     28  C   UNL     1      -2.539   1.905   2.434  0.00  0.00    -0.077 C 
BRANCH  28  34
ATOM     29  C   UNL     1      -0.161   2.119   2.037  0.00  0.00    -0.069 C 
ATOM     30  C   UNL     1       1.159   2.578   2.662  0.00  0.00    -0.015 C 
ATOM     31  C   UNL     1       1.484   1.689   3.865  0.00  0.00    -0.003 C 
ATOM     32  C   UNL     1       0.330   1.758   4.868  0.00  0.00    -0.019 C 
ATOM     33  C   UNL     1      -0.965   1.323   4.179  0.00  0.00    -0.078 C 
ATOM     34  N   UNL     1      -1.233   2.205   3.036  0.00  0.00    +0.382 N 
ATOM     35  H   UNL     1      -1.261   3.239   3.410  0.00  0.00    -0.081 HD
BRANCH  29  37
ATOM     36  C   UNL     1       0.549   2.830  -0.251  0.00  0.00    +0.002 C 
ATOM     37  C   UNL     1      -0.501   3.018   0.846  0.00  0.00    -0.019 C 
ENDBRANCH  29  37
ENDBRANCH  28  34
ENDBRANCH  27  28
ENDBRANCH  26  27
ENDBRANCH  22  26
ENDBRANCH  21  23
ENDBRANCH   1  21
TORSDOF 12
