REMARK  Name = ZINC35357874
REMARK  4 active torsions:
REMARK  status: ('A' for Active; 'I' for Inactive)
REMARK    1  A    between atoms: C_1  and  C_2
REMARK    2  A    between atoms: C_7  and  N_10
REMARK    3  A    between atoms: N_10  and  S_11
REMARK    4  A    between atoms: S_11  and  C_14
REMARK                            x       y       z     vdW  Elec       q    Type
REMARK                         _______ _______ _______ _____ _____    ______ ____
ROOT
ATOM      1  S   UNL     1       2.396  -3.897   2.329  0.00  0.00    +0.062 S 
ATOM      2  O   UNL     1       2.966  -4.088   3.617  0.00  0.00    -0.153 OA
ATOM      3  O   UNL     1       1.596  -4.885   1.696  0.00  0.00    -0.153 OA
ENDROOT
BRANCH   1   4
ATOM      4  C   UNL     1       3.732  -3.552   1.234  0.00  0.00    +0.141 A 
ATOM      5  C   UNL     1       3.613  -3.789  -0.127  0.00  0.00    +0.144 A 
ATOM      6  N   UNL     1       4.638  -3.519  -0.919  0.00  0.00    -0.224 NA
ATOM      7  C   UNL     1       5.761  -3.029  -0.429  0.00  0.00    +0.223 A 
ATOM      8  N   UNL     1       5.909  -2.791   0.860  0.00  0.00    -0.224 NA
ATOM      9  C   UNL     1       4.925  -3.032   1.711  0.00  0.00    +0.144 A 
ATOM     10 CL   UNL     1       7.077  -2.691  -1.509  0.00  0.00    -0.041 Cl
ENDBRANCH   1   4
BRANCH   1  11
ATOM     11  N   UNL     1       1.471  -2.526   2.420  0.00  0.00    -0.187 NA
ATOM     12  H   UNL     1       1.399  -2.045   3.259  0.00  0.00    +0.148 HD
BRANCH  11  18
ATOM     13  C   UNL     1      -0.019   1.526   0.010  0.00  0.00    +0.007 C 
ATOM     14  C   UNL     1       0.002  -0.004   0.002  0.00  0.00    -0.013 C 
ATOM     15  C   UNL     1      -1.433  -0.534   0.013  0.00  0.00    +0.003 C 
ATOM     16  C   UNL     1      -1.413  -2.063   0.004  0.00  0.00    +0.002 C 
ATOM     17  C   UNL     1      -0.673  -2.570   1.244  0.00  0.00    +0.020 C 
ATOM     18  C   UNL     1       0.763  -2.041   1.233  0.00  0.00    +0.077 C 
ATOM     19  C   UNL     1       0.742  -0.511   1.242  0.00  0.00    +0.023 C 
ENDBRANCH  11  18
ENDBRANCH   1  11
TORSDOF 3
