REMARK  Name = ZINC57407586
REMARK  5 active torsions:
REMARK  status: ('A' for Active; 'I' for Inactive)
REMARK    1  A    between atoms: C_1  and  C_2
REMARK    2  A    between atoms: C_7  and  N_12
REMARK    3  A    between atoms: C_9  and  C_11
REMARK    4  A    between atoms: C_16  and  C_18
REMARK    5  A    between atoms: C_18  and  N_19
REMARK                            x       y       z     vdW  Elec       q    Type
REMARK                         _______ _______ _______ _____ _____    ______ ____
ROOT
ATOM      1  N   UNL     1       0.735  -0.503   3.687  0.00  0.00    -0.296 N 
ATOM      2  C   UNL     1       0.634   0.166   4.853  0.00  0.00    +0.306 C 
ATOM      3  O   UNL     1      -0.045   1.172   4.919  0.00  0.00    -0.252 OA
ATOM      4  N   UNL     1       1.286  -0.280   5.945  0.00  0.00    -0.239 N 
ATOM      5  C   UNL     1       1.185   0.389   7.110  0.00  0.00    +0.234 C 
ATOM      6  O   UNL     1       0.508   1.392   7.177  0.00  0.00    -0.274 OA
ATOM      7  H   UNL     1       1.276  -1.306   3.634  0.00  0.00    +0.151 HD
ATOM      8  H   UNL     1       1.827  -1.083   5.892  0.00  0.00    +0.159 HD
ENDROOT
BRANCH   1  14
ATOM      9  C   UNL     1      -0.019   1.526   0.010  0.00  0.00    +0.008 C 
ATOM     10  C   UNL     1       0.002  -0.004   0.002  0.00  0.00    -0.009 C 
ATOM     11  C   UNL     1      -1.433  -0.534   0.013  0.00  0.00    +0.003 C 
ATOM     12  C   UNL     1      -2.149  -0.040   1.272  0.00  0.00    +0.002 C 
ATOM     13  C   UNL     1      -1.409  -0.547   2.511  0.00  0.00    +0.022 C 
ATOM     14  C   UNL     1       0.026  -0.018   2.500  0.00  0.00    +0.078 C 
ATOM     15  C   UNL     1       0.742  -0.511   1.242  0.00  0.00    +0.009 C 
ATOM     16  C   UNL     1       2.178   0.019   1.231  0.00  0.00    +0.009 C 
ENDBRANCH   1  14
BRANCH   5  17
ATOM     17  C   UNL     1       1.913  -0.110   8.331  0.00  0.00    +0.181 C 
BRANCH  17  18
ATOM     18  N   UNL     1       1.644   0.786   9.463  0.00  0.00    -0.289 NA
ATOM     19  C   UNL     1       2.540   0.495  10.591  0.00  0.00    +0.090 C 
ATOM     20  C   UNL     1       2.515   1.685  11.565  0.00  0.00    +0.058 C 
ATOM     21  C   UNL     1       1.086   2.063  11.784  0.00  0.00    -0.005 A 
ATOM     22  C   UNL     1       0.015   1.660  11.044  0.00  0.00    -0.023 A 
ATOM     23  C   UNL     1      -1.230   2.141  11.440  0.00  0.00    +0.013 A 
ATOM     24  C   UNL     1      -1.329   2.967  12.508  0.00  0.00    +0.046 A 
ATOM     25  S   UNL     1       0.376   3.110  13.023  0.00  0.00    -0.101 S 
ATOM     26  C   UNL     1       0.230   0.730   9.854  0.00  0.00    +0.120 C 
ENDBRANCH  17  18
ENDBRANCH   5  17
TORSDOF 3
