REMARK  Name = ZINC39596181
REMARK  10 active torsions:
REMARK  status: ('A' for Active; 'I' for Inactive)
REMARK    1  A    between atoms: C_1  and  C_2
REMARK    2  A    between atoms: C_2  and  S_3
REMARK    3  A    between atoms: S_3  and  C_4
REMARK    4  A    between atoms: C_5  and  C_10
REMARK    5  A    between atoms: C_14  and  C_23
REMARK    6  A    between atoms: N_25  and  C_26
REMARK    7  A    between atoms: C_26  and  C_27
REMARK    8  A    between atoms: C_27  and  C_29
REMARK    9  A    between atoms: C_27  and  O_30
REMARK   10  A    between atoms: O_30  and  C_31
REMARK                            x       y       z     vdW  Elec       q    Type
REMARK                         _______ _______ _______ _____ _____    ______ ____
ROOT
ATOM      1  C   UNL     1       2.151  -2.914  -3.010  0.00  0.00    +0.249 C 
ATOM      2  O   UNL     1       2.310  -1.718  -3.159  0.00  0.00    -0.270 OA
ATOM      3  N   UNL     1       2.795  -3.785  -3.811  0.00  0.00    -0.296 N 
ATOM      4  C   UNL     1       2.649  -5.260  -3.853  0.00  0.00    +0.121 C 
ATOM      5  C   UNL     1       2.711  -5.615  -5.356  0.00  0.00    +0.100 C 
ATOM      6  C   UNL     1       3.475  -4.448  -6.004  0.00  0.00    -0.004 C 
ATOM      7  C   UNL     1       3.804  -3.485  -4.855  0.00  0.00    +0.115 C 
ATOM      8  C   UNL     1       4.758  -4.954  -6.656  0.00  0.00    -0.010 C 
ATOM      9  C   UNL     1       5.470  -3.785  -7.343  0.00  0.00    -0.082 C 
ATOM     10  N   UNL     1       4.584  -3.196  -8.354  0.00  0.00    +0.379 N 
ATOM     11  C   UNL     1       3.394  -2.629  -7.708  0.00  0.00    -0.082 C 
ATOM     12  C   UNL     1       2.594  -3.749  -7.036  0.00  0.00    -0.010 C 
ATOM     13  H   UNL     1       5.077  -2.467  -8.848  0.00  0.00    -0.086 HD
ATOM     14  H   UNL     1       4.301  -3.910  -9.009  0.00  0.00    -0.086 HD
ENDROOT
BRANCH   1  16
ATOM     15  C   UNL     1       0.075  -2.716  -1.626  0.00  0.00    +0.109 A 
ATOM     16  C   UNL     1       1.253  -3.412  -1.951  0.00  0.00    +0.069 A 
ATOM     17  C   UNL     1       1.558  -4.585  -1.252  0.00  0.00    +0.017 A 
ATOM     18  C   UNL     1       0.682  -5.010  -0.268  0.00  0.00    +0.020 A 
ATOM     19  C   UNL     1      -0.458  -4.271  -0.005  0.00  0.00    +0.112 A 
ATOM     20  N   UNL     1      -0.725  -3.165  -0.671  0.00  0.00    -0.248 NA
BRANCH  15  21
ATOM     21  S   UNL     1      -0.335  -1.235  -2.488  0.00  0.00    -0.105 S 
BRANCH  21  23
ATOM     22  C   UNL     1      -2.373   0.587  -2.399  0.00  0.00    +0.015 C 
ATOM     23  C   UNL     1      -1.897  -0.706  -1.734  0.00  0.00    +0.072 C 
ENDBRANCH  21  23
ENDBRANCH  15  21
ENDBRANCH   1  16
BRANCH   5  24
ATOM     24  C   UNL     1       1.321  -5.718  -5.928  0.00  0.00    +0.218 C 
ATOM     25  O   UNL     1       0.422  -5.049  -5.463  0.00  0.00    -0.275 OA
ATOM     26  N   UNL     1       1.075  -6.554  -6.957  0.00  0.00    -0.312 N 
ATOM     27  H   UNL     1       1.794  -7.089  -7.329  0.00  0.00    +0.149 HD
BRANCH  26  28
ATOM     28  C   UNL     1      -0.276  -6.654  -7.513  0.00  0.00    +0.148 C 
BRANCH  28  29
ATOM     29  C   UNL     1      -0.281  -7.665  -8.662  0.00  0.00    +0.187 C 
ATOM     30  C   UNL     1      -1.661  -7.678  -9.323  0.00  0.00    +0.053 C 
BRANCH  29  31
ATOM     31  O   UNL     1       0.015  -8.966  -8.152  0.00  0.00    -0.488 OA
BRANCH  31  32
ATOM     32  C   UNL     1       0.546  -9.864  -9.023  0.00  0.00    +0.121 A 
ATOM     33  C   UNL     1       0.677  -9.536 -10.364  0.00  0.00    +0.048 A 
ATOM     34  C   UNL     1       1.217 -10.450 -11.249  0.00  0.00    +0.042 A 
ATOM     35  C   UNL     1       1.628 -11.692 -10.797  0.00  0.00    +0.124 A 
ATOM     36  C   UNL     1       1.497 -12.021  -9.459  0.00  0.00    +0.042 A 
ATOM     37  C   UNL     1       0.964 -11.107  -8.571  0.00  0.00    +0.048 A 
ATOM     38  F   UNL     1       2.155 -12.585 -11.663  0.00  0.00    -0.205 F 
ENDBRANCH  31  32
ENDBRANCH  29  31
ENDBRANCH  28  29
ENDBRANCH  26  28
ENDBRANCH   5  24
TORSDOF 8
