REMARK  Name = ZINC04671203
REMARK  12 active torsions:
REMARK  status: ('A' for Active; 'I' for Inactive)
REMARK    1  A    between atoms: C_1  and  C_2
REMARK    2  A    between atoms: N_8  and  N_9
REMARK    3  A    between atoms: C_10  and  C_11
REMARK    4  A    between atoms: C_13  and  C_22
REMARK    5  A    between atoms: C_14  and  O_21
REMARK    6  A    between atoms: C_15  and  C_17
REMARK    7  A    between atoms: C_17  and  C_18
REMARK    8  A    between atoms: C_17  and  C_19
REMARK    9  A    between atoms: C_17  and  C_20
REMARK   10  A    between atoms: C_22  and  C_23
REMARK   11  A    between atoms: C_22  and  C_24
REMARK   12  A    between atoms: C_22  and  C_25
REMARK                            x       y       z     vdW  Elec       q    Type
REMARK                         _______ _______ _______ _____ _____    ______ ____
ROOT
ATOM      1  C   UNL     1      -6.697   3.527   4.573  0.00  0.00    -0.005 A 
ATOM      2  C   UNL     1      -5.997   3.766   5.758  0.00  0.00    +0.017 A 
ATOM      3  C   UNL     1      -6.668   4.216   6.874  0.00  0.00    +0.000 A 
ATOM      4  C   UNL     1      -8.041   4.420   6.826  0.00  0.00    +0.124 A 
ATOM      5  C   UNL     1      -8.743   4.179   5.652  0.00  0.00    +0.000 A 
ATOM      6  C   UNL     1      -8.079   3.735   4.529  0.00  0.00    +0.017 A 
ENDROOT
BRANCH   5   7
ATOM      7  C   UNL     1     -10.232   4.402   5.606  0.00  0.00    -0.009 C 
ATOM      8  C   UNL     1     -10.756   4.064   4.208  0.00  0.00    +0.015 C 
ATOM      9  C   UNL     1     -10.915   3.502   6.638  0.00  0.00    +0.015 C 
ATOM     10  C   UNL     1     -10.539   5.867   5.925  0.00  0.00    +0.015 C 
ENDBRANCH   5   7
BRANCH   3  11
ATOM     11  C   UNL     1      -5.913   4.480   8.151  0.00  0.00    -0.009 C 
ATOM     12  C   UNL     1      -4.428   4.179   7.937  0.00  0.00    +0.015 C 
ATOM     13  C   UNL     1      -6.083   5.947   8.551  0.00  0.00    +0.015 C 
ATOM     14  C   UNL     1      -6.461   3.582   9.263  0.00  0.00    +0.015 C 
ENDBRANCH   3  11
BRANCH   1  16
ATOM     15  N   UNL     1      -4.699   2.861   3.417  0.00  0.00    -0.188 NA
ATOM     16  C   UNL     1      -5.982   3.052   3.374  0.00  0.00    +0.138 C 
BRANCH  15  24
ATOM     17  C   UNL     1      -0.013   1.086   0.008  0.00  0.00    +0.066 C 
ATOM     18  C   UNL     1      -0.718   1.572   1.248  0.00  0.00    +0.043 A 
ATOM     19  C   UNL     1      -0.005   1.809   2.413  0.00  0.00    +0.043 A 
ATOM     20  C   UNL     1      -0.692   2.255   3.531  0.00  0.00    +0.116 A 
ATOM     21  N   UNL     1      -2.000   2.441   3.454  0.00  0.00    -0.222 NA
ATOM     22  C   UNL     1      -2.652   2.204   2.324  0.00  0.00    +0.235 A 
ATOM     23  N   UNL     1      -2.023   1.782   1.236  0.00  0.00    -0.218 NA
ATOM     24  N   UNL     1      -4.020   2.409   2.278  0.00  0.00    -0.205 N 
ATOM     25  H   UNL     1      -4.508   2.240   1.458  0.00  0.00    +0.177 HD
ENDBRANCH  15  24
ENDBRANCH   1  16
BRANCH   4  26
ATOM     26  O   UNL     1      -8.700   4.859   7.930  0.00  0.00    -0.506 OA
ATOM     27  H   UNL     1      -9.025   4.149   8.502  0.00  0.00    +0.292 HD
ENDBRANCH   4  26
TORSDOF 5
