REMARK  Name = ZINC05033511
REMARK  9 active torsions:
REMARK  status: ('A' for Active; 'I' for Inactive)
REMARK    1  A    between atoms: C_1  and  O_2
REMARK    2  A    between atoms: O_2  and  C_3
REMARK    3  A    between atoms: C_3  and  C_5
REMARK    4  A    between atoms: C_7  and  C_12
REMARK    5  A    between atoms: C_15  and  C_17
REMARK    6  A    between atoms: C_18  and  C_19
REMARK    7  A    between atoms: C_18  and  C_21
REMARK    8  A    between atoms: C_22  and  C_28
REMARK    9  A    between atoms: C_23  and  N_27
REMARK                            x       y       z     vdW  Elec       q    Type
REMARK                         _______ _______ _______ _____ _____    ______ ____
ROOT
ATOM      1  C   UNL     1       3.871  -0.188  -0.036  0.00  0.00    +0.136 A 
ATOM      2  C   UNL     1       4.581   0.980  -0.036  0.00  0.00    +0.050 A 
ATOM      3  C   UNL     1       3.655   2.026  -0.022  0.00  0.00    +0.050 A 
ATOM      4  C   UNL     1       2.398   1.445  -0.013  0.00  0.00    +0.130 A 
ATOM      5  O   UNL     1       2.558   0.105  -0.016  0.00  0.00    -0.455 OA
ENDROOT
BRANCH   1   8
ATOM      6  C   UNL     1       4.166  -3.940  -0.060  0.00  0.00    +0.078 A 
ATOM      7  C   UNL     1       3.612  -2.661  -0.041  0.00  0.00    +0.028 A 
ATOM      8  C   UNL     1       4.449  -1.546  -0.049  0.00  0.00    +0.018 A 
ATOM      9  C   UNL     1       5.837  -1.716  -0.063  0.00  0.00    +0.013 A 
ATOM     10  C   UNL     1       6.379  -2.984  -0.074  0.00  0.00    +0.021 A 
ATOM     11  C   UNL     1       5.556  -4.096  -0.073  0.00  0.00    +0.055 A 
ATOM     12 CL   UNL     1       6.249  -5.687  -0.088  0.00  0.00    -0.083 Cl
BRANCH   6  13
ATOM     13  C   UNL     1       3.288  -5.127  -0.058  0.00  0.00    +0.340 C 
ATOM     14  O   UNL     1       3.773  -6.241  -0.069  0.00  0.00    -0.245 OA
BRANCH  13  16
ATOM     15  C   UNL     1       1.149  -6.186  -0.045  0.00  0.00    +0.280 C 
ATOM     16  O   UNL     1       1.950  -4.975  -0.046  0.00  0.00    -0.464 OA
ENDBRANCH  13  16
ENDBRANCH   6  13
ENDBRANCH   1   8
BRANCH   4  17
ATOM     17  C   UNL     1       1.168   2.134   0.002  0.00  0.00    +0.067 C 
ATOM     18  C   UNL     1      -0.017   1.428   0.010  0.00  0.00    +0.084 C 
BRANCH  18  19
ATOM     19  C   UNL     1      -1.308   2.150   0.020  0.00  0.00    +0.122 A 
ATOM     20  C   UNL     1      -2.646   1.545   0.023  0.00  0.00    +0.119 A 
ATOM     21  C   UNL     1      -3.550   2.602   0.034  0.00  0.00    +0.130 A 
ATOM     22  N   UNL     1      -2.839   3.748   0.037  0.00  0.00    -0.263 N 
ATOM     23  H   UNL     1      -3.230   4.668   0.042  0.00  0.00    +0.190 HD
ATOM     24  N   UNL     1      -1.473   3.454   0.034  0.00  0.00    -0.170 NA
BRANCH  21  25
ATOM     25  N   UNL     1      -4.928   2.497   0.040  0.00  0.00    -0.342 N 
ATOM     26  H   UNL     1      -5.348   1.622   0.036  0.00  0.00    +0.144 HD
ATOM     27  H   UNL     1      -5.475   3.297   0.047  0.00  0.00    +0.144 HD
ENDBRANCH  21  25
BRANCH  20  28
ATOM     28  C   UNL     1      -2.957   0.147   0.016  0.00  0.00    +0.105 C 
ATOM     29  N   UNL     1      -3.204  -0.962   0.010  0.00  0.00    -0.191 NA
ENDBRANCH  20  28
ENDBRANCH  18  19
BRANCH  18  30
ATOM     30  C   UNL     1       0.002  -0.004   0.002  0.00  0.00    +0.102 C 
ATOM     31  N   UNL     1       0.018  -1.140  -0.004  0.00  0.00    -0.191 NA
ENDBRANCH  18  30
ENDBRANCH   4  17
TORSDOF 8
