REMARK  Name = ZINC25779216
REMARK  5 active torsions:
REMARK  status: ('A' for Active; 'I' for Inactive)
REMARK    1  A    between atoms: C_1  and  C_2
REMARK    2  A    between atoms: C_5  and  S_8
REMARK    3  A    between atoms: S_8  and  N_11
REMARK    4  A    between atoms: C_18  and  C_20
REMARK    5  A    between atoms: C_25  and  O_26
REMARK                            x       y       z     vdW  Elec       q    Type
REMARK                         _______ _______ _______ _____ _____    ______ ____
ROOT
ATOM      1  N   UNL     1       1.829  -5.030  -0.157  0.00  0.00    -0.175 NA
ATOM      2  C   UNL     1       2.542  -5.280  -1.377  0.00  0.00    +0.111 C 
ATOM      3  C   UNL     1       2.239  -6.723  -1.816  0.00  0.00    +0.036 C 
ATOM      4  C   UNL     1       3.020  -7.704  -1.047  0.00  0.00    +0.109 C 
ATOM      5  N   UNL     1       2.738  -7.567   0.402  0.00  0.00    -0.296 N 
ATOM      6  C   UNL     1       3.336  -6.499   1.153  0.00  0.00    +0.125 C 
ATOM      7  C   UNL     1       2.456  -5.221   1.179  0.00  0.00    +0.128 C 
ATOM      8  C   UNL     1       1.919  -8.445   1.014  0.00  0.00    +0.250 C 
ATOM      9  O   UNL     1       1.759  -8.389   2.218  0.00  0.00    -0.270 OA
ENDROOT
BRANCH   8  10
ATOM     10  C   UNL     1       1.216  -9.473   0.223  0.00  0.00    +0.078 A 
ATOM     11  C   UNL     1       0.352  -9.098  -0.809  0.00  0.00    +0.017 A 
ATOM     12  C   UNL     1      -0.301 -10.063  -1.544  0.00  0.00    +0.001 A 
ATOM     13  C   UNL     1      -0.105 -11.406  -1.265  0.00  0.00    +0.004 A 
ATOM     14  C   UNL     1       0.746 -11.791  -0.248  0.00  0.00    +0.046 A 
ATOM     15  C   UNL     1       1.415 -10.833   0.499  0.00  0.00    +0.129 A 
BRANCH  15  16
ATOM     16  O   UNL     1       2.256 -11.210   1.495  0.00  0.00    -0.506 OA
ATOM     17  H   UNL     1       1.827 -11.302   2.357  0.00  0.00    +0.292 HD
ENDBRANCH  15  16
ENDBRANCH   8  10
BRANCH   1  18
ATOM     18  S   UNL     1       0.260  -4.505  -0.239  0.00  0.00    +0.061 S 
ATOM     19  O   UNL     1      -0.352  -4.863   0.992  0.00  0.00    -0.153 OA
ATOM     20  O   UNL     1      -0.246  -4.934  -1.495  0.00  0.00    -0.153 OA
BRANCH  18  25
ATOM     21  C   UNL     1       0.401   1.525  -0.405  0.00  0.00    +0.044 C 
ATOM     22  C   UNL     1       0.366   0.019  -0.364  0.00  0.00    -0.050 A 
ATOM     23  C   UNL     1       0.402  -0.706  -1.540  0.00  0.00    +0.005 A 
ATOM     24  C   UNL     1       0.370  -2.087  -1.502  0.00  0.00    +0.029 A 
ATOM     25  C   UNL     1       0.302  -2.744  -0.288  0.00  0.00    +0.105 A 
ATOM     26  C   UNL     1       0.267  -2.019   0.889  0.00  0.00    +0.029 A 
ATOM     27  C   UNL     1       0.304  -0.638   0.851  0.00  0.00    +0.005 A 
ENDBRANCH  18  25
ENDBRANCH   1  18
TORSDOF 4
