REMARK  Name = ZINC36899071
REMARK  5 active torsions:
REMARK  status: ('A' for Active; 'I' for Inactive)
REMARK    1  A    between atoms: C_1  and  C_2
REMARK    2  A    between atoms: N_8  and  C_9
REMARK    3  A    between atoms: C_9  and  C_10
REMARK    4  A    between atoms: C_10  and  C_11
REMARK    5  A    between atoms: C_11  and  N_12
REMARK                            x       y       z     vdW  Elec       q    Type
REMARK                         _______ _______ _______ _____ _____    ______ ____
ROOT
ATOM      1  N   UNL     1       4.842  -0.112   3.791  0.00  0.00    -0.312 N 
ATOM      2  C   UNL     1       4.815   0.583   4.990  0.00  0.00    +0.070 A 
ATOM      3  C   UNL     1       4.216   1.763   5.403  0.00  0.00    +0.029 A 
ATOM      4  C   UNL     1       4.384   2.202   6.700  0.00  0.00    +0.017 A 
ATOM      5  C   UNL     1       5.151   1.469   7.596  0.00  0.00    +0.020 A 
ATOM      6  C   UNL     1       5.754   0.295   7.201  0.00  0.00    +0.045 A 
ATOM      7  C   UNL     1       5.592  -0.163   5.891  0.00  0.00    +0.092 A 
ATOM      8  N   UNL     1       6.047  -1.253   5.220  0.00  0.00    -0.215 NA
ATOM      9  C   UNL     1       5.604  -1.228   3.988  0.00  0.00    +0.194 A 
ATOM     10  N   UNL     1       5.869  -2.184   3.030  0.00  0.00    -0.329 N 
ATOM     11 BR   UNL     1       5.370   2.087   9.369  0.00  0.00    -0.050 Br
ATOM     12  H   UNL     1       5.504  -2.091   2.137  0.00  0.00    +0.145 HD
ATOM     13  H   UNL     1       6.422  -2.951   3.251  0.00  0.00    +0.145 HD
ENDROOT
BRANCH   1  14
ATOM     14  C   UNL     1       4.173   0.276   2.547  0.00  0.00    +0.123 C 
BRANCH  14  15
ATOM     15  C   UNL     1       2.764  -0.321   2.518  0.00  0.00    +0.003 C 
BRANCH  15  16
ATOM     16  C   UNL     1       2.066   0.083   1.218  0.00  0.00    -0.077 C 
BRANCH  16  23
ATOM     17  C   UNL     1      -0.019   1.526   0.010  0.00  0.00    -0.013 C 
ATOM     18  C   UNL     1       0.002  -0.004   0.002  0.00  0.00    -0.072 C 
ATOM     19  C   UNL     1      -1.434  -0.533   0.011  0.00  0.00    -0.016 C 
ATOM     20  C   UNL     1      -1.408  -2.064   0.003  0.00  0.00    -0.003 C 
ATOM     21  C   UNL     1      -0.600  -2.558   1.206  0.00  0.00    -0.019 C 
ATOM     22  C   UNL     1       0.805  -1.954   1.152  0.00  0.00    -0.078 C 
ATOM     23  N   UNL     1       0.713  -0.490   1.191  0.00  0.00    +0.381 N 
ATOM     24  H   UNL     1       0.213  -0.206   2.020  0.00  0.00    -0.081 HD
ENDBRANCH  16  23
ENDBRANCH  15  16
ENDBRANCH  14  15
ENDBRANCH   1  14
TORSDOF 4
