REMARK  Name = ZINC50913781
REMARK  3 active torsions:
REMARK  status: ('A' for Active; 'I' for Inactive)
REMARK    1  A    between atoms: N_8  and  S_10
REMARK    2  A    between atoms: S_10  and  C_13
REMARK    3  A    between atoms: C_14  and  N_21
REMARK                            x       y       z     vdW  Elec       q    Type
REMARK                         _______ _______ _______ _____ _____    ______ ____
ROOT
ATOM      1  S   UNL     1       3.825  -3.729  -0.053  0.00  0.00    +0.081 S 
ATOM      2  O   UNL     1       5.107  -3.445   0.488  0.00  0.00    -0.151 OA
ATOM      3  O   UNL     1       2.967  -4.718   0.501  0.00  0.00    -0.151 OA
ENDROOT
BRANCH   1  11
ATOM      4  C   UNL     1      -0.017   1.377   0.010  0.00  0.00    +0.000 A 
ATOM      5  C   UNL     1       1.172   2.084   0.002  0.00  0.00    +0.000 A 
ATOM      6  C   UNL     1       2.376   1.408  -0.013  0.00  0.00    +0.005 A 
ATOM      7  C   UNL     1       2.396   0.024  -0.021  0.00  0.00    -0.027 A 
ATOM      8  C   UNL     1       1.209  -0.682  -0.013  0.00  0.00    -0.027 A 
ATOM      9  C   UNL     1       0.002  -0.004   0.002  0.00  0.00    +0.005 A 
ATOM     10  C   UNL     1       1.519  -2.158  -0.023  0.00  0.00    +0.145 C 
ATOM     11  N   UNL     1       2.978  -2.306  -0.037  0.00  0.00    -0.166 NA
ATOM     12  C   UNL     1       3.544  -0.953  -0.036  0.00  0.00    +0.145 C 
ENDBRANCH   1  11
BRANCH   1  13
ATOM     13  C   UNL     1       4.075  -4.168  -1.741  0.00  0.00    +0.221 A 
ATOM     14  C   UNL     1       3.251  -4.918  -2.500  0.00  0.00    +0.163 A 
ATOM     15  N   UNL     1       3.789  -5.027  -3.727  0.00  0.00    -0.205 NA
ATOM     16  C   UNL     1       4.915  -4.373  -3.755  0.00  0.00    +0.181 A 
ATOM     17  N   UNL     1       5.162  -3.798  -2.538  0.00  0.00    -0.276 N 
ATOM     18  C   UNL     1       6.322  -3.064  -2.417  0.00  0.00    +0.102 A 
ATOM     19  C   UNL     1       7.153  -2.927  -3.449  0.00  0.00    +0.067 A 
ATOM     20  S   UNL     1       6.326  -3.876  -4.716  0.00  0.00    -0.058 S 
BRANCH  14  21
ATOM     21  N   UNL     1       2.038  -5.488  -2.081  0.00  0.00    -0.340 N 
ATOM     22  H   UNL     1       1.728  -5.354  -1.171  0.00  0.00    +0.144 HD
ATOM     23  H   UNL     1       1.510  -6.014  -2.701  0.00  0.00    +0.144 HD
ENDBRANCH  14  21
ENDBRANCH   1  13
TORSDOF 3
