REMARK  Name = ZINC14981038
REMARK  11 active torsions:
REMARK  status: ('A' for Active; 'I' for Inactive)
REMARK    1  A    between atoms: C_1  and  C_2
REMARK    2  A    between atoms: C_5  and  C_9
REMARK    3  A    between atoms: C_6  and  C_8
REMARK    4  A    between atoms: C_9  and  N_72
REMARK    5  A    between atoms: C_12  and  C_15
REMARK    6  A    between atoms: C_12  and  O_36
REMARK    7  A    between atoms: C_22  and  C_24
REMARK    8  A    between atoms: N_26  and  C_27
REMARK    9  A    between atoms: N_26  and  C_28
REMARK   10  A    between atoms: C_28  and  C_29
REMARK   11  A    between atoms: C_29  and  C_30
REMARK                            x       y       z     vdW  Elec       q    Type
REMARK                         _______ _______ _______ _____ _____    ______ ____
ROOT
ATOM      1  C   UNL     1      -5.184  13.704  -0.703  0.00  0.00    -0.015 A 
ATOM      2  C   UNL     1      -3.966  13.732  -1.368  0.00  0.00    +0.010 A 
ATOM      3  C   UNL     1      -3.249  12.573  -1.574  0.00  0.00    +0.047 A 
ATOM      4  C   UNL     1      -3.747  11.360  -1.112  0.00  0.00    +0.136 A 
ATOM      5  C   UNL     1      -4.982  11.338  -0.438  0.00  0.00    +0.021 A 
ATOM      6  C   UNL     1      -5.693  12.524  -0.240  0.00  0.00    +0.018 A 
ATOM      7  C   UNL     1      -5.218   9.937  -0.089  0.00  0.00    +0.063 A 
ATOM      8  C   UNL     1      -4.147   9.247  -0.560  0.00  0.00    +0.191 A 
ATOM      9  O   UNL     1      -3.284  10.095  -1.156  0.00  0.00    -0.450 OA
ENDROOT
BRANCH   1  12
ATOM     10  C   UNL     1      -5.755  17.459  -0.227  0.00  0.00    -0.075 C 
ATOM     11  C   UNL     1      -4.969  16.155  -0.382  0.00  0.00    +0.021 C 
ATOM     12  C   UNL     1      -5.950  14.984  -0.490  0.00  0.00    +0.088 C 
ATOM     13  C   UNL     1      -6.889  15.221  -1.676  0.00  0.00    +0.021 C 
ATOM     14  C   UNL     1      -7.618  16.553  -1.484  0.00  0.00    -0.075 C 
ATOM     15  N   UNL     1      -6.620  17.642  -1.412  0.00  0.00    +0.383 N 
ATOM     16  H   UNL     1      -6.037  17.616  -2.257  0.00  0.00    -0.081 HD
BRANCH  12  17
ATOM     17  O   UNL     1      -6.715  14.889   0.713  0.00  0.00    -0.384 OA
ATOM     18  H   UNL     1      -7.359  14.168   0.714  0.00  0.00    +0.211 HD
ENDBRANCH  12  17
BRANCH  15  19
ATOM     19  C   UNL     1      -7.304  18.950  -1.341  0.00  0.00    -0.043 C 
BRANCH  19  24
ATOM     20  C   UNL     1     -10.979  19.397  -5.778  0.00  0.00    +0.044 C 
ATOM     21  C   UNL     1     -10.021  19.280  -4.621  0.00  0.00    -0.050 A 
ATOM     22  C   UNL     1     -10.500  19.027  -3.349  0.00  0.00    +0.003 A 
ATOM     23  C   UNL     1      -9.621  18.920  -2.288  0.00  0.00    +0.002 A 
ATOM     24  C   UNL     1      -8.262  19.066  -2.498  0.00  0.00    -0.061 A 
ATOM     25  C   UNL     1      -7.784  19.324  -3.769  0.00  0.00    -0.049 A 
ATOM     26  C   UNL     1      -8.662  19.426  -4.831  0.00  0.00    +0.007 A 
ATOM     27  C   UNL     1      -6.303  19.489  -3.997  0.00  0.00    +0.044 C 
ENDBRANCH  19  24
ENDBRANCH  15  19
ENDBRANCH   1  12
BRANCH   8  28
ATOM     28  C   UNL     1      -3.955   7.795  -0.434  0.00  0.00    +0.282 C 
ATOM     29  O   UNL     1      -4.837   7.104   0.040  0.00  0.00    -0.267 OA
ATOM     30  N   UNL     1      -2.803   7.230  -0.844  0.00  0.00    -0.298 N 
ATOM     31  C   UNL     1      -1.696   8.073  -1.305  0.00  0.00    +0.132 C 
BRANCH  30  32
ATOM     32  C   UNL     1      -2.655   5.772  -0.829  0.00  0.00    +0.114 C 
BRANCH  32  33
ATOM     33  C   UNL     1      -2.093   5.331   0.524  0.00  0.00    +0.074 C 
BRANCH  33  34
ATOM     34  C   UNL     1      -1.941   3.831   0.540  0.00  0.00    +0.043 A 
ATOM     35  C   UNL     1      -0.713   3.272   0.839  0.00  0.00    +0.023 A 
ATOM     36  C   UNL     1      -0.585   1.892   0.852  0.00  0.00    +0.003 A 
ATOM     37  C   UNL     1      -1.701   1.122   0.561  0.00  0.00    +0.020 A 
ATOM     38  C   UNL     1      -2.895   1.752   0.265  0.00  0.00    +0.111 A 
ATOM     39  N   UNL     1      -2.982   3.068   0.269  0.00  0.00    -0.260 NA
ENDBRANCH  33  34
ENDBRANCH  32  33
ENDBRANCH  30  32
ENDBRANCH   8  28
TORSDOF 8
