REMARK  Name = ZINC38783155
REMARK  4 active torsions:
REMARK  status: ('A' for Active; 'I' for Inactive)
REMARK    1  A    between atoms: C_4  and  C_7
REMARK    2  A    between atoms: C_10  and  S_13
REMARK    3  A    between atoms: S_13  and  C_14
REMARK    4  A    between atoms: C_17  and  C_24
REMARK                            x       y       z     vdW  Elec       q    Type
REMARK                         _______ _______ _______ _____ _____    ______ ____
ROOT
ATOM      1  C   UNL     1       7.727  -3.474  -0.097  0.00  0.00    +0.123 C 
ATOM      2  N   UNL     1       8.112  -2.227  -0.081  0.00  0.00    -0.169 NA
ATOM      3  N   UNL     1       9.466  -1.885  -0.087  0.00  0.00    -0.174 N 
ATOM      4  C   UNL     1      10.156  -0.586  -0.074  0.00  0.00    +0.303 C 
ATOM      5  N   UNL     1      11.585  -0.940  -0.091  0.00  0.00    -0.237 N 
ATOM      6  N   UNL     1      11.642  -2.337  -0.112  0.00  0.00    -0.168 NA
ATOM      7  C   UNL     1      10.447  -2.866  -0.109  0.00  0.00    +0.160 C 
ATOM      8  C   UNL     1      10.025  -4.274  -0.126  0.00  0.00    +0.049 C 
ATOM      9  C   UNL     1       8.704  -4.559  -0.115  0.00  0.00    +0.040 C 
ATOM     10  H   UNL     1      12.337  -0.327  -0.089  0.00  0.00    +0.170 HD
ENDROOT
BRANCH   4  11
ATOM     11  C   UNL     1       9.808   0.193   1.196  0.00  0.00    +0.427 C 
ATOM     12  F   UNL     1      10.205  -0.543   2.318  0.00  0.00    -0.167 F 
ATOM     13  F   UNL     1      10.475   1.423   1.186  0.00  0.00    -0.167 F 
ATOM     14  F   UNL     1       8.427   0.411   1.246  0.00  0.00    -0.167 F 
ENDBRANCH   4  11
BRANCH   1  15
ATOM     15  S   UNL     1       6.006  -3.853  -0.088  0.00  0.00    -0.031 S 
BRANCH  15  19
ATOM     16  C   UNL     1       3.695  -0.684  -0.038  0.00  0.00    +0.067 A 
ATOM     17  C   UNL     1       4.934  -0.126  -0.042  0.00  0.00    +0.139 A 
ATOM     18  N   UNL     1       5.838  -1.114  -0.059  0.00  0.00    -0.229 NA
ATOM     19  C   UNL     1       5.222  -2.275  -0.066  0.00  0.00    +0.173 A 
ATOM     20  N   UNL     1       3.879  -2.056  -0.048  0.00  0.00    -0.333 N 
ATOM     21  H   UNL     1       3.183  -2.732  -0.044  0.00  0.00    +0.168 HD
BRANCH  16  25
ATOM     22  C   UNL     1      -0.017   1.379   0.010  0.00  0.00    +0.000 A 
ATOM     23  C   UNL     1       1.168   2.094   0.002  0.00  0.00    +0.001 A 
ATOM     24  C   UNL     1       2.377   1.430  -0.013  0.00  0.00    +0.010 A 
ATOM     25  C   UNL     1       2.404   0.034  -0.021  0.00  0.00    -0.000 A 
ATOM     26  C   UNL     1       1.204  -0.681  -0.013  0.00  0.00    +0.010 A 
ATOM     27  C   UNL     1       0.002  -0.004   0.002  0.00  0.00    +0.001 A 
ENDBRANCH  16  25
ENDBRANCH  15  19
ENDBRANCH   1  15
TORSDOF 4
