REMARK  Name = ZINC65404943
REMARK  6 active torsions:
REMARK  status: ('A' for Active; 'I' for Inactive)
REMARK    1  A    between atoms: N_14  and  C_15
REMARK    2  A    between atoms: C_15  and  C_16
REMARK    3  A    between atoms: C_16  and  C_18
REMARK    4  A    between atoms: C_16  and  O_26
REMARK    5  A    between atoms: C_18  and  O_19
REMARK    6  A    between atoms: O_19  and  C_20
REMARK                            x       y       z     vdW  Elec       q    Type
REMARK                         _______ _______ _______ _____ _____    ______ ____
ROOT
ATOM      1  C   UNL     1      -0.016   1.354   0.009  0.00  0.00    +0.203 A 
ATOM      2  N   UNL     1       1.092   2.045   0.003  0.00  0.00    -0.230 NA
ATOM      3  C   UNL     1       2.276   1.439  -0.012  0.00  0.00    +0.116 A 
ATOM      4  C   UNL     1       2.396   0.039  -0.021  0.00  0.00    +0.076 A 
ATOM      5  C   UNL     1       3.759  -0.483  -0.038  0.00  0.00    -0.020 A 
ATOM      6  C   UNL     1       4.764   0.420  -0.042  0.00  0.00    +0.010 A 
ATOM      7  S   UNL     1       3.961   1.998  -0.026  0.00  0.00    -0.072 S 
ATOM      8  C   UNL     1       6.231   0.124  -0.057  0.00  0.00    +0.124 C 
ATOM      9  N   UNL     1       6.419  -1.298   0.291  0.00  0.00    -0.311 NA
ATOM     10  C   UNL     1       5.530  -2.149  -0.512  0.00  0.00    +0.086 C 
ATOM     11  C   UNL     1       4.080  -1.976  -0.052  0.00  0.00    +0.052 C 
ATOM     12  C   UNL     1       1.161  -0.689  -0.013  0.00  0.00    +0.262 A 
ATOM     13  O   UNL     1       1.160  -1.908  -0.019  0.00  0.00    -0.267 OA
ATOM     14  N   UNL     1       0.002  -0.004   0.002  0.00  0.00    -0.296 N 
ATOM     15  H   UNL     1       7.383  -1.573   0.178  0.00  0.00    +0.122 HD
ENDROOT
BRANCH  14  16
ATOM     16  C   UNL     1      -1.265  -0.739   0.010  0.00  0.00    +0.160 C 
BRANCH  16  17
ATOM     17  C   UNL     1      -1.720  -0.987  -1.429  0.00  0.00    +0.160 C 
BRANCH  17  18
ATOM     18  O   UNL     1      -0.787  -1.850  -2.082  0.00  0.00    -0.388 OA
ATOM     19  H   UNL     1      -0.690  -2.715  -1.660  0.00  0.00    +0.210 HD
ENDBRANCH  17  18
BRANCH  17  20
ATOM     20  C   UNL     1      -3.103  -1.643  -1.421  0.00  0.00    +0.193 C 
BRANCH  20  21
ATOM     21  O   UNL     1      -3.578  -1.768  -2.763  0.00  0.00    -0.374 OA
BRANCH  21  22
ATOM     22  C   UNL     1      -4.869  -2.373  -2.868  0.00  0.00    +0.118 C 
ATOM     23  C   UNL     1      -4.713  -3.889  -3.003  0.00  0.00    +0.031 C 
ATOM     24  C   UNL     1      -6.095  -4.536  -3.115  0.00  0.00    +0.003 C 
ATOM     25  C   UNL     1      -6.816  -3.986  -4.348  0.00  0.00    +0.000 C 
ATOM     26  C   UNL     1      -6.972  -2.470  -4.213  0.00  0.00    +0.003 C 
ATOM     27  C   UNL     1      -5.590  -1.823  -4.101  0.00  0.00    +0.031 C 
ENDBRANCH  21  22
ENDBRANCH  20  21
ENDBRANCH  17  20
ENDBRANCH  16  17
ENDBRANCH  14  16
TORSDOF 6
