REMARK  Name = ZINC01334243
REMARK  14 active torsions:
REMARK  status: ('A' for Active; 'I' for Inactive)
REMARK    1  A    between atoms: C_1  and  C_2
REMARK    2  A    between atoms: C_2  and  C_3
REMARK    3  A    between atoms: C_2  and  C_4
REMARK    4  A    between atoms: C_4  and  C_6
REMARK    5  A    between atoms: C_4  and  N_19
REMARK    6  A    between atoms: N_10  and  C_11
REMARK    7  A    between atoms: C_11  and  C_12
REMARK    8  A    between atoms: C_12  and  C_13
REMARK    9  A    between atoms: N_19  and  C_20
REMARK   10  A    between atoms: N_19  and  C_30
REMARK   11  A    between atoms: C_20  and  C_21
REMARK   12  A    between atoms: C_30  and  C_31
REMARK   13  A    between atoms: C_35  and  O_43
REMARK   14  A    between atoms: O_43  and  C_44
REMARK                            x       y       z     vdW  Elec       q    Type
REMARK                         _______ _______ _______ _____ _____    ______ ____
ROOT
ATOM      1  N   UNL     1      -1.216  -2.124   0.561  0.00  0.00    -0.284 NA
ENDROOT
BRANCH   1   2
ATOM      2  C   UNL     1      -1.346  -0.853  -0.164  0.00  0.00    +0.130 C 
BRANCH   2   3
ATOM      3  C   UNL     1      -1.957  -1.107  -1.517  0.00  0.00    +0.169 A 
ATOM      4  N   UNL     1      -1.544  -1.970  -2.413  0.00  0.00    -0.112 NA
ATOM      5  N   UNL     1      -2.326  -1.890  -3.434  0.00  0.00    -0.023 NA
ATOM      6  N   UNL     1      -3.228  -0.999  -3.212  0.00  0.00    -0.044 NA
ATOM      7  N   UNL     1      -3.038  -0.497  -2.039  0.00  0.00    -0.227 N 
BRANCH   7   8
ATOM      8  C   UNL     1      -3.844   0.544  -1.396  0.00  0.00    +0.152 C 
BRANCH   8   9
ATOM      9  C   UNL     1      -3.384   1.919  -1.883  0.00  0.00    +0.058 C 
BRANCH   9  10
ATOM     10  C   UNL     1      -4.136   2.993  -1.139  0.00  0.00    -0.046 A 
ATOM     11  C   UNL     1      -5.335   3.468  -1.637  0.00  0.00    +0.004 A 
ATOM     12  C   UNL     1      -6.024   4.453  -0.956  0.00  0.00    +0.000 A 
ATOM     13  C   UNL     1      -5.516   4.962   0.225  0.00  0.00    +0.000 A 
ATOM     14  C   UNL     1      -4.317   4.486   0.723  0.00  0.00    +0.000 A 
ATOM     15  C   UNL     1      -3.630   3.498   0.043  0.00  0.00    +0.004 A 
ENDBRANCH   9  10
ENDBRANCH   8   9
ENDBRANCH   7   8
ENDBRANCH   2   3
BRANCH   2  17
ATOM     16  C   UNL     1       0.749  -0.875  -1.526  0.00  0.00    +0.009 C 
ATOM     17  C   UNL     1       0.037  -0.222  -0.339  0.00  0.00    +0.008 C 
ATOM     18  C   UNL     1      -0.117   1.278  -0.599  0.00  0.00    +0.009 C 
ENDBRANCH   2  17
ENDBRANCH   1   2
BRANCH   1  19
ATOM     19  C   UNL     1      -0.205  -2.986  -0.066  0.00  0.00    +0.120 C 
BRANCH  19  20
ATOM     20  C   UNL     1      -0.386  -4.403   0.414  0.00  0.00    -0.030 A 
ATOM     21  C   UNL     1       0.208  -4.814   1.593  0.00  0.00    +0.009 A 
ATOM     22  C   UNL     1       0.044  -6.112   2.038  0.00  0.00    +0.050 A 
ATOM     23  C   UNL     1      -0.716  -7.006   1.302  0.00  0.00    +0.166 A 
ATOM     24  C   UNL     1      -1.315  -6.593   0.114  0.00  0.00    +0.167 A 
ATOM     25  C   UNL     1      -1.151  -5.288  -0.322  0.00  0.00    +0.054 A 
ATOM     26  O   UNL     1      -2.002  -7.646  -0.417  0.00  0.00    -0.453 OA
ATOM     27  C   UNL     1      -1.483  -8.816   0.242  0.00  0.00    +0.466 C 
ATOM     28  O   UNL     1      -1.028  -8.318   1.514  0.00  0.00    -0.453 OA
ENDBRANCH  19  20
ENDBRANCH   1  19
BRANCH   1  29
ATOM     29  C   UNL     1      -0.904  -1.892   1.978  0.00  0.00    +0.126 C 
BRANCH  29  30
ATOM     30  C   UNL     1      -2.150  -1.446   2.700  0.00  0.00    +0.031 A 
ATOM     31  C   UNL     1      -2.929  -2.358   3.330  0.00  0.00    +0.020 A 
ATOM     32  C   UNL     1      -4.132  -1.893   4.022  0.00  0.00    +0.002 A 
ATOM     33  C   UNL     1      -4.974  -2.789   4.690  0.00  0.00    +0.055 A 
ATOM     34  C   UNL     1      -6.100  -2.316   5.332  0.00  0.00    +0.121 A 
ATOM     35  C   UNL     1      -6.399  -0.955   5.318  0.00  0.00    +0.047 A 
ATOM     36  C   UNL     1      -5.578  -0.063   4.664  0.00  0.00    +0.030 A 
ATOM     37  C   UNL     1      -4.438  -0.519   4.010  0.00  0.00    +0.049 A 
ATOM     38  N   UNL     1      -3.603   0.359   3.349  0.00  0.00    -0.322 N 
ATOM     39  H   UNL     1      -3.814   1.306   3.341  0.00  0.00    +0.169 HD
ATOM     40  C   UNL     1      -2.497  -0.078   2.722  0.00  0.00    +0.254 A 
ATOM     41  O   UNL     1      -1.780   0.727   2.153  0.00  0.00    -0.268 OA
BRANCH  34  42
ATOM     42  O   UNL     1      -6.922  -3.182   5.983  0.00  0.00    -0.495 OA
ATOM     43  C   UNL     1      -8.070  -2.627   6.627  0.00  0.00    +0.277 C 
ENDBRANCH  34  42
ENDBRANCH  29  30
ENDBRANCH   1  29
TORSDOF 11
