REMARK  Name = ZINC31044146
REMARK  9 active torsions:
REMARK  status: ('A' for Active; 'I' for Inactive)
REMARK    1  A    between atoms: C_1  and  C_2
REMARK    2  A    between atoms: C_2  and  C_3
REMARK    3  A    between atoms: C_3  and  C_5
REMARK    4  A    between atoms: C_3  and  N_12
REMARK    5  A    between atoms: C_10  and  C_11
REMARK    6  A    between atoms: C_13  and  C_15
REMARK    7  A    between atoms: N_20  and  C_22
REMARK    8  A    between atoms: C_22  and  C_23
REMARK    9  A    between atoms: C_25  and  C_28
REMARK                            x       y       z     vdW  Elec       q    Type
REMARK                         _______ _______ _______ _____ _____    ______ ____
ROOT
ATOM      1  C   UNL     1       6.864   1.080   1.780  0.00  0.00    +0.058 C 
ATOM      2  C   UNL     1       7.539   0.277   0.664  0.00  0.00    +0.009 C 
ATOM      3  C   UNL     1       8.690  -0.540   1.258  0.00  0.00    -0.018 C 
ATOM      4  C   UNL     1       9.676   0.405   1.949  0.00  0.00    -0.078 C 
ATOM      5  N   UNL     1       8.983   1.149   3.008  0.00  0.00    +0.386 N 
ATOM      6  C   UNL     1       7.904   1.978   2.455  0.00  0.00    -0.065 C 
ATOM      7  H   UNL     1       8.527   0.416   3.690  0.00  0.00    -0.081 HD
ENDROOT
BRANCH   1   9
ATOM      8  N   UNL     1       4.738   1.353   0.546  0.00  0.00    -0.308 N 
ATOM      9  C   UNL     1       5.768   1.932   1.194  0.00  0.00    +0.215 C 
ATOM     10  O   UNL     1       5.813   3.139   1.306  0.00  0.00    -0.276 OA
ATOM     11  H   UNL     1       4.697   0.259   0.445  0.00  0.00    +0.149 HD
BRANCH   8  12
ATOM     12  C   UNL     1       3.672   2.182  -0.023  0.00  0.00    +0.103 C 
BRANCH  12  13
ATOM     13  C   UNL     1       2.619   2.435   1.025  0.00  0.00    -0.024 A 
ATOM     14  C   UNL     1       2.444   1.536   2.061  0.00  0.00    +0.006 A 
ATOM     15  C   UNL     1       1.478   1.767   3.021  0.00  0.00    +0.000 A 
ATOM     16  C   UNL     1       0.686   2.898   2.946  0.00  0.00    +0.000 A 
ATOM     17  C   UNL     1       0.860   3.797   1.911  0.00  0.00    +0.004 A 
ATOM     18  C   UNL     1       1.827   3.565   0.950  0.00  0.00    -0.046 A 
ATOM     19  C   UNL     1       2.018   4.545  -0.178  0.00  0.00    +0.044 C 
ENDBRANCH  12  13
BRANCH  12  21
ATOM     20  C   UNL     1       4.081   1.310  -2.328  0.00  0.00    +0.006 C 
ATOM     21  C   UNL     1       3.043   1.456  -1.214  0.00  0.00    +0.024 C 
ENDBRANCH  12  21
ENDBRANCH   8  12
ENDBRANCH   1   9
BRANCH   5  22
ATOM     22  C   UNL     1       9.928   1.964   3.784  0.00  0.00    +0.022 C 
BRANCH  22  23
ATOM     23  C   UNL     1      11.140   1.137   4.125  0.00  0.00    +0.211 A 
ATOM     24  N   UNL     1      12.229   1.018   3.406  0.00  0.00    -0.193 NA
ATOM     25  C   UNL     1      13.036   0.187   4.104  0.00  0.00    +0.202 A 
ATOM     26  N   UNL     1      12.393  -0.153   5.190  0.00  0.00    -0.056 NA
ATOM     27  O   UNL     1      11.306   0.383   5.216  0.00  0.00    -0.340 OA
BRANCH  25  28
ATOM     28  C   UNL     1      14.395  -0.259   3.707  0.00  0.00    +0.023 A 
ATOM     29  C   UNL     1      14.955   0.184   2.511  0.00  0.00    +0.013 A 
ATOM     30  C   UNL     1      16.221  -0.229   2.150  0.00  0.00    +0.016 A 
ATOM     31  C   UNL     1      16.930  -1.091   2.968  0.00  0.00    +0.018 A 
ATOM     32  C   UNL     1      16.375  -1.539   4.155  0.00  0.00    +0.016 A 
ATOM     33  C   UNL     1      15.112  -1.127   4.527  0.00  0.00    +0.013 A 
ATOM     34 BR   UNL     1      18.661  -1.659   2.463  0.00  0.00    -0.050 Br
ENDBRANCH  25  28
ENDBRANCH  22  23
ENDBRANCH   5  22
TORSDOF 7
