REMARK  Name = ZINC22386246
REMARK  5 active torsions:
REMARK  status: ('A' for Active; 'I' for Inactive)
REMARK    1  A    between atoms: C_5  and  C_7
REMARK    2  A    between atoms: C_7  and  N_8
REMARK    3  A    between atoms: N_14  and  C_17
REMARK    4  A    between atoms: C_17  and  C_18
REMARK    5  A    between atoms: C_23  and  C_28
REMARK                            x       y       z     vdW  Elec       q    Type
REMARK                         _______ _______ _______ _____ _____    ______ ____
ROOT
ATOM      1  N   UNL     1       1.129   3.003   0.007  0.00  0.00    -0.295 N 
ATOM      2  C   UNL     1       1.147   1.655   0.000  0.00  0.00    +0.302 C 
ATOM      3  O   UNL     1       0.107   1.033   0.098  0.00  0.00    -0.253 OA
ATOM      4  N   UNL     1       2.318   0.998  -0.116  0.00  0.00    -0.289 N 
ATOM      5  C   UNL     1       2.352  -0.468  -0.230  0.00  0.00    +0.091 C 
ATOM      6  C   UNL     1       3.211  -0.837  -1.450  0.00  0.00    -0.059 C 
ATOM      7  N   UNL     1       4.526  -0.192  -1.329  0.00  0.00    +0.386 N 
ATOM      8  C   UNL     1       4.405   1.272  -1.345  0.00  0.00    -0.059 C 
ATOM      9  C   UNL     1       3.595   1.727  -0.127  0.00  0.00    +0.091 C 
ATOM     10  H   UNL     1       2.074   3.566  -0.002  0.00  0.00    +0.151 HD
ATOM     11  H   UNL     1       4.952  -0.482  -0.358  0.00  0.00    -0.081 HD
ENDROOT
BRANCH   1  12
ATOM     12  C   UNL     1      -0.150   3.718   0.028  0.00  0.00    +0.144 C 
BRANCH  12  17
ATOM     13  C   UNL     1       0.264   7.271   1.237  0.00  0.00    +0.000 A 
ATOM     14  C   UNL     1       0.574   7.930   0.061  0.00  0.00    +0.003 A 
ATOM     15  C   UNL     1       0.650   7.227  -1.126  0.00  0.00    +0.038 A 
ATOM     16  C   UNL     1       0.416   5.862  -1.138  0.00  0.00    +0.128 A 
ATOM     17  C   UNL     1       0.105   5.203   0.039  0.00  0.00    +0.005 A 
ATOM     18  C   UNL     1       0.025   5.910   1.225  0.00  0.00    +0.008 A 
ATOM     19  F   UNL     1       0.489   5.174  -2.299  0.00  0.00    -0.205 F 
ENDBRANCH  12  17
ENDBRANCH   1  12
BRANCH   7  20
ATOM     20  C   UNL     1       5.438  -0.657  -2.383  0.00  0.00    -0.003 C 
BRANCH  20  21
ATOM     21  C   UNL     1       5.729  -2.122  -2.185  0.00  0.00    +0.095 A 
ATOM     22  N   UNL     1       6.552  -2.762  -3.055  0.00  0.00    -0.197 NA
ATOM     23  C   UNL     1       6.841  -4.069  -2.912  0.00  0.00    +0.282 A 
ATOM     24  O   UNL     1       7.586  -4.628  -3.699  0.00  0.00    -0.265 OA
ATOM     25  C   UNL     1       6.258  -4.793  -1.824  0.00  0.00    +0.080 A 
ATOM     26  C   UNL     1       6.411  -6.198  -1.463  0.00  0.00    +0.010 A 
ATOM     27  C   UNL     1       5.750  -6.666  -0.375  0.00  0.00    +0.057 A 
ATOM     28  S   UNL     1       4.881  -5.232   0.229  0.00  0.00    -0.078 S 
ATOM     29  C   UNL     1       5.417  -4.050  -0.980  0.00  0.00    +0.092 A 
ATOM     30  N   UNL     1       5.182  -2.756  -1.183  0.00  0.00    -0.339 N 
ATOM     31  H   UNL     1       4.514  -2.220  -0.492  0.00  0.00    +0.167 HD
BRANCH  26  32
ATOM     32  C   UNL     1       7.269  -7.093  -2.267  0.00  0.00    +0.021 A 
ATOM     33  C   UNL     1       8.259  -7.942  -1.851  0.00  0.00    +0.016 A 
ATOM     34  C   UNL     1       8.930  -8.691  -2.796  0.00  0.00    +0.008 A 
ATOM     35  C   UNL     1       8.596  -8.557  -4.104  0.00  0.00    +0.046 A 
ATOM     36  S   UNL     1       7.288  -7.345  -4.035  0.00  0.00    -0.097 S 
ENDBRANCH  26  32
ENDBRANCH  20  21
ENDBRANCH   7  20
TORSDOF 5
