REMARK  Name = ZINC06931272
REMARK  6 active torsions:
REMARK  status: ('A' for Active; 'I' for Inactive)
REMARK    1  A    between atoms: C_1  and  N_2
REMARK    2  A    between atoms: N_2  and  C_3
REMARK    3  A    between atoms: N_2  and  S_14
REMARK    4  A    between atoms: C_3  and  C_4
REMARK    5  A    between atoms: N_6  and  C_7
REMARK    6  A    between atoms: S_14  and  C_17
REMARK                            x       y       z     vdW  Elec       q    Type
REMARK                         _______ _______ _______ _____ _____    ______ ____
ROOT
ATOM      1  S   UNL     1      -7.927  -0.310  -0.837  0.00  0.00    +0.061 S 
ATOM      2  O   UNL     1      -9.069   0.128  -0.112  0.00  0.00    -0.153 OA
ATOM      3  O   UNL     1      -7.670   0.098  -2.173  0.00  0.00    -0.153 OA
ENDROOT
BRANCH   1   4
ATOM      4  C   UNL     1      -6.519   0.159   0.113  0.00  0.00    +0.106 A 
ATOM      5  C   UNL     1      -6.663   0.351   1.477  0.00  0.00    +0.030 A 
ATOM      6  C   UNL     1      -5.603   0.720   2.287  0.00  0.00    +0.028 A 
ATOM      7  C   UNL     1      -4.366   0.892   1.669  0.00  0.00    +0.047 A 
ATOM      8  C   UNL     1      -4.224   0.694   0.271  0.00  0.00    +0.005 A 
ATOM      9  C   UNL     1      -5.313   0.322  -0.523  0.00  0.00    +0.038 A 
ATOM     10  C   UNL     1      -2.831   0.953  -0.029  0.00  0.00    -0.019 A 
ATOM     11  C   UNL     1      -2.227   1.275   1.135  0.00  0.00    +0.020 A 
ATOM     12  N   UNL     1      -3.140   1.243   2.156  0.00  0.00    -0.358 N 
ATOM     13  H   UNL     1      -2.945   1.440   3.086  0.00  0.00    +0.166 HD
ATOM     14  C   UNL     1      -0.759   1.613   1.254  0.00  0.00    +0.053 C 
ATOM     15  C   UNL     1      -0.042   1.124  -0.010  0.00  0.00    +0.006 C 
ATOM     16  C   UNL     1      -0.792   1.626  -1.247  0.00  0.00    +0.005 C 
ATOM     17  C   UNL     1      -2.131   0.889  -1.363  0.00  0.00    +0.037 C 
ENDBRANCH   1   4
BRANCH   1  19
ATOM     18  C   UNL     1      -8.716  -2.682   0.196  0.00  0.00    +0.132 C 
ATOM     19  N   UNL     1      -7.980  -1.965  -0.849  0.00  0.00    -0.171 NA
BRANCH  19  20
ATOM     20  C   UNL     1      -7.291  -2.712  -1.904  0.00  0.00    +0.205 C 
BRANCH  20  21
ATOM     21  C   UNL     1      -5.923  -3.119  -1.421  0.00  0.00    +0.233 C 
ATOM     22  O   UNL     1      -5.559  -2.814  -0.304  0.00  0.00    -0.274 OA
ATOM     23  N   UNL     1      -5.104  -3.820  -2.228  0.00  0.00    -0.282 N 
ATOM     24  H   UNL     1      -5.418  -4.120  -3.096  0.00  0.00    +0.155 HD
BRANCH  23  25
ATOM     25  C   UNL     1      -3.799  -4.117  -1.815  0.00  0.00    +0.069 A 
ATOM     26  C   UNL     1      -3.534  -4.373  -0.477  0.00  0.00    +0.026 A 
ATOM     27  C   UNL     1      -2.247  -4.672  -0.073  0.00  0.00    +0.002 A 
ATOM     28  C   UNL     1      -1.220  -4.705  -0.999  0.00  0.00    +0.003 A 
ATOM     29  C   UNL     1      -1.478  -4.445  -2.332  0.00  0.00    +0.040 A 
ATOM     30  C   UNL     1      -2.765  -4.151  -2.744  0.00  0.00    +0.144 A 
ATOM     31  F   UNL     1      -3.017  -3.897  -4.047  0.00  0.00    -0.204 F 
ENDBRANCH  23  25
ENDBRANCH  20  21
ENDBRANCH  19  20
ENDBRANCH   1  19
TORSDOF 5
