REMARK  Name = ZINC23422536
REMARK  10 active torsions:
REMARK  status: ('A' for Active; 'I' for Inactive)
REMARK    1  A    between atoms: C_1  and  C_2
REMARK    2  A    between atoms: C_2  and  C_4
REMARK    3  A    between atoms: C_2  and  N_11
REMARK    4  A    between atoms: C_12  and  C_14
REMARK    5  A    between atoms: C_14  and  S_15
REMARK    6  A    between atoms: S_15  and  C_16
REMARK    7  A    between atoms: C_19  and  C_22
REMARK    8  A    between atoms: N_20  and  N_21
REMARK    9  A    between atoms: C_25  and  O_28
REMARK   10  A    between atoms: O_28  and  C_29
REMARK                            x       y       z     vdW  Elec       q    Type
REMARK                         _______ _______ _______ _____ _____    ______ ____
ROOT
ATOM      1  C   UNL     1      -2.740   4.352   0.206  0.00  0.00    +0.209 A 
ATOM      2  N   UNL     1      -3.905   3.746   0.188  0.00  0.00    -0.121 NA
ATOM      3  N   UNL     1      -4.844   4.599  -0.014  0.00  0.00    -0.127 NA
ATOM      4  C   UNL     1      -4.335   5.802  -0.147  0.00  0.00    +0.182 A 
ATOM      5  N   UNL     1      -2.971   5.681  -0.010  0.00  0.00    -0.224 N 
ENDROOT
BRANCH   4   6
ATOM      6  C   UNL     1      -5.085   7.051  -0.397  0.00  0.00    +0.021 A 
ATOM      7  C   UNL     1      -6.462   7.098  -0.169  0.00  0.00    +0.015 A 
ATOM      8  C   UNL     1      -7.157   8.266  -0.399  0.00  0.00    +0.046 A 
ATOM      9  C   UNL     1      -6.492   9.392  -0.866  0.00  0.00    +0.120 A 
ATOM     10  C   UNL     1      -5.123   9.348  -1.099  0.00  0.00    +0.046 A 
ATOM     11  C   UNL     1      -4.420   8.185  -0.867  0.00  0.00    +0.015 A 
BRANCH   9  12
ATOM     12  O   UNL     1      -7.181  10.539  -1.097  0.00  0.00    -0.495 OA
ATOM     13  C   UNL     1      -8.586  10.515  -0.836  0.00  0.00    +0.277 C 
ENDBRANCH   9  12
ENDBRANCH   4   6
BRANCH   5  14
ATOM     14  N   UNL     1      -2.043   6.681  -0.077  0.00  0.00    -0.295 N 
ATOM     15  H   UNL     1      -2.363   7.717  -0.257  0.00  0.00    +0.163 HD
ATOM     16  H   UNL     1      -0.975   6.449   0.051  0.00  0.00    +0.163 HD
ENDBRANCH   5  14
BRANCH   1  17
ATOM     17  S   UNL     1      -1.169   3.591   0.454  0.00  0.00    -0.075 S 
BRANCH  17  18
ATOM     18  C   UNL     1      -1.684   1.869   0.663  0.00  0.00    +0.173 C 
BRANCH  18  20
ATOM     19  N   UNL     1      -0.612  -0.321   1.079  0.00  0.00    -0.308 N 
ATOM     20  C   UNL     1      -0.470   1.007   0.895  0.00  0.00    +0.224 C 
ATOM     21  O   UNL     1       0.635   1.507   0.912  0.00  0.00    -0.275 OA
ATOM     22  H   UNL     1      -1.614  -0.775   1.063  0.00  0.00    +0.149 HD
BRANCH  19  24
ATOM     23  C   UNL     1       1.169  -1.559  -0.051  0.00  0.00    +0.033 C 
ATOM     24  C   UNL     1       0.569  -1.160   1.298  0.00  0.00    +0.100 C 
BRANCH  24  25
ATOM     25  C   UNL     1       0.170  -2.400   2.057  0.00  0.00    -0.027 A 
ATOM     26  C   UNL     1      -1.020  -3.038   1.761  0.00  0.00    +0.006 A 
ATOM     27  C   UNL     1      -1.384  -4.178   2.453  0.00  0.00    +0.015 A 
ATOM     28  C   UNL     1      -0.562  -4.674   3.449  0.00  0.00    +0.018 A 
ATOM     29  C   UNL     1       0.626  -4.032   3.748  0.00  0.00    +0.015 A 
ATOM     30  C   UNL     1       0.992  -2.895   3.052  0.00  0.00    +0.006 A 
ATOM     31 BR   UNL     1      -1.063  -6.229   4.402  0.00  0.00    -0.050 Br
ENDBRANCH  24  25
ENDBRANCH  19  24
ENDBRANCH  18  20
ENDBRANCH  17  18
ENDBRANCH   1  17
TORSDOF 8
