REMARK  Name = ZINC00849625
REMARK  4 active torsions:
REMARK  status: ('A' for Active; 'I' for Inactive)
REMARK    1  A    between atoms: C_6  and  C_27
REMARK    2  A    between atoms: C_7  and  N_9
REMARK    3  A    between atoms: C_10  and  C_12
REMARK    4  A    between atoms: C_12  and  N_13
REMARK                            x       y       z     vdW  Elec       q    Type
REMARK                         _______ _______ _______ _____ _____    ______ ____
ROOT
ATOM      1  N   UNL     1       1.958  -3.300   3.383  0.00  0.00    -0.278 N 
ATOM      2  C   UNL     1       2.879  -3.390   4.363  0.00  0.00    +0.235 C 
ATOM      3  O   UNL     1       3.556  -2.425   4.649  0.00  0.00    -0.274 OA
ATOM      4  H   UNL     1       1.417  -4.072   3.154  0.00  0.00    +0.155 HD
ENDROOT
BRANCH   1  11
ATOM      5  C   UNL     1      -0.019   1.526   0.010  0.00  0.00    +0.005 C 
ATOM      6  C   UNL     1       1.414   2.067  -0.000  0.00  0.00    +0.005 C 
ATOM      7  C   UNL     1       2.067   1.773   1.358  0.00  0.00    +0.043 C 
ATOM      8  C   UNL     1       1.810   0.338   1.702  0.00  0.00    -0.004 A 
ATOM      9  C   UNL     1       0.907  -0.485   1.127  0.00  0.00    -0.018 A 
ATOM     10  C   UNL     1       0.893  -1.829   1.677  0.00  0.00    +0.084 A 
ATOM     11  C   UNL     1       1.783  -2.103   2.702  0.00  0.00    +0.090 A 
ATOM     12  S   UNL     1       2.603  -0.656   2.932  0.00  0.00    -0.077 S 
ATOM     13  C   UNL     1       0.002  -0.004   0.002  0.00  0.00    +0.037 C 
BRANCH  10  14
ATOM     14  C   UNL     1      -0.004  -2.829   1.181  0.00  0.00    +0.102 C 
ATOM     15  N   UNL     1      -0.716  -3.622   0.788  0.00  0.00    -0.191 NA
ENDBRANCH  10  14
ENDBRANCH   1  11
BRANCH   2  16
ATOM     16  C   UNL     1       3.069  -4.689   5.102  0.00  0.00    +0.212 C 
BRANCH  16  17
ATOM     17  N   UNL     1       4.120  -4.529   6.109  0.00  0.00    -0.233 N 
ATOM     18  C   UNL     1       5.428  -4.762   5.855  0.00  0.00    +0.226 C 
ATOM     19  O   UNL     1       5.933  -4.962   4.771  0.00  0.00    -0.275 OA
ATOM     20  C   UNL     1       6.128  -4.723   7.183  0.00  0.00    +0.091 C 
ATOM     21  C   UNL     1       7.575  -4.352   7.172  0.00  0.00    +0.041 C 
ATOM     22  C   UNL     1       7.817  -2.876   7.203  0.00  0.00    -0.011 C 
ATOM     23  C   UNL     1       6.888  -2.010   7.445  0.00  0.00    +0.015 C 
ATOM     24  C   UNL     1       5.455  -2.340   7.676  0.00  0.00    +0.060 C 
ATOM     25  C   UNL     1       5.228  -3.800   8.019  0.00  0.00    +0.093 C 
ATOM     26  C   UNL     1       3.874  -4.131   7.372  0.00  0.00    +0.226 C 
ATOM     27  O   UNL     1       2.786  -4.050   7.901  0.00  0.00    -0.275 OA
ATOM     28 CL   UNL     1       7.347  -0.336   7.505  0.00  0.00    -0.089 Cl
ENDBRANCH  16  17
ENDBRANCH   2  16
TORSDOF 4
