REMARK  Name = ZINC04108904
REMARK  3 active torsions:
REMARK  status: ('A' for Active; 'I' for Inactive)
REMARK    1  A    between atoms: N_4  and  C_6
REMARK    2  A    between atoms: C_9  and  C_12
REMARK    3  A    between atoms: C_12  and  C_13
REMARK                            x       y       z     vdW  Elec       q    Type
REMARK                         _______ _______ _______ _____ _____    ______ ____
ROOT
ATOM      1  C   UNL     1      -1.338   7.927   1.297  0.00  0.00    +0.065 A 
ATOM      2  C   UNL     1      -2.460   7.337   0.730  0.00  0.00    +0.028 A 
ATOM      3  C   UNL     1      -2.592   5.962   0.732  0.00  0.00    +0.006 A 
ATOM      4  C   UNL     1      -1.607   5.173   1.299  0.00  0.00    -0.046 A 
ATOM      5  C   UNL     1      -0.492   5.758   1.869  0.00  0.00    +0.006 A 
ATOM      6  C   UNL     1      -0.352   7.132   1.864  0.00  0.00    +0.028 A 
ENDROOT
BRANCH   1  10
ATOM      7  C   UNL     1      -0.415  11.335   1.611  0.00  0.00    +0.041 A 
ATOM      8  C   UNL     1      -1.644  11.445   0.950  0.00  0.00    +0.135 A 
ATOM      9  N   UNL     1      -2.116  10.239   0.761  0.00  0.00    -0.175 NA
ATOM     10  N   UNL     1      -1.202   9.322   1.296  0.00  0.00    -0.240 N 
ATOM     11  C   UNL     1      -0.168  10.021   1.816  0.00  0.00    +0.114 A 
ENDBRANCH   1  10
BRANCH   4  12
ATOM     12  C   UNL     1      -1.754   3.673   1.300  0.00  0.00    +0.059 C 
BRANCH  12  13
ATOM     13  C   UNL     1      -1.126   3.098   0.029  0.00  0.00    +0.146 C 
ATOM     14  C   UNL     1      -1.183   1.577   0.016  0.00  0.00    +0.234 C 
ATOM     15  O   UNL     1      -2.232   0.969   0.018  0.00  0.00    -0.274 OA
ATOM     16  N   UNL     1      -0.011   0.966   0.007  0.00  0.00    -0.246 N 
ATOM     17  C   UNL     1       1.165   1.621  -0.000  0.00  0.00    +0.279 C 
ATOM     18  O   UNL     1       2.285   1.149  -0.014  0.00  0.00    -0.263 OA
ATOM     19  S   UNL     1       0.695   3.344   0.013  0.00  0.00    -0.054 S 
ATOM     20  H   UNL     1       0.002  -0.004   0.002  0.00  0.00    +0.158 HD
ENDBRANCH  12  13
ENDBRANCH   4  12
TORSDOF 3
