REMARK  Name = ZINC10186803
REMARK  5 active torsions:
REMARK  status: ('A' for Active; 'I' for Inactive)
REMARK    1  A    between atoms: C_4  and  N_17
REMARK    2  A    between atoms: C_5  and  C_7
REMARK    3  A    between atoms: C_18  and  C_20
REMARK    4  A    between atoms: N_23  and  S_26
REMARK    5  A    between atoms: S_26  and  C_29
REMARK                            x       y       z     vdW  Elec       q    Type
REMARK                         _______ _______ _______ _____ _____    ______ ____
ROOT
ATOM      1  N   UNL     1      -1.121   6.147  -2.275  0.00  0.00    -0.285 N 
ATOM      2  C   UNL     1      -0.099   5.275  -2.172  0.00  0.00    +0.220 C 
ATOM      3  O   UNL     1       0.808   5.304  -2.977  0.00  0.00    -0.275 OA
ATOM      4  H   UNL     1      -1.878   6.082  -1.673  0.00  0.00    +0.155 HD
ENDROOT
BRANCH   1   8
ATOM      5  C   UNL     1      -1.026   9.132  -5.189  0.00  0.00    +0.001 A 
ATOM      6  C   UNL     1      -0.492   7.882  -5.453  0.00  0.00    +0.002 A 
ATOM      7  C   UNL     1      -0.516   6.894  -4.488  0.00  0.00    +0.024 A 
ATOM      8  C   UNL     1      -1.089   7.146  -3.249  0.00  0.00    +0.044 A 
ATOM      9  C   UNL     1      -1.631   8.410  -2.979  0.00  0.00    +0.038 A 
ATOM     10  C   UNL     1      -1.594   9.401  -3.962  0.00  0.00    +0.013 A 
BRANCH   9  11
ATOM     11  C   UNL     1      -2.238   8.692  -1.662  0.00  0.00    +0.141 A 
ATOM     12  N   UNL     1      -2.884   9.851  -1.325  0.00  0.00    -0.338 N 
ATOM     13  H   UNL     1      -3.027  10.645  -1.916  0.00  0.00    +0.167 HD
ATOM     14  C   UNL     1      -3.301   9.720  -0.014  0.00  0.00    +0.066 A 
ATOM     15  C   UNL     1      -3.992  10.543   0.864  0.00  0.00    +0.028 A 
ATOM     16  C   UNL     1      -4.261  10.104   2.143  0.00  0.00    +0.002 A 
ATOM     17  C   UNL     1      -3.845   8.847   2.558  0.00  0.00    +0.002 A 
ATOM     18  C   UNL     1      -3.164   8.023   1.709  0.00  0.00    +0.030 A 
ATOM     19  C   UNL     1      -2.880   8.446   0.406  0.00  0.00    +0.089 A 
ATOM     20  N   UNL     1      -2.244   7.868  -0.643  0.00  0.00    -0.228 NA
ENDBRANCH   9  11
ENDBRANCH   1   8
BRANCH   2  21
ATOM     21  C   UNL     1      -0.083   4.262  -1.056  0.00  0.00    +0.078 C 
ATOM     22  C   UNL     1       1.177   3.400  -1.168  0.00  0.00    +0.030 C 
ATOM     23  C   UNL     1       1.206   2.394  -0.013  0.00  0.00    +0.110 C 
ATOM     24  N   UNL     1      -0.049   1.631  -0.017  0.00  0.00    -0.176 NA
ATOM     25  C   UNL     1      -1.322   2.365  -0.009  0.00  0.00    +0.110 C 
ATOM     26  C   UNL     1      -1.323   3.371  -1.159  0.00  0.00    +0.030 C 
BRANCH  24  27
ATOM     27  S   UNL     1      -0.030  -0.025  -0.038  0.00  0.00    +0.067 S 
ATOM     28  O   UNL     1      -1.273  -0.438  -0.589  0.00  0.00    -0.152 OA
ATOM     29  O   UNL     1       1.218  -0.409  -0.599  0.00  0.00    -0.152 OA
BRANCH  27  30
ATOM     30  C   UNL     1      -0.017  -0.567   1.639  0.00  0.00    +0.143 A 
ATOM     31  C   UNL     1      -1.064  -0.836   2.456  0.00  0.00    +0.036 A 
ATOM     32  C   UNL     1      -0.814  -1.257   3.749  0.00  0.00    +0.010 A 
ATOM     33  C   UNL     1       0.471  -1.377   4.164  0.00  0.00    +0.047 A 
ATOM     34  S   UNL     1       1.377  -0.896   2.703  0.00  0.00    -0.077 S 
ENDBRANCH  27  30
ENDBRANCH  24  27
ENDBRANCH   2  21
TORSDOF 5
