REMARK  Name = ZINC33113685
REMARK  12 active torsions:
REMARK  status: ('A' for Active; 'I' for Inactive)
REMARK    1  A    between atoms: C_1  and  C_2
REMARK    2  A    between atoms: C_2  and  C_3
REMARK    3  A    between atoms: C_3  and  C_5
REMARK    4  A    between atoms: C_3  and  O_15
REMARK    5  A    between atoms: N_7  and  C_8
REMARK    6  A    between atoms: C_13  and  C_14
REMARK    7  A    between atoms: O_15  and  C_16
REMARK    8  A    between atoms: C_23  and  N_29
REMARK    9  A    between atoms: C_24  and  C_25
REMARK   10  A    between atoms: C_25  and  O_27
REMARK   11  A    between atoms: O_27  and  C_28
REMARK   12  A    between atoms: C_30  and  C_32
REMARK                            x       y       z     vdW  Elec       q    Type
REMARK                         _______ _______ _______ _____ _____    ______ ____
ROOT
ATOM      1  C   UNL     1      -0.405  -0.406   0.334  0.00  0.00    +0.150 A 
ATOM      2  C   UNL     1      -0.005   0.911   0.159  0.00  0.00    +0.061 A 
ATOM      3  C   UNL     1       1.311   1.263   0.422  0.00  0.00    +0.019 A 
ATOM      4  C   UNL     1       2.223   0.334   0.853  0.00  0.00    +0.011 A 
ATOM      5  C   UNL     1       1.849  -1.015   1.042  0.00  0.00    +0.009 A 
ATOM      6  C   UNL     1       0.511  -1.346   0.768  0.00  0.00    +0.065 A 
ATOM      7  S   UNL     1       0.408  -3.084   1.109  0.00  0.00    -0.069 S 
ATOM      8  C   UNL     1       2.093  -3.381   1.606  0.00  0.00    +0.087 A 
ATOM      9  C   UNL     1       2.684  -2.133   1.494  0.00  0.00    +0.095 A 
ATOM     10 BR   UNL     1      -1.239   2.212  -0.442  0.00  0.00    -0.046 Br
ENDROOT
BRANCH   8  11
ATOM     11  N   UNL     1       2.672  -4.571   2.007  0.00  0.00    -0.280 N 
ATOM     12  C   UNL     1       1.933  -5.697   2.055  0.00  0.00    +0.214 C 
ATOM     13  O   UNL     1       0.761  -5.667   1.747  0.00  0.00    -0.276 OA
ATOM     14  C   UNL     1       2.564  -6.994   2.493  0.00  0.00    +0.109 C 
ATOM     15  H   UNL     1       3.735  -4.598   2.287  0.00  0.00    +0.155 HD
ENDBRANCH   8  11
BRANCH   9  16
ATOM     16  C   UNL     1       4.053  -1.943   1.806  0.00  0.00    +0.342 C 
ATOM     17  O   UNL     1       4.383  -1.649   2.940  0.00  0.00    -0.245 OA
BRANCH  16  18
ATOM     18  O   UNL     1       4.990  -2.087   0.846  0.00  0.00    -0.464 OA
ATOM     19  C   UNL     1       6.351  -1.879   1.232  0.00  0.00    +0.280 C 
ENDBRANCH  16  18
ENDBRANCH   9  16
BRANCH   1  20
ATOM     20  O   UNL     1      -1.690  -0.769   0.080  0.00  0.00    -0.477 OA
BRANCH  20  21
ATOM     21  C   UNL     1      -2.041  -0.999  -1.286  0.00  0.00    +0.259 C 
BRANCH  21  22
ATOM     22  C   UNL     1      -1.719  -2.424  -1.655  0.00  0.00    +0.258 C 
ATOM     23  O   UNL     1      -1.321  -3.195  -0.807  0.00  0.00    -0.271 OA
ATOM     24  N   UNL     1      -1.872  -2.843  -2.927  0.00  0.00    -0.282 N 
ATOM     25  H   UNL     1      -2.146  -2.124  -3.713  0.00  0.00    +0.155 HD
BRANCH  24  26
ATOM     26  C   UNL     1      -1.683  -4.192  -3.247  0.00  0.00    +0.036 A 
ATOM     27  C   UNL     1      -1.754  -5.160  -2.254  0.00  0.00    +0.023 A 
ATOM     28  C   UNL     1      -1.572  -6.490  -2.574  0.00  0.00    +0.002 A 
ATOM     29  C   UNL     1      -1.309  -6.859  -3.881  0.00  0.00    +0.000 A 
ATOM     30  C   UNL     1      -1.232  -5.897  -4.871  0.00  0.00    +0.005 A 
ATOM     31  C   UNL     1      -1.419  -4.565  -4.558  0.00  0.00    -0.029 A 
ATOM     32  C   UNL     1      -1.334  -3.517  -5.638  0.00  0.00    +0.045 C 
ENDBRANCH  24  26
ENDBRANCH  21  22
BRANCH  21  34
ATOM     33  C   UNL     1      -3.845   0.728  -1.223  0.00  0.00    +0.008 C 
ATOM     34  C   UNL     1      -3.538  -0.749  -1.477  0.00  0.00    +0.051 C 
ENDBRANCH  21  34
ENDBRANCH  20  21
ENDBRANCH   1  20
TORSDOF 8
