REMARK  Name = ZINC66903253
REMARK  4 active torsions:
REMARK  status: ('A' for Active; 'I' for Inactive)
REMARK    1  A    between atoms: C_3  and  C_24
REMARK    2  A    between atoms: C_6  and  O_7
REMARK    3  A    between atoms: O_7  and  S_8
REMARK    4  A    between atoms: S_8  and  C_11
REMARK                            x       y       z     vdW  Elec       q    Type
REMARK                         _______ _______ _______ _____ _____    ______ ____
ROOT
ATOM      1  S   UNL     1      -1.712  -1.005  -1.377  0.00  0.00    +0.154 S 
ATOM      2  O   UNL     1      -3.016  -1.536  -1.191  0.00  0.00    -0.131 OA
ATOM      3  O   UNL     1      -1.464   0.144  -2.175  0.00  0.00    -0.131 OA
ENDROOT
BRANCH   1   4
ATOM      4  C   UNL     1      -0.729  -2.305  -2.047  0.00  0.00    +0.163 A 
ATOM      5  C   UNL     1       0.406  -2.006  -2.778  0.00  0.00    +0.039 A 
ATOM      6  C   UNL     1       1.178  -3.022  -3.304  0.00  0.00    -0.024 A 
ATOM      7  C   UNL     1       0.815  -4.347  -3.098  0.00  0.00    +0.039 A 
ATOM      8  C   UNL     1      -0.324  -4.647  -2.364  0.00  0.00    +0.064 A 
ATOM      9  C   UNL     1      -1.091  -3.624  -1.835  0.00  0.00    +0.153 A 
ATOM     10  F   UNL     1      -2.198  -3.914  -1.116  0.00  0.00    -0.203 F 
ATOM     11  N   UNL     1       1.599  -5.376  -3.630  0.00  0.00    -0.285 N 
ATOM     12  C   UNL     1       2.868  -5.139  -4.010  0.00  0.00    +0.218 C 
ATOM     13  O   UNL     1       3.530  -6.039  -4.483  0.00  0.00    -0.275 OA
ATOM     14  C   UNL     1       3.476  -3.772  -3.854  0.00  0.00    +0.101 C 
ATOM     15  C   UNL     1       2.415  -2.699  -4.101  0.00  0.00    +0.046 C 
ATOM     16  H   UNL     1       1.225  -6.266  -3.726  0.00  0.00    +0.155 HD
ENDBRANCH   1   4
BRANCH   1  17
ATOM     17  O   UNL     1      -1.166  -0.696   0.010  0.00  0.00    -0.342 OA
BRANCH  17  23
ATOM     18  C   UNL     1      -0.017   1.386   0.010  0.00  0.00    +0.050 A 
ATOM     19  C   UNL     1       1.164   2.094   0.002  0.00  0.00    +0.025 A 
ATOM     20  C   UNL     1       2.385   1.413  -0.013  0.00  0.00    +0.087 A 
ATOM     21  C   UNL     1       2.401   0.013  -0.021  0.00  0.00    +0.144 A 
ATOM     22  C   UNL     1       1.211  -0.687  -0.013  0.00  0.00    +0.088 A 
ATOM     23  C   UNL     1       0.002  -0.004   0.002  0.00  0.00    +0.160 A 
ATOM     24  F   UNL     1       3.577  -0.651  -0.036  0.00  0.00    -0.204 F 
BRANCH  20  25
ATOM     25  C   UNL     1       3.616   2.146  -0.021  0.00  0.00    +0.102 C 
ATOM     26  N   UNL     1       4.592   2.727  -0.028  0.00  0.00    -0.191 NA
ENDBRANCH  20  25
ENDBRANCH  17  23
ENDBRANCH   1  17
TORSDOF 4
