REMARK  Name = ZINC31874294
REMARK  4 active torsions:
REMARK  status: ('A' for Active; 'I' for Inactive)
REMARK    1  A    between atoms: C_1  and  C_2
REMARK    2  A    between atoms: C_12  and  C_14
REMARK    3  A    between atoms: C_15  and  C_16
REMARK    4  A    between atoms: N_20  and  C_21
REMARK                            x       y       z     vdW  Elec       q    Type
REMARK                         _______ _______ _______ _____ _____    ______ ____
ROOT
ATOM      1  C   UNL     1       1.254  -2.177  -0.161  0.00  0.00    +0.044 C 
ATOM      2  C   UNL     1       1.214  -0.671  -0.136  0.00  0.00    -0.049 A 
ATOM      3  C   UNL     1       2.392   0.062  -0.132  0.00  0.00    +0.005 A 
ATOM      4  C   UNL     1       2.383   1.432  -0.109  0.00  0.00    +0.029 A 
ATOM      5  C   UNL     1       1.163   2.147  -0.089  0.00  0.00    +0.080 A 
ATOM      6  C   UNL     1      -0.017   1.368  -0.093  0.00  0.00    +0.041 A 
ATOM      7  C   UNL     1       0.002  -0.005  -0.116  0.00  0.00    +0.020 A 
ATOM      8  S   UNL     1      -1.289   2.607  -0.071  0.00  0.00    -0.052 S 
ATOM      9  C   UNL     1      -0.212   4.034  -0.049  0.00  0.00    +0.166 A 
ATOM     10  N   UNL     1       0.980   3.485  -0.066  0.00  0.00    -0.225 NA
ATOM     11  N   UNL     1      -0.550   5.375  -0.026  0.00  0.00    -0.261 N 
ATOM     12  C   UNL     1       0.418   6.314  -0.017  0.00  0.00    +0.243 C 
ATOM     13  O   UNL     1       1.589   5.981  -0.029  0.00  0.00    -0.270 OA
ATOM     14  H   UNL     1      -1.608   5.676  -0.014  0.00  0.00    +0.157 HD
ENDROOT
BRANCH  12  15
ATOM     15  C   UNL     1       0.072   7.689   0.007  0.00  0.00    +0.070 C 
ATOM     16  C   UNL     1       1.044   8.630   0.016  0.00  0.00    +0.032 C 
BRANCH  16  17
ATOM     17  C   UNL     1       0.690  10.048  -0.074  0.00  0.00    +0.062 A 
ATOM     18  C   UNL     1      -0.588  10.580  -0.071  0.00  0.00    +0.049 A 
ATOM     19  C   UNL     1      -0.470  11.963  -0.170  0.00  0.00    +0.135 A 
ATOM     20  N   UNL     1       0.800  12.275  -0.241  0.00  0.00    -0.179 NA
ATOM     21  N   UNL     1       1.559  11.099  -0.184  0.00  0.00    -0.267 N 
ATOM     22  C   UNL     1       3.020  11.010  -0.232  0.00  0.00    +0.173 C 
ENDBRANCH  16  17
ENDBRANCH  12  15
TORSDOF 2
