REMARK  Name = ZINC13549099
REMARK  5 active torsions:
REMARK  status: ('A' for Active; 'I' for Inactive)
REMARK    1  A    between atoms: C_5  and  C_7
REMARK    2  A    between atoms: C_7  and  N_8
REMARK    3  A    between atoms: C_10  and  C_17
REMARK    4  A    between atoms: C_19  and  O_35
REMARK    5  A    between atoms: N_23  and  C_26
REMARK                            x       y       z     vdW  Elec       q    Type
REMARK                         _______ _______ _______ _____ _____    ______ ____
ROOT
ATOM      1  C   UNL     1       1.703  -1.275  -4.280  0.00  0.00    +0.028 C 
ATOM      2  C   UNL     1       2.441  -2.374  -3.849  0.00  0.00    +0.097 C 
ATOM      3  C   UNL     1       3.185  -3.217  -4.794  0.00  0.00    +0.218 C 
ATOM      4  N   UNL     1       3.868  -4.246  -4.319  0.00  0.00    -0.127 NA
ATOM      5  C   UNL     1       3.898  -4.535  -3.021  0.00  0.00    +0.340 C 
ATOM      6  O   UNL     1       4.550  -5.499  -2.661  0.00  0.00    -0.250 OA
ATOM      7  N   UNL     1       3.251  -3.822  -2.088  0.00  0.00    -0.188 N 
ATOM      8  C   UNL     1       2.517  -2.740  -2.423  0.00  0.00    +0.263 C 
ATOM      9  O   UNL     1       1.932  -2.090  -1.576  0.00  0.00    -0.269 OA
ENDROOT
BRANCH   1  12
ATOM     10  N   UNL     1      -0.706  -0.224  -1.830  0.00  0.00    -0.342 N 
ATOM     11  C   UNL     1      -0.073  -1.186  -2.522  0.00  0.00    +0.095 A 
ATOM     12  C   UNL     1       0.846  -0.608  -3.385  0.00  0.00    +0.001 A 
ATOM     13  C   UNL     1       0.747   0.850  -3.169  0.00  0.00    +0.007 A 
ATOM     14  C   UNL     1      -0.240   1.026  -2.187  0.00  0.00    +0.050 A 
ATOM     15  C   UNL     1      -0.561   2.313  -1.767  0.00  0.00    +0.026 A 
ATOM     16  C   UNL     1       0.088   3.398  -2.317  0.00  0.00    +0.002 A 
ATOM     17  C   UNL     1       1.062   3.221  -3.288  0.00  0.00    +0.001 A 
ATOM     18  C   UNL     1       1.394   1.953  -3.716  0.00  0.00    +0.010 A 
BRANCH  10  19
ATOM     19  C   UNL     1      -1.746  -0.469  -0.828  0.00  0.00    +0.158 C 
BRANCH  19  24
ATOM     20  C   UNL     1      -5.037   0.959  -2.007  0.00  0.00    +0.000 A 
ATOM     21  C   UNL     1      -5.593  -0.128  -2.656  0.00  0.00    +0.001 A 
ATOM     22  C   UNL     1      -4.903  -1.323  -2.719  0.00  0.00    +0.020 A 
ATOM     23  C   UNL     1      -3.659  -1.436  -2.122  0.00  0.00    +0.046 A 
ATOM     24  C   UNL     1      -3.103  -0.349  -1.472  0.00  0.00    -0.009 A 
ATOM     25  C   UNL     1      -3.792   0.849  -1.415  0.00  0.00    +0.007 A 
ATOM     26 CL   UNL     1      -2.795  -2.940  -2.193  0.00  0.00    -0.083 Cl
ENDBRANCH  19  24
ENDBRANCH  10  19
ENDBRANCH   1  12
BRANCH   7  27
ATOM     27  C   UNL     1       3.342  -4.204  -0.742  0.00  0.00    +0.049 A 
ATOM     28  C   UNL     1       2.439  -5.118  -0.216  0.00  0.00    +0.028 A 
ATOM     29  C   UNL     1       2.527  -5.495   1.110  0.00  0.00    +0.051 A 
ATOM     30  C   UNL     1       3.517  -4.962   1.920  0.00  0.00    +0.166 A 
ATOM     31  C   UNL     1       4.425  -4.045   1.395  0.00  0.00    +0.168 A 
ATOM     32  C   UNL     1       4.339  -3.672   0.064  0.00  0.00    +0.073 A 
ATOM     33  O   UNL     1       5.290  -3.673   2.384  0.00  0.00    -0.453 OA
ATOM     34  C   UNL     1       5.158  -4.677   3.408  0.00  0.00    +0.466 C 
ATOM     35  O   UNL     1       3.814  -5.165   3.237  0.00  0.00    -0.453 OA
ENDBRANCH   7  27
BRANCH   3  36
ATOM     36  O   UNL     1       3.173  -2.947  -6.116  0.00  0.00    -0.493 OA
ATOM     37  H   UNL     1       3.695  -3.564  -6.648  0.00  0.00    +0.294 HD
ENDBRANCH   3  36
TORSDOF 5
