REMARK  Name = ZINC63773239
REMARK  3 active torsions:
REMARK  status: ('A' for Active; 'I' for Inactive)
REMARK    1  A    between atoms: C_10  and  C_11
REMARK    2  A    between atoms: N_14  and  S_17
REMARK    3  A    between atoms: S_17  and  N_20
REMARK                            x       y       z     vdW  Elec       q    Type
REMARK                         _______ _______ _______ _____ _____    ______ ____
ROOT
ATOM      1  C   UNL     1       4.944   0.133  -0.044  0.00  0.00    -0.041 C 
ATOM      2  C   UNL     1       5.304   0.714  -1.166  0.00  0.00    -0.006 C 
ATOM      3  C   UNL     1       6.578   1.498  -1.320  0.00  0.00    +0.138 C 
ATOM      4  N   UNL     1       7.173   1.717   0.006  0.00  0.00    -0.163 NA
ATOM      5  C   UNL     1       7.188   0.576   0.938  0.00  0.00    +0.115 C 
ATOM      6  C   UNL     1       5.734   0.189   1.230  0.00  0.00    +0.052 C 
ENDROOT
BRANCH   1  16
ATOM      7  C   UNL     1      -0.016   1.357   0.009  0.00  0.00    +0.001 A 
ATOM      8  C   UNL     1       1.168   2.090   0.002  0.00  0.00    +0.001 A 
ATOM      9  C   UNL     1       2.379   1.464  -0.013  0.00  0.00    +0.009 A 
ATOM     10  C   UNL     1       2.436   0.064  -0.021  0.00  0.00    -0.010 A 
ATOM     11  C   UNL     1       1.233  -0.683  -0.013  0.00  0.00    -0.017 A 
ATOM     12  C   UNL     1       0.002  -0.004   0.002  0.00  0.00    +0.008 A 
ATOM     13  C   UNL     1       1.289  -2.087  -0.021  0.00  0.00    +0.008 A 
ATOM     14  C   UNL     1       2.494  -2.723  -0.036  0.00  0.00    +0.001 A 
ATOM     15  C   UNL     1       3.685  -2.007  -0.043  0.00  0.00    +0.009 A 
ATOM     16  C   UNL     1       3.676  -0.621  -0.036  0.00  0.00    -0.014 A 
ENDBRANCH   1  16
BRANCH   4  17
ATOM     17  S   UNL     1       7.801   3.188   0.436  0.00  0.00    +0.095 S 
ATOM     18  O   UNL     1       8.750   2.939   1.464  0.00  0.00    -0.141 OA
ATOM     19  O   UNL     1       8.145   3.851  -0.773  0.00  0.00    -0.141 OA
BRANCH  17  20
ATOM     20  N   UNL     1       6.575   4.062   1.124  0.00  0.00    -0.193 NA
ATOM     21  H   UNL     1       5.689   3.675   1.205  0.00  0.00    +0.145 HD
ATOM     22  H   UNL     1       6.742   4.962   1.445  0.00  0.00    +0.145 HD
ENDBRANCH  17  20
ENDBRANCH   4  17
TORSDOF 3
