REMARK  Name = ZINC12210251
REMARK  7 active torsions:
REMARK  status: ('A' for Active; 'I' for Inactive)
REMARK    1  A    between atoms: C_1  and  O_2
REMARK    2  A    between atoms: O_2  and  C_3
REMARK    3  A    between atoms: C_6  and  O_30
REMARK    4  A    between atoms: C_7  and  C_9
REMARK    5  A    between atoms: C_9  and  N_53
REMARK    6  A    between atoms: C_16  and  C_20
REMARK    7  A    between atoms: C_18  and  O_19
REMARK                            x       y       z     vdW  Elec       q    Type
REMARK                         _______ _______ _______ _____ _____    ______ ____
ROOT
ATOM      1  C   UNL     1      -3.581   2.589  -1.722  0.00  0.00    -0.036 C 
ATOM      2  C   UNL     1      -3.858   2.477  -3.205  0.00  0.00    +0.211 C 
ATOM      3  O   UNL     1      -4.949   3.324  -3.584  0.00  0.00    -0.490 OA
ATOM      4  C   UNL     1      -4.616   4.614  -3.865  0.00  0.00    +0.163 A 
ATOM      5  C   UNL     1      -4.186   5.450  -2.852  0.00  0.00    -0.018 A 
ATOM      6  C   UNL     1      -3.812   6.747  -3.124  0.00  0.00    +0.016 A 
ATOM      7  C   UNL     1      -3.887   7.228  -4.434  0.00  0.00    +0.011 A 
ATOM      8  C   UNL     1      -4.339   6.392  -5.456  0.00  0.00    +0.059 A 
ATOM      9  C   UNL     1      -4.702   5.088  -5.173  0.00  0.00    +0.159 A 
ATOM     10  C   UNL     1      -4.159   4.936  -1.425  0.00  0.00    -0.039 C 
ATOM     11  N   UNL     1      -3.080   3.923  -1.329  0.00  0.00    +0.387 N 
ATOM     12  H   UNL     1      -2.320   4.190  -1.964  0.00  0.00    -0.081 HD
ENDROOT
BRANCH   7  13
ATOM     13  C   UNL     1      -3.488   8.619  -4.736  0.00  0.00    +0.110 A 
ATOM     14  N   UNL     1      -3.047   9.548  -3.916  0.00  0.00    -0.239 NA
ATOM     15  C   UNL     1      -2.712  10.784  -4.335  0.00  0.00    +0.079 A 
ATOM     16  C   UNL     1      -2.224  11.866  -3.564  0.00  0.00    +0.029 A 
ATOM     17  C   UNL     1      -1.937  13.062  -4.144  0.00  0.00    +0.002 A 
ATOM     18  C   UNL     1      -2.110  13.271  -5.505  0.00  0.00    +0.001 A 
ATOM     19  C   UNL     1      -2.584  12.240  -6.295  0.00  0.00    +0.017 A 
ATOM     20  C   UNL     1      -2.877  11.029  -5.718  0.00  0.00    +0.040 A 
ATOM     21  S   UNL     1      -3.489   9.469  -6.309  0.00  0.00    -0.067 S 
ENDBRANCH   7  13
BRANCH   9  22
ATOM     22  O   UNL     1      -5.141   4.271  -6.167  0.00  0.00    -0.503 OA
ATOM     23  H   UNL     1      -6.098   4.298  -6.305  0.00  0.00    +0.292 HD
ENDBRANCH   9  22
BRANCH  11  24
ATOM     24  C   UNL     1      -2.557   3.875   0.046  0.00  0.00    -0.039 C 
BRANCH  24  29
ATOM     25  C   UNL     1       0.253   1.381   0.454  0.00  0.00    +0.121 A 
ATOM     26  C   UNL     1       1.329   2.090  -0.057  0.00  0.00    +0.049 A 
ATOM     27  C   UNL     1       1.148   3.374  -0.534  0.00  0.00    +0.049 A 
ATOM     28  C   UNL     1      -0.111   3.956  -0.496  0.00  0.00    +0.118 A 
ATOM     29  C   UNL     1      -1.189   3.245   0.011  0.00  0.00    -0.019 A 
ATOM     30  C   UNL     1      -1.007   1.961   0.487  0.00  0.00    +0.051 A 
BRANCH  25  32
ATOM     31  C   UNL     1       1.755  -0.417   0.860  0.00  0.00    +0.277 C 
ATOM     32  O   UNL     1       0.432   0.118   0.924  0.00  0.00    -0.495 OA
ENDBRANCH  25  32
BRANCH  28  33
ATOM     33  O   UNL     1      -0.289   5.222  -0.960  0.00  0.00    -0.507 OA
ATOM     34  H   UNL     1      -0.512   5.268  -1.899  0.00  0.00    +0.292 HD
ENDBRANCH  28  33
ENDBRANCH  24  29
ENDBRANCH  11  24
TORSDOF 6
