REMARK  Name = ZINC42958683
REMARK  8 active torsions:
REMARK  status: ('A' for Active; 'I' for Inactive)
REMARK    1  A    between atoms: C_1  and  C_2
REMARK    2  A    between atoms: C_2  and  C_3
REMARK    3  A    between atoms: C_3  and  C_5
REMARK    4  A    between atoms: C_3  and  N_21
REMARK    5  A    between atoms: C_5  and  C_7
REMARK    6  A    between atoms: C_5  and  S_14
REMARK    7  A    between atoms: S_14  and  C_15
REMARK    8  A    between atoms: N_19  and  C_20
REMARK                            x       y       z     vdW  Elec       q    Type
REMARK                         _______ _______ _______ _____ _____    ______ ____
ROOT
ATOM      1  C   UNL     1      -1.426  -2.041  -0.248  0.00  0.00    +0.070 C 
ENDROOT
BRANCH   1   2
ATOM      2  C   UNL     1      -2.888  -2.358  -0.430  0.00  0.00    -0.036 A 
ATOM      3  C   UNL     1      -3.623  -1.698  -1.397  0.00  0.00    +0.006 A 
ATOM      4  C   UNL     1      -4.964  -1.988  -1.565  0.00  0.00    +0.015 A 
ATOM      5  C   UNL     1      -5.571  -2.939  -0.764  0.00  0.00    +0.018 A 
ATOM      6  C   UNL     1      -4.835  -3.599   0.204  0.00  0.00    +0.015 A 
ATOM      7  C   UNL     1      -3.493  -3.312   0.367  0.00  0.00    +0.006 A 
ATOM      8 BR   UNL     1      -7.406  -3.336  -0.992  0.00  0.00    -0.050 Br
ENDBRANCH   1   2
BRANCH   1   9
ATOM      9  C   UNL     1      -1.266  -0.564   0.116  0.00  0.00    -0.057 C 
BRANCH   9  10
ATOM     10  N   UNL     1      -2.049  -0.269   1.323  0.00  0.00    +0.381 N 
ATOM     11  H   UNL     1      -1.943   0.705   1.564  0.00  0.00    -0.090 HD
ATOM     12  H   UNL     1      -3.023  -0.469   1.150  0.00  0.00    -0.090 HD
ATOM     13  H   UNL     1      -1.719  -0.842   2.086  0.00  0.00    -0.090 HD
ENDBRANCH   9  10
BRANCH   9  15
ATOM     14  C   UNL     1       0.390   1.240   0.612  0.00  0.00    +0.002 C 
ATOM     15  C   UNL     1       0.211  -0.261   0.380  0.00  0.00    -0.018 C 
ENDBRANCH   9  15
ENDBRANCH   1   9
BRANCH   1  16
ATOM     16  S   UNL     1      -0.537  -2.384  -1.792  0.00  0.00    -0.078 S 
BRANCH  16  17
ATOM     17  C   UNL     1      -0.611  -4.137  -1.946  0.00  0.00    +0.210 A 
ATOM     18  N   UNL     1      -1.112  -4.979  -1.068  0.00  0.00    -0.102 NA
ATOM     19  N   UNL     1      -1.008  -6.186  -1.492  0.00  0.00    -0.022 NA
ATOM     20  N   UNL     1      -0.444  -6.207  -2.651  0.00  0.00    -0.043 NA
ATOM     21  N   UNL     1      -0.169  -4.872  -2.994  0.00  0.00    -0.223 N 
ATOM     22  C   UNL     1       0.462  -4.380  -4.222  0.00  0.00    +0.177 C 
ENDBRANCH  16  17
ENDBRANCH   1  16
TORSDOF 6
