REMARK  Name = ZINC35859806
REMARK  7 active torsions:
REMARK  status: ('A' for Active; 'I' for Inactive)
REMARK    1  A    between atoms: C_1  and  C_2
REMARK    2  A    between atoms: C_9  and  C_11
REMARK    3  A    between atoms: C_14  and  C_16
REMARK    4  A    between atoms: C_16  and  O_17
REMARK    5  A    between atoms: O_17  and  C_18
REMARK    6  A    between atoms: C_24  and  C_32
REMARK    7  A    between atoms: C_29  and  C_31
REMARK                            x       y       z     vdW  Elec       q    Type
REMARK                         _______ _______ _______ _____ _____    ______ ____
ROOT
ATOM      1  C   UNL     1      -0.226  -9.158   3.186  0.00  0.00    +0.121 A 
ATOM      2  C   UNL     1       1.025  -9.735   3.352  0.00  0.00    +0.046 A 
ATOM      3  C   UNL     1       1.355 -10.317   4.557  0.00  0.00    +0.007 A 
ATOM      4  C   UNL     1       0.447 -10.331   5.610  0.00  0.00    -0.040 A 
ATOM      5  C   UNL     1      -0.791  -9.751   5.448  0.00  0.00    -0.016 A 
ATOM      6  C   UNL     1      -1.128  -9.165   4.236  0.00  0.00    +0.051 A 
ATOM      7  C   UNL     1      -1.812  -9.705   6.558  0.00  0.00    +0.137 C 
ATOM      8  N   UNL     1      -1.391 -10.585   7.653  0.00  0.00    -0.290 N 
ATOM      9  C   UNL     1       0.021 -10.524   8.064  0.00  0.00    +0.113 C 
ATOM     10  C   UNL     1       0.874 -11.000   6.890  0.00  0.00    +0.054 C 
ATOM     11  C   UNL     1      -2.262 -11.416   8.258  0.00  0.00    +0.213 C 
ATOM     12  O   UNL     1      -3.436 -11.390   7.955  0.00  0.00    -0.276 OA
ATOM     13  C   UNL     1      -1.777 -12.378   9.312  0.00  0.00    +0.109 C 
ENDROOT
BRANCH   7  14
ATOM     14  C   UNL     1      -3.147 -10.165   6.030  0.00  0.00    -0.020 A 
ATOM     15  C   UNL     1      -3.327 -11.486   5.664  0.00  0.00    +0.006 A 
ATOM     16  C   UNL     1      -4.551 -11.909   5.181  0.00  0.00    +0.003 A 
ATOM     17  C   UNL     1      -5.596 -11.012   5.062  0.00  0.00    +0.038 A 
ATOM     18  C   UNL     1      -5.416  -9.690   5.428  0.00  0.00    +0.124 A 
ATOM     19  C   UNL     1      -4.192  -9.268   5.918  0.00  0.00    +0.044 A 
ATOM     20  F   UNL     1      -6.437  -8.812   5.312  0.00  0.00    -0.205 F 
ENDBRANCH   7  14
BRANCH   1  21
ATOM     21  O   UNL     1      -0.562  -8.585   2.000  0.00  0.00    -0.485 OA
BRANCH  21  22
ATOM     22  C   UNL     1       0.420  -8.617   0.963  0.00  0.00    +0.291 C 
BRANCH  22  26
ATOM     23  C   UNL     1      -0.604  -6.285  -1.745  0.00  0.00    +0.133 A 
ATOM     24  C   UNL     1      -1.224  -7.261  -2.479  0.00  0.00    +0.080 A 
ATOM     25  S   UNL     1      -0.986  -8.630  -1.534  0.00  0.00    -0.076 S 
ATOM     26  C   UNL     1      -0.127  -7.940  -0.268  0.00  0.00    +0.116 A 
ATOM     27  N   UNL     1      -0.039  -6.681  -0.600  0.00  0.00    -0.236 NA
BRANCH  23  35
ATOM     28  C   UNL     1       1.848  -0.693  -2.407  0.00  0.00    -0.012 C 
ATOM     29  C   UNL     1       1.749  -2.186  -2.086  0.00  0.00    -0.057 C 
ATOM     30  C   UNL     1       0.275  -2.587  -1.971  0.00  0.00    +0.092 C 
ATOM     31  N   UNL     1       0.205  -3.990  -1.535  0.00  0.00    -0.300 N 
ATOM     32  C   UNL     1       0.992  -4.389  -0.358  0.00  0.00    +0.089 C 
ATOM     33  C   UNL     1       2.433  -3.904  -0.549  0.00  0.00    -0.063 C 
ATOM     34  N   UNL     1       2.430  -2.459  -0.815  0.00  0.00    +0.383 N 
ATOM     35  C   UNL     1      -0.558  -4.884  -2.194  0.00  0.00    +0.265 C 
ATOM     36  O   UNL     1      -1.208  -4.533  -3.161  0.00  0.00    -0.268 OA
ATOM     37  H   UNL     1       3.381  -2.126  -0.866  0.00  0.00    -0.085 HD
ATOM     38  H   UNL     1       1.949  -1.982  -0.067  0.00  0.00    -0.085 HD
ENDBRANCH  23  35
ENDBRANCH  22  26
ENDBRANCH  21  22
ENDBRANCH   1  21
TORSDOF 5
