REMARK  Name = ZINC39574281
REMARK  9 active torsions:
REMARK  status: ('A' for Active; 'I' for Inactive)
REMARK    1  A    between atoms: C_1  and  C_2
REMARK    2  A    between atoms: C_4  and  C_17
REMARK    3  A    between atoms: C_6  and  C_16
REMARK    4  A    between atoms: N_8  and  C_10
REMARK    5  A    between atoms: N_18  and  N_19
REMARK    6  A    between atoms: C_20  and  C_22
REMARK    7  A    between atoms: C_25  and  C_28
REMARK    8  A    between atoms: C_28  and  C_29
REMARK    9  A    between atoms: C_28  and  C_30
REMARK                            x       y       z     vdW  Elec       q    Type
REMARK                         _______ _______ _______ _____ _____    ______ ____
ROOT
ATOM      1  C   UNL     1      -0.019   1.526   0.010  0.00  0.00    +0.026 C 
ATOM      2  C   UNL     1       0.002  -0.004   0.002  0.00  0.00    +0.080 C 
ATOM      3  C   UNL     1      -1.438  -0.580   0.090  0.00  0.00    +0.072 C 
ATOM      4  C   UNL     1      -1.173  -1.943   0.774  0.00  0.00    +0.098 C 
ATOM      5  N   UNL     1       0.143  -1.809   1.419  0.00  0.00    -0.263 N 
ATOM      6  N   UNL     1       0.619  -0.534   1.245  0.00  0.00    -0.236 NA
ATOM      7  C   UNL     1      -2.252  -2.227   1.822  0.00  0.00    +0.030 C 
ATOM      8  H   UNL     1       0.392   0.048   2.038  0.00  0.00    +0.145 HD
ENDROOT
BRANCH   5   9
ATOM      9  C   UNL     1       0.809  -2.827   2.104  0.00  0.00    +0.045 A 
ATOM     10  C   UNL     1       0.232  -4.086   2.213  0.00  0.00    +0.024 A 
ATOM     11  C   UNL     1       0.893  -5.091   2.891  0.00  0.00    +0.002 A 
ATOM     12  C   UNL     1       2.128  -4.845   3.462  0.00  0.00    +0.000 A 
ATOM     13  C   UNL     1       2.705  -3.593   3.357  0.00  0.00    +0.002 A 
ATOM     14  C   UNL     1       2.052  -2.585   2.675  0.00  0.00    +0.024 A 
ENDBRANCH   5   9
BRANCH   3  15
ATOM     15  C   UNL     1      -2.032  -0.767  -1.282  0.00  0.00    +0.110 C 
ATOM     16  N   UNL     1      -3.120  -0.170  -1.595  0.00  0.00    -0.192 NA
BRANCH  16  17
ATOM     17  N   UNL     1      -3.673  -0.344  -2.870  0.00  0.00    -0.205 N 
ATOM     18  C   UNL     1      -4.819   0.284  -3.200  0.00  0.00    +0.262 C 
ATOM     19  O   UNL     1      -5.372   1.000  -2.392  0.00  0.00    -0.271 OA
ATOM     20  H   UNL     1      -3.231  -0.917  -3.516  0.00  0.00    +0.177 HD
BRANCH  18  21
ATOM     21  C   UNL     1      -5.413   0.097  -4.572  0.00  0.00    +0.240 C 
ATOM     22  C   UNL     1      -4.744   1.017  -5.577  0.00  0.00    +0.036 C 
ATOM     23  C   UNL     1      -5.738   1.796  -6.010  0.00  0.00    +0.064 C 
ATOM     24  N   UNL     1      -6.902   1.470  -5.406  0.00  0.00    -0.158 NA
ATOM     25  N   UNL     1      -6.818   0.538  -4.596  0.00  0.00    -0.170 NA
BRANCH  23  26
ATOM     26  C   UNL     1      -5.583   2.891  -7.034  0.00  0.00    +0.033 C 
ATOM     27  C   UNL     1      -6.478   2.593  -8.239  0.00  0.00    +0.014 C 
ATOM     28  C   UNL     1      -5.990   4.229  -6.415  0.00  0.00    +0.014 C 
ENDBRANCH  23  26
ENDBRANCH  18  21
ENDBRANCH  16  17
ENDBRANCH   3  15
TORSDOF 5
