REMARK  Name = ZINC33154763
REMARK  7 active torsions:
REMARK  status: ('A' for Active; 'I' for Inactive)
REMARK    1  A    between atoms: C_1  and  C_2
REMARK    2  A    between atoms: C_2  and  O_3
REMARK    3  A    between atoms: O_3  and  C_4
REMARK    4  A    between atoms: C_7  and  C_10
REMARK    5  A    between atoms: N_15  and  N_16
REMARK    6  A    between atoms: C_17  and  C_18
REMARK    7  A    between atoms: C_21  and  O_24
REMARK                            x       y       z     vdW  Elec       q    Type
REMARK                         _______ _______ _______ _____ _____    ______ ____
ROOT
ATOM      1  C   UNL     1       0.271  -6.090   2.397  0.00  0.00    +0.055 A 
ATOM      2  C   UNL     1      -0.249  -6.904   1.454  0.00  0.00    +0.075 A 
ATOM      3  S   UNL     1       0.422  -8.492   1.919  0.00  0.00    -0.056 S 
ATOM      4  C   UNL     1       1.353  -7.958   3.346  0.00  0.00    +0.192 A 
ATOM      5  N   UNL     1       1.089  -6.609   3.360  0.00  0.00    -0.332 N 
ATOM      6  N   UNL     1       2.104  -8.672   4.171  0.00  0.00    -0.124 NA
ATOM      7  H   UNL     1       1.474  -6.037   4.043  0.00  0.00    +0.168 HD
ENDROOT
BRANCH   1  11
ATOM      8  C   UNL     1      -0.622  -1.935   2.363  0.00  0.00    +0.121 A 
ATOM      9  C   UNL     1      -1.163  -2.768   1.393  0.00  0.00    +0.046 A 
ATOM     10  C   UNL     1      -0.876  -4.116   1.400  0.00  0.00    +0.013 A 
ATOM     11  C   UNL     1      -0.040  -4.644   2.385  0.00  0.00    -0.001 A 
ATOM     12  C   UNL     1       0.503  -3.804   3.359  0.00  0.00    +0.013 A 
ATOM     13  C   UNL     1       0.215  -2.455   3.341  0.00  0.00    +0.046 A 
BRANCH   8  14
ATOM     14  O   UNL     1      -0.908  -0.607   2.353  0.00  0.00    -0.492 OA
BRANCH  14  16
ATOM     15  C   UNL     1      -1.980   1.371   1.469  0.00  0.00    +0.048 C 
ATOM     16  C   UNL     1      -1.776  -0.138   1.319  0.00  0.00    +0.225 C 
ENDBRANCH  14  16
ENDBRANCH   8  14
ENDBRANCH   1  11
BRANCH   6  17
ATOM     17  N   UNL     1       2.235  -9.942   3.987  0.00  0.00    -0.155 NA
ATOM     18  C   UNL     1       2.976 -10.647   4.801  0.00  0.00    +0.143 C 
BRANCH  18  19
ATOM     19  C   UNL     1       3.717  -9.982   5.884  0.00  0.00    -0.005 A 
ATOM     20  C   UNL     1       4.407 -10.744   6.833  0.00  0.00    +0.013 A 
ATOM     21  C   UNL     1       5.100 -10.115   7.845  0.00  0.00    +0.046 A 
ATOM     22  C   UNL     1       5.115  -8.729   7.923  0.00  0.00    +0.117 A 
ATOM     23  C   UNL     1       4.432  -7.968   6.983  0.00  0.00    +0.046 A 
ATOM     24  C   UNL     1       3.740  -8.585   5.964  0.00  0.00    +0.013 A 
BRANCH  22  25
ATOM     25  O   UNL     1       5.800  -8.114   8.923  0.00  0.00    -0.507 OA
ATOM     26  H   UNL     1       6.721  -7.915   8.704  0.00  0.00    +0.292 HD
ENDBRANCH  22  25
ENDBRANCH  18  19
ENDBRANCH   6  17
TORSDOF 6
