REMARK  Name = ZINC17315216
REMARK  10 active torsions:
REMARK  status: ('A' for Active; 'I' for Inactive)
REMARK    1  A    between atoms: C_1  and  C_2
REMARK    2  A    between atoms: C_2  and  O_3
REMARK    3  A    between atoms: O_3  and  C_4
REMARK    4  A    between atoms: C_7  and  N_10
REMARK    5  A    between atoms: C_11  and  C_27
REMARK    6  A    between atoms: C_14  and  S_15
REMARK    7  A    between atoms: S_15  and  C_16
REMARK    8  A    between atoms: C_16  and  C_17
REMARK    9  A    between atoms: N_19  and  C_20
REMARK   10  A    between atoms: C_25  and  C_26
REMARK                            x       y       z     vdW  Elec       q    Type
REMARK                         _______ _______ _______ _____ _____    ______ ____
ROOT
ATOM      1  N   UNL     1       1.099  -5.946  -1.799  0.00  0.00    -0.270 N 
ATOM      2  C   UNL     1       2.253  -6.698  -1.789  0.00  0.00    +0.171 A 
ATOM      3  N   UNL     1       1.899  -7.949  -1.976  0.00  0.00    -0.128 NA
ATOM      4  N   UNL     1       0.622  -8.030  -2.101  0.00  0.00    -0.122 NA
ATOM      5  C   UNL     1       0.080  -6.839  -1.996  0.00  0.00    +0.197 A 
ENDROOT
BRANCH   2   6
ATOM      6  C   UNL     1       3.629  -6.194  -1.602  0.00  0.00    +0.045 A 
ATOM      7  C   UNL     1       3.999  -4.902  -1.403  0.00  0.00    +0.095 A 
ATOM      8  N   UNL     1       5.356  -4.828  -1.273  0.00  0.00    -0.360 N 
ATOM      9  H   UNL     1       5.855  -4.009  -1.123  0.00  0.00    +0.165 HD
ATOM     10  C   UNL     1       5.915  -6.083  -1.386  0.00  0.00    +0.047 A 
ATOM     11  C   UNL     1       4.865  -6.994  -1.591  0.00  0.00    +0.010 A 
ATOM     12  C   UNL     1       5.139  -8.353  -1.735  0.00  0.00    +0.011 A 
ATOM     13  C   UNL     1       6.441  -8.796  -1.673  0.00  0.00    +0.001 A 
ATOM     14  C   UNL     1       7.478  -7.898  -1.468  0.00  0.00    +0.002 A 
ATOM     15  C   UNL     1       7.224  -6.551  -1.331  0.00  0.00    +0.026 A 
ENDBRANCH   2   6
BRANCH   1  19
ATOM     16  C   UNL     1       0.777  -1.815  -1.313  0.00  0.00    +0.121 A 
ATOM     17  C   UNL     1       0.234  -2.669  -0.365  0.00  0.00    +0.047 A 
ATOM     18  C   UNL     1       0.340  -4.036  -0.525  0.00  0.00    +0.030 A 
ATOM     19  C   UNL     1       0.990  -4.556  -1.636  0.00  0.00    +0.051 A 
ATOM     20  C   UNL     1       1.533  -3.701  -2.585  0.00  0.00    +0.030 A 
ATOM     21  C   UNL     1       1.422  -2.334  -2.426  0.00  0.00    +0.047 A 
BRANCH  16  22
ATOM     22  O   UNL     1       0.671  -0.468  -1.155  0.00  0.00    -0.492 OA
BRANCH  22  24
ATOM     23  C   UNL     1      -0.024   1.526   0.018  0.00  0.00    +0.048 C 
ATOM     24  C   UNL     1      -0.006  -0.004   0.014  0.00  0.00    +0.225 C 
ENDBRANCH  22  24
ENDBRANCH  16  22
ENDBRANCH   1  19
BRANCH   5  25
ATOM     25  S   UNL     1      -1.638  -6.461  -2.094  0.00  0.00    -0.076 S 
BRANCH  25  26
ATOM     26  C   UNL     1      -2.428  -8.072  -2.361  0.00  0.00    +0.173 C 
BRANCH  26  27
ATOM     27  C   UNL     1      -3.920  -7.888  -2.464  0.00  0.00    +0.227 C 
ATOM     28  O   UNL     1      -4.403  -6.780  -2.368  0.00  0.00    -0.275 OA
ATOM     29  N   UNL     1      -4.718  -8.956  -2.664  0.00  0.00    -0.285 N 
ATOM     30  H   UNL     1      -4.328  -9.830  -2.821  0.00  0.00    +0.155 HD
BRANCH  29  31
ATOM     31  C   UNL     1      -6.109  -8.804  -2.645  0.00  0.00    +0.036 A 
ATOM     32  C   UNL     1      -6.684  -7.752  -1.943  0.00  0.00    +0.023 A 
ATOM     33  C   UNL     1      -8.057  -7.604  -1.926  0.00  0.00    +0.002 A 
ATOM     34  C   UNL     1      -8.859  -8.502  -2.606  0.00  0.00    +0.000 A 
ATOM     35  C   UNL     1      -8.290  -9.551  -3.305  0.00  0.00    +0.005 A 
ATOM     36  C   UNL     1      -6.917  -9.700  -3.332  0.00  0.00    -0.029 A 
ATOM     37  C   UNL     1      -6.296 -10.839  -4.100  0.00  0.00    +0.045 C 
ENDBRANCH  29  31
ENDBRANCH  26  27
ENDBRANCH  25  26
ENDBRANCH   5  25
TORSDOF 8
