REMARK  Name = ZINC50677797
REMARK  3 active torsions:
REMARK  status: ('A' for Active; 'I' for Inactive)
REMARK    1  A    between atoms: C_8  and  N_20
REMARK    2  A    between atoms: C_9  and  S_10
REMARK    3  A    between atoms: S_10  and  N_13
REMARK                            x       y       z     vdW  Elec       q    Type
REMARK                         _______ _______ _______ _____ _____    ______ ____
ROOT
ATOM      1  C   UNL     1      -0.016   1.357   0.009  0.00  0.00    +0.005 A 
ATOM      2  C   UNL     1       1.194   2.068   0.002  0.00  0.00    +0.018 A 
ATOM      3  C   UNL     1       2.372   1.408  -0.013  0.00  0.00    +0.094 A 
ATOM      4  N   UNL     1       2.404   0.045  -0.022  0.00  0.00    -0.282 N 
ATOM      5  C   UNL     1       1.239  -0.677  -0.014  0.00  0.00    +0.141 A 
ATOM      6  C   UNL     1       0.002  -0.004   0.002  0.00  0.00    +0.047 A 
ATOM      7  N   UNL     1       1.552  -1.967  -0.025  0.00  0.00    -0.211 NA
ATOM      8  C   UNL     1       2.883  -2.097  -0.040  0.00  0.00    +0.163 A 
ATOM      9  C   UNL     1       3.436  -0.857  -0.038  0.00  0.00    +0.220 A 
ENDROOT
BRANCH   9  10
ATOM     10  S   UNL     1       5.157  -0.479  -0.054  0.00  0.00    +0.080 S 
ATOM     11  O   UNL     1       5.815  -1.605  -0.619  0.00  0.00    -0.151 OA
ATOM     12  O   UNL     1       5.280   0.828  -0.599  0.00  0.00    -0.151 OA
BRANCH  10  13
ATOM     13  N   UNL     1       5.652  -0.383   1.523  0.00  0.00    -0.174 NA
ATOM     14  C   UNL     1       5.606   0.855   2.244  0.00  0.00    +0.110 C 
ATOM     15  C   UNL     1       6.756   1.810   1.857  0.00  0.00    +0.028 C 
ATOM     16  C   UNL     1       8.103   1.064   1.671  0.00  0.00    +0.070 C 
ATOM     17  S   UNL     1       8.392  -0.198   2.906  0.00  0.00    -0.159 S 
ATOM     18  C   UNL     1       7.602  -1.677   2.171  0.00  0.00    +0.086 C 
ATOM     19  C   UNL     1       6.156  -1.580   2.248  0.00  0.00    +0.120 C 
ENDBRANCH  10  13
ENDBRANCH   9  10
BRANCH   8  20
ATOM     20  N   UNL     1       3.587  -3.308  -0.054  0.00  0.00    -0.340 N 
ATOM     21  H   UNL     1       3.105  -4.149  -0.054  0.00  0.00    +0.144 HD
ATOM     22  H   UNL     1       4.557  -3.305  -0.064  0.00  0.00    +0.144 HD
ENDBRANCH   8  20
TORSDOF 3
