REMARK  Name = ZINC36865321
REMARK  3 active torsions:
REMARK  status: ('A' for Active; 'I' for Inactive)
REMARK    1  A    between atoms: C_1  and  C_2
REMARK    2  A    between atoms: C_2  and  C_3
REMARK    3  A    between atoms: N_14  and  C_15
REMARK                            x       y       z     vdW  Elec       q    Type
REMARK                         _______ _______ _______ _____ _____    ______ ____
ROOT
ATOM      1  C   UNL     1      -1.615  -0.479   0.083  0.00  0.00    +0.102 C 
ATOM      2  C   UNL     1      -1.038  -1.817   0.560  0.00  0.00    +0.182 C 
ATOM      3  O   UNL     1      -1.854  -2.883   0.069  0.00  0.00    -0.376 OA
ATOM      4  C   UNL     1      -1.895  -2.980  -1.357  0.00  0.00    +0.179 C 
ATOM      5  C   UNL     1      -2.516  -1.702  -1.932  0.00  0.00    +0.136 C 
ATOM      6  N   UNL     1      -1.796  -0.545  -1.376  0.00  0.00    -0.292 N 
ATOM      7  C   UNL     1      -1.303   0.453  -2.203  0.00  0.00    +0.219 A 
ATOM      8  N   UNL     1      -0.175   1.083  -2.043  0.00  0.00    -0.137 NA
ATOM      9  N   UNL     1      -0.044   2.011  -3.085  0.00  0.00    -0.253 N 
ATOM     10  C   UNL     1      -1.141   1.901  -3.862  0.00  0.00    +0.177 A 
ATOM     11  N   UNL     1      -1.922   0.939  -3.331  0.00  0.00    -0.288 N 
ATOM     12  S   UNL     1      -1.478   2.813  -5.272  0.00  0.00    -0.011 S 
ATOM     13  H   UNL     1       0.698   2.620  -3.221  0.00  0.00    +0.191 HD
ENDROOT
BRANCH  11  14
ATOM     14  C   UNL     1      -3.211   0.490  -3.863  0.00  0.00    +0.092 C 
ATOM     15  C   UNL     1      -3.009  -0.097  -5.261  0.00  0.00    +0.025 C 
ATOM     16  C   UNL     1      -4.355  -0.566  -5.817  0.00  0.00    +0.002 C 
ATOM     17  C   UNL     1      -5.316   0.622  -5.896  0.00  0.00    +0.000 C 
ATOM     18  C   UNL     1      -5.518   1.208  -4.497  0.00  0.00    +0.002 C 
ATOM     19  C   UNL     1      -4.172   1.678  -3.942  0.00  0.00    +0.025 C 
ENDBRANCH  11  14
BRANCH   1  21
ATOM     20  C   UNL     1      -0.557   0.797   1.951  0.00  0.00    +0.006 C 
ATOM     21  C   UNL     1      -0.647   0.653   0.431  0.00  0.00    +0.021 C 
ENDBRANCH   1  21
TORSDOF 2
