REMARK  Name = ZINC03127844
REMARK  6 active torsions:
REMARK  status: ('A' for Active; 'I' for Inactive)
REMARK    1  A    between atoms: C_1  and  N_2
REMARK    2  A    between atoms: C_18  and  C_23
REMARK    3  A    between atoms: C_27  and  O_31
REMARK    4  A    between atoms: C_28  and  O_29
REMARK    5  A    between atoms: O_29  and  C_30
REMARK    6  A    between atoms: O_31  and  C_32
REMARK                            x       y       z     vdW  Elec       q    Type
REMARK                         _______ _______ _______ _____ _____    ______ ____
ROOT
ATOM      1  C   UNL     1       0.237   1.812   0.003  0.00  0.00    +0.140 C 
ATOM      2  N   UNL     1      -0.532   2.083   1.220  0.00  0.00    -0.255 N 
ATOM      3  C   UNL     1       0.019   2.297   2.433  0.00  0.00    +0.242 C 
ATOM      4  O   UNL     1       1.200   2.313   2.706  0.00  0.00    -0.273 OA
ATOM      5  C   UNL     1      -1.142   2.510   3.383  0.00  0.00    +0.167 C 
ATOM      6  C   UNL     1      -1.076   3.928   3.964  0.00  0.00    +0.069 C 
ATOM      7  C   UNL     1      -2.462   4.370   4.362  0.00  0.00    -0.015 A 
ATOM      8  C   UNL     1      -2.817   5.438   5.279  0.00  0.00    +0.003 A 
ATOM      9  C   UNL     1      -2.049   6.328   6.036  0.00  0.00    +0.010 A 
ATOM     10  C   UNL     1      -2.732   7.232   6.812  0.00  0.00    +0.001 A 
ATOM     11  C   UNL     1      -4.116   7.270   6.850  0.00  0.00    +0.002 A 
ATOM     12  C   UNL     1      -4.900   6.401   6.112  0.00  0.00    +0.026 A 
ATOM     13  C   UNL     1      -4.234   5.472   5.316  0.00  0.00    +0.047 A 
ATOM     14  N   UNL     1      -4.685   4.490   4.481  0.00  0.00    -0.356 N 
ATOM     15  H   UNL     1      -5.618   4.286   4.312  0.00  0.00    +0.166 HD
ATOM     16  C   UNL     1      -3.620   3.837   3.920  0.00  0.00    +0.046 A 
ATOM     17  C   UNL     1      -3.693   2.677   2.947  0.00  0.00    +0.157 C 
ATOM     18  N   UNL     1      -2.318   2.438   2.489  0.00  0.00    -0.288 N 
ATOM     19  C   UNL     1      -1.870   2.156   1.264  0.00  0.00    +0.143 C 
ATOM     20  S   UNL     1      -2.885   1.912  -0.092  0.00  0.00    -0.018 S 
ENDROOT
BRANCH  17  21
ATOM     21  C   UNL     1      -4.574   3.035   1.778  0.00  0.00    +0.024 A 
ATOM     22  C   UNL     1      -4.207   4.059   0.924  0.00  0.00    +0.010 A 
ATOM     23  C   UNL     1      -5.012   4.391  -0.149  0.00  0.00    +0.004 A 
ATOM     24  C   UNL     1      -6.189   3.700  -0.373  0.00  0.00    +0.049 A 
ATOM     25  C   UNL     1      -6.562   2.673   0.478  0.00  0.00    +0.162 A 
ATOM     26  C   UNL     1      -5.748   2.335   1.555  0.00  0.00    +0.167 A 
BRANCH  26  27
ATOM     27  O   UNL     1      -6.107   1.324   2.390  0.00  0.00    -0.491 OA
ATOM     28  C   UNL     1      -7.007   1.648   3.452  0.00  0.00    +0.277 C 
ENDBRANCH  26  27
BRANCH  25  29
ATOM     29  O   UNL     1      -7.719   1.992   0.259  0.00  0.00    -0.491 OA
ATOM     30  C   UNL     1      -8.502   2.389  -0.869  0.00  0.00    +0.277 C 
ENDBRANCH  25  29
ENDBRANCH  17  21
TORSDOF 3
