REMARK  Name = ZINC13097320
REMARK  9 active torsions:
REMARK  status: ('A' for Active; 'I' for Inactive)
REMARK    1  A    between atoms: C_1  and  C_2
REMARK    2  A    between atoms: C_2  and  C_3
REMARK    3  A    between atoms: C_3  and  C_4
REMARK    4  A    between atoms: C_4  and  N_5
REMARK    5  A    between atoms: N_5  and  C_6
REMARK    6  A    between atoms: C_7  and  N_22
REMARK    7  A    between atoms: N_8  and  C_15
REMARK    8  A    between atoms: C_15  and  C_16
REMARK    9  A    between atoms: C_23  and  C_25
REMARK                            x       y       z     vdW  Elec       q    Type
REMARK                         _______ _______ _______ _____ _____    ______ ____
ROOT
ATOM      1  C   UNL     1      -7.869   0.518   3.409  0.00  0.00    +0.140 A 
ATOM      2  C   UNL     1      -8.977   1.144   2.875  0.00  0.00    +0.128 A 
ATOM      3  N   UNL     1     -10.219   0.878   3.405  0.00  0.00    -0.276 N 
ATOM      4  C   UNL     1     -10.350   0.026   4.438  0.00  0.00    +0.331 A 
ATOM      5  O   UNL     1     -11.455  -0.192   4.896  0.00  0.00    -0.246 OA
ATOM      6  N   UNL     1      -9.280  -0.589   4.974  0.00  0.00    -0.273 N 
ATOM      7  H   UNL     1      -9.405  -1.218   5.741  0.00  0.00    +0.173 HD
ATOM      8  C   UNL     1      -8.043  -0.367   4.489  0.00  0.00    +0.277 A 
ATOM      9  O   UNL     1      -7.080  -0.930   4.983  0.00  0.00    -0.266 OA
ENDROOT
BRANCH   1  10
ATOM     10  N   UNL     1      -6.583   0.766   2.884  0.00  0.00    -0.260 N 
ATOM     11  C   UNL     1      -6.318   0.492   1.591  0.00  0.00    +0.258 C 
ATOM     12  O   UNL     1      -7.210   0.110   0.855  0.00  0.00    -0.269 OA
BRANCH  11  13
ATOM     13  C   UNL     1      -4.957   0.655   1.071  0.00  0.00    +0.075 A 
ATOM     14  C   UNL     1      -4.452   0.317  -0.171  0.00  0.00    +0.024 A 
ATOM     15  C   UNL     1      -3.115   0.575  -0.425  0.00  0.00    -0.036 A 
ATOM     16  C   UNL     1      -2.396   1.147   0.585  0.00  0.00    -0.006 A 
ATOM     17  S   UNL     1      -3.519   1.340   1.876  0.00  0.00    -0.088 S 
ATOM     18  C   UNL     1      -0.942   1.521   0.564  0.00  0.00    +0.043 C 
ATOM     19  C   UNL     1      -0.286   0.826  -0.638  0.00  0.00    +0.005 C 
ATOM     20  C   UNL     1      -1.156   1.052  -1.877  0.00  0.00    +0.005 C 
ATOM     21  C   UNL     1      -2.450   0.246  -1.759  0.00  0.00    +0.036 C 
ENDBRANCH  11  13
BRANCH  10  22
ATOM     22  C   UNL     1      -5.535   1.321   3.745  0.00  0.00    +0.114 C 
BRANCH  22  23
ATOM     23  C   UNL     1      -5.471   2.838   3.557  0.00  0.00    +0.019 C 
BRANCH  23  25
ATOM     24  C   UNL     1      -4.314   4.935   4.268  0.00  0.00    +0.004 C 
ATOM     25  C   UNL     1      -4.377   3.418   4.456  0.00  0.00    -0.002 C 
ENDBRANCH  23  25
ENDBRANCH  22  23
ENDBRANCH  10  22
ENDBRANCH   1  10
BRANCH   2  26
ATOM     26  N   UNL     1      -8.843   2.019   1.824  0.00  0.00    -0.343 N 
ATOM     27  H   UNL     1      -7.972   2.163   1.421  0.00  0.00    +0.144 HD
ATOM     28  H   UNL     1      -9.618   2.492   1.484  0.00  0.00    +0.144 HD
ENDBRANCH   2  26
BRANCH   3  29
ATOM     29  C   UNL     1     -11.404   1.531   2.845  0.00  0.00    +0.163 C 
BRANCH  29  30
ATOM     30  C   UNL     1     -11.646   2.834   3.563  0.00  0.00    -0.028 A 
ATOM     31  C   UNL     1     -12.451   2.864   4.687  0.00  0.00    +0.005 A 
ATOM     32  C   UNL     1     -12.669   4.058   5.348  0.00  0.00    +0.000 A 
ATOM     33  C   UNL     1     -12.091   5.223   4.880  0.00  0.00    +0.000 A 
ATOM     34  C   UNL     1     -11.291   5.194   3.754  0.00  0.00    +0.000 A 
ATOM     35  C   UNL     1     -11.068   3.999   3.095  0.00  0.00    +0.005 A 
ENDBRANCH  29  30
ENDBRANCH   3  29
TORSDOF 8
