REMARK  Name = ZINC25966867
REMARK  7 active torsions:
REMARK  status: ('A' for Active; 'I' for Inactive)
REMARK    1  A    between atoms: C_1  and  C_2
REMARK    2  A    between atoms: C_3  and  C_15
REMARK    3  A    between atoms: C_4  and  C_14
REMARK    4  A    between atoms: C_8  and  C_11
REMARK    5  A    between atoms: C_15  and  C_16
REMARK    6  A    between atoms: C_16  and  C_17
REMARK    7  A    between atoms: C_27  and  C_29
REMARK                            x       y       z     vdW  Elec       q    Type
REMARK                         _______ _______ _______ _____ _____    ______ ____
ROOT
ATOM      1  C   UNL     1       1.104  -4.074  -0.029  0.00  0.00    +0.066 C 
ATOM      2  C   UNL     1       0.713  -2.618  -0.018  0.00  0.00    +0.045 A 
ATOM      3  C   UNL     1      -0.642  -2.260  -0.003  0.00  0.00    -0.006 A 
ATOM      4  C   UNL     1      -0.985  -0.948   0.007  0.00  0.00    +0.028 A 
ATOM      5  N   UNL     1       0.002  -0.004   0.002  0.00  0.00    -0.287 N 
ATOM      6  C   UNL     1      -0.016   1.358   0.009  0.00  0.00    +0.206 A 
ATOM      7  N   UNL     1       1.202   1.814   0.000  0.00  0.00    -0.229 NA
ATOM      8  C   UNL     1       2.074   0.783  -0.013  0.00  0.00    +0.169 A 
ATOM      9  C   UNL     1       1.318  -0.396  -0.013  0.00  0.00    +0.170 A 
ATOM     10  N   UNL     1       1.643  -1.690  -0.022  0.00  0.00    -0.232 NA
ATOM     11  C   UNL     1      -2.435  -0.537   0.023  0.00  0.00    +0.064 C 
ENDROOT
BRANCH   8  12
ATOM     12  C   UNL     1       3.534   0.880  -0.027  0.00  0.00    +0.264 C 
ATOM     13  O   UNL     1       4.210  -0.133  -0.040  0.00  0.00    -0.269 OA
ATOM     14  N   UNL     1       4.129   2.089  -0.026  0.00  0.00    -0.324 N 
ATOM     15  H   UNL     1       5.227   2.161  -0.037  0.00  0.00    +0.145 HD
ATOM     16  H   UNL     1       3.518   3.003  -0.015  0.00  0.00    +0.145 HD
ENDBRANCH   8  12
BRANCH   3  17
ATOM     17  C   UNL     1      -1.709  -3.324   0.002  0.00  0.00    +0.048 C 
BRANCH  17  18
ATOM     18  C   UNL     1      -2.085  -3.677  -1.438  0.00  0.00    +0.101 C 
BRANCH  18  19
ATOM     19  C   UNL     1      -3.152  -4.741  -1.433  0.00  0.00    +0.216 C 
ATOM     20  O   UNL     1      -3.571  -5.174  -0.381  0.00  0.00    -0.276 OA
ATOM     21  N   UNL     1      -3.641  -5.211  -2.598  0.00  0.00    -0.294 N 
ATOM     22  C   UNL     1      -3.141  -4.693  -3.880  0.00  0.00    +0.113 C 
ATOM     23  C   UNL     1      -2.430  -5.837  -4.619  0.00  0.00    +0.061 C 
ATOM     24  C   UNL     1      -3.256  -7.076  -4.489  0.00  0.00    -0.004 A 
ATOM     25  C   UNL     1      -4.266  -7.320  -3.611  0.00  0.00    -0.017 A 
ATOM     26  C   UNL     1      -4.878  -8.569  -3.691  0.00  0.00    +0.013 A 
ATOM     27  C   UNL     1      -4.463  -9.467  -4.615  0.00  0.00    +0.046 A 
ATOM     28  S   UNL     1      -3.154  -8.572  -5.436  0.00  0.00    -0.101 S 
ATOM     29  C   UNL     1      -4.677  -6.252  -2.604  0.00  0.00    +0.104 C 
ATOM     30  C   UNL     1      -6.019  -5.646  -3.019  0.00  0.00    +0.033 C 
ENDBRANCH  18  19
ENDBRANCH  17  18
ENDBRANCH   3  17
TORSDOF 4
