REMARK  Name = ZINC06239799
REMARK  9 active torsions:
REMARK  status: ('A' for Active; 'I' for Inactive)
REMARK    1  A    between atoms: C_1  and  C_2
REMARK    2  A    between atoms: C_2  and  C_3
REMARK    3  A    between atoms: C_2  and  C_4
REMARK    4  A    between atoms: C_7  and  S_10
REMARK    5  A    between atoms: S_10  and  N_13
REMARK    6  A    between atoms: N_13  and  C_14
REMARK    7  A    between atoms: C_17  and  O_27
REMARK    8  A    between atoms: C_18  and  S_20
REMARK    9  A    between atoms: S_20  and  C_21
REMARK                            x       y       z     vdW  Elec       q    Type
REMARK                         _______ _______ _______ _____ _____    ______ ____
ROOT
ATOM      1  C   UNL     1       3.287   0.467   5.687  0.00  0.00    +0.049 A 
ATOM      2  C   UNL     1       4.545   0.612   5.117  0.00  0.00    +0.028 A 
ATOM      3  C   UNL     1       5.103   1.870   4.979  0.00  0.00    +0.048 A 
ATOM      4  C   UNL     1       4.408   2.988   5.409  0.00  0.00    +0.131 A 
ATOM      5  C   UNL     1       3.146   2.846   5.981  0.00  0.00    +0.059 A 
ATOM      6  C   UNL     1       2.584   1.585   6.114  0.00  0.00    +0.043 A 
ENDROOT
BRANCH   1   7
ATOM      7  N   UNL     1       2.725  -0.807   5.826  0.00  0.00    -0.216 N 
ATOM      8  H   UNL     1       2.693  -1.231   6.698  0.00  0.00    +0.174 HD
BRANCH   7   9
ATOM      9  S   UNL     1       2.116  -1.593   4.501  0.00  0.00    +0.072 S 
ATOM     10  O   UNL     1       1.609  -2.837   4.964  0.00  0.00    -0.150 OA
ATOM     11  O   UNL     1       3.107  -1.505   3.486  0.00  0.00    -0.150 OA
BRANCH   9  15
ATOM     12  C   UNL     1      -1.443   0.795   3.046  0.00  0.00    -0.045 A 
ATOM     13  C   UNL     1      -0.173   1.105   2.596  0.00  0.00    +0.006 A 
ATOM     14  C   UNL     1       0.914   0.375   3.041  0.00  0.00    +0.029 A 
ATOM     15  C   UNL     1       0.731  -0.663   3.935  0.00  0.00    +0.109 A 
ATOM     16  C   UNL     1      -0.539  -0.971   4.386  0.00  0.00    +0.029 A 
ATOM     17  C   UNL     1      -1.625  -0.239   3.944  0.00  0.00    +0.006 A 
BRANCH  12  19
ATOM     18  C   UNL     1      -2.444   3.062   2.939  0.00  0.00    +0.012 C 
ATOM     19  C   UNL     1      -2.628   1.590   2.561  0.00  0.00    +0.013 C 
ATOM     20  C   UNL     1      -2.739   1.465   1.040  0.00  0.00    +0.012 C 
ENDBRANCH  12  19
ENDBRANCH   9  15
ENDBRANCH   7   9
ENDBRANCH   1   7
BRANCH   4  21
ATOM     21  O   UNL     1       4.959   4.225   5.273  0.00  0.00    -0.506 OA
ATOM     22  H   UNL     1       4.748   4.660   4.436  0.00  0.00    +0.292 HD
ENDBRANCH   4  21
BRANCH   5  23
ATOM     23  S   UNL     1       2.260   4.268   6.529  0.00  0.00    -0.047 S 
BRANCH  23  24
ATOM     24  C   UNL     1       3.077   4.731   8.020  0.00  0.00    +0.189 A 
ATOM     25  N   UNL     1       2.700   5.719   8.860  0.00  0.00    -0.254 N 
ATOM     26  H   UNL     1       1.933   6.305   8.761  0.00  0.00    +0.191 HD
ATOM     27  N   UNL     1       3.637   5.727   9.906  0.00  0.00    -0.160 NA
ATOM     28  C   UNL     1       4.500   4.780   9.653  0.00  0.00    +0.245 A 
ATOM     29  N   UNL     1       4.161   4.172   8.515  0.00  0.00    -0.209 NA
ENDBRANCH  23  24
ENDBRANCH   5  23
TORSDOF 7
