REMARK  Name = ZINC13042165
REMARK  11 active torsions:
REMARK  status: ('A' for Active; 'I' for Inactive)
REMARK    1  A    between atoms: C_1  and  C_2
REMARK    2  A    between atoms: C_2  and  N_3
REMARK    3  A    between atoms: N_3  and  C_4
REMARK    4  A    between atoms: C_4  and  C_5
REMARK    5  A    between atoms: C_6  and  C_8
REMARK    6  A    between atoms: C_9  and  C_27
REMARK    7  A    between atoms: C_14  and  C_16
REMARK    8  A    between atoms: C_18  and  O_24
REMARK    9  A    between atoms: C_19  and  O_23
REMARK   10  A    between atoms: O_24  and  C_25
REMARK   11  A    between atoms: C_25  and  C_26
REMARK                            x       y       z     vdW  Elec       q    Type
REMARK                         _______ _______ _______ _____ _____    ______ ____
ROOT
ATOM      1  C   UNL     1       2.785   0.357   0.202  0.00  0.00    +0.056 C 
ATOM      2  C   UNL     1       3.075   1.570   0.718  0.00  0.00    +0.017 C 
ATOM      3  N   UNL     1       2.087   2.459   1.026  0.00  0.00    -0.300 N 
ATOM      4  C   UNL     1       0.783   2.211   0.849  0.00  0.00    +0.135 C 
ATOM      5  S   UNL     1      -0.355   3.419   1.272  0.00  0.00    -0.019 S 
ATOM      6  N   UNL     1       0.337   1.044   0.343  0.00  0.00    -0.315 N 
ATOM      7  C   UNL     1       1.326   0.016  -0.022  0.00  0.00    +0.139 C 
ATOM      8  C   UNL     1       4.514   1.949   0.957  0.00  0.00    +0.061 C 
ATOM      9  H   UNL     1       2.343   3.319   1.395  0.00  0.00    +0.154 HD
ATOM     10  H   UNL     1      -0.612   0.885   0.223  0.00  0.00    +0.149 HD
ENDROOT
BRANCH   7  11
ATOM     11  C   UNL     1       1.014  -1.230   0.765  0.00  0.00    -0.018 A 
ATOM     12  C   UNL     1       1.270  -2.474   0.219  0.00  0.00    +0.055 A 
ATOM     13  C   UNL     1       0.989  -3.621   0.943  0.00  0.00    +0.163 A 
ATOM     14  C   UNL     1       0.438  -3.518   2.217  0.00  0.00    +0.173 A 
ATOM     15  C   UNL     1       0.177  -2.268   2.757  0.00  0.00    +0.063 A 
ATOM     16  C   UNL     1       0.466  -1.127   2.030  0.00  0.00    +0.025 A 
ATOM     17 BR   UNL     1      -0.571  -2.123   4.488  0.00  0.00    -0.046 Br
BRANCH  14  18
ATOM     18  O   UNL     1       0.155  -4.641   2.930  0.00  0.00    -0.503 OA
ATOM     19  H   UNL     1      -0.738  -4.984   2.787  0.00  0.00    +0.292 HD
ENDBRANCH  14  18
BRANCH  13  20
ATOM     20  O   UNL     1       1.246  -4.845   0.409  0.00  0.00    -0.489 OA
BRANCH  20  21
ATOM     21  C   UNL     1       1.906  -4.874  -0.858  0.00  0.00    +0.226 C 
ATOM     22  C   UNL     1       2.017  -6.321  -1.342  0.00  0.00    +0.048 C 
ENDBRANCH  20  21
ENDBRANCH  13  20
ENDBRANCH   7  11
BRANCH   1  24
ATOM     23  N   UNL     1       4.581  -1.085   0.860  0.00  0.00    -0.298 N 
ATOM     24  C   UNL     1       3.811  -0.567  -0.118  0.00  0.00    +0.246 C 
ATOM     25  O   UNL     1       3.996  -0.893  -1.276  0.00  0.00    -0.270 OA
BRANCH  23  27
ATOM     26  C   UNL     1       6.921  -1.387   0.217  0.00  0.00    +0.024 C 
ATOM     27  C   UNL     1       5.599  -2.087   0.537  0.00  0.00    +0.104 C 
ENDBRANCH  23  27
BRANCH  23  28
ATOM     28  C   UNL     1       4.400  -0.644   2.245  0.00  0.00    +0.104 C 
ATOM     29  C   UNL     1       3.521  -1.651   2.990  0.00  0.00    +0.024 C 
ENDBRANCH  23  28
ENDBRANCH   1  24
TORSDOF 7
