REMARK  Name = ZINC40323021
REMARK  11 active torsions:
REMARK  status: ('A' for Active; 'I' for Inactive)
REMARK    1  A    between atoms: C_1  and  C_2
REMARK    2  A    between atoms: C_2  and  N_3
REMARK    3  A    between atoms: N_3  and  C_4
REMARK    4  A    between atoms: N_3  and  C_6
REMARK    5  A    between atoms: C_4  and  C_5
REMARK    6  A    between atoms: C_6  and  C_8
REMARK    7  A    between atoms: C_6  and  C_27
REMARK    8  A    between atoms: C_8  and  N_9
REMARK    9  A    between atoms: C_10  and  C_12
REMARK   10  A    between atoms: C_15  and  S_17
REMARK   11  A    between atoms: S_17  and  C_20
REMARK                            x       y       z     vdW  Elec       q    Type
REMARK                         _______ _______ _______ _____ _____    ______ ____
ROOT
ATOM      1  N   UNL     1      -1.677   0.881  -0.720  0.00  0.00    -0.310 N 
ATOM      2  C   UNL     1      -2.202   1.818  -1.534  0.00  0.00    +0.279 C 
ATOM      3  O   UNL     1      -3.406   1.871  -1.704  0.00  0.00    -0.267 OA
ATOM      4  H   UNL     1      -0.726   0.883  -0.528  0.00  0.00    +0.149 HD
ENDROOT
BRANCH   2   5
ATOM      5  C   UNL     1      -1.323   2.773  -2.217  0.00  0.00    +0.192 A 
ATOM      6  C   UNL     1      -1.726   3.827  -2.985  0.00  0.00    +0.056 A 
ATOM      7  C   UNL     1      -0.561   4.468  -3.435  0.00  0.00    +0.070 A 
ATOM      8  C   UNL     1       0.489   3.785  -2.928  0.00  0.00    +0.246 A 
ATOM      9  O   UNL     1       0.026   2.767  -2.190  0.00  0.00    -0.433 OA
BRANCH   8  10
ATOM     10  S   UNL     1       2.188   4.173  -3.189  0.00  0.00    +0.058 S 
ATOM     11  O   UNL     1       2.915   2.968  -2.988  0.00  0.00    -0.161 OA
ATOM     12  O   UNL     1       2.254   4.909  -4.402  0.00  0.00    -0.161 OA
BRANCH  10  13
ATOM     13  C   UNL     1       2.674   5.275  -1.904  0.00  0.00    +0.097 A 
ATOM     14  C   UNL     1       2.542   6.640  -2.078  0.00  0.00    +0.028 A 
ATOM     15  C   UNL     1       2.923   7.506  -1.069  0.00  0.00    +0.017 A 
ATOM     16  C   UNL     1       3.437   7.006   0.114  0.00  0.00    +0.018 A 
ATOM     17  C   UNL     1       3.569   5.640   0.287  0.00  0.00    +0.017 A 
ATOM     18  C   UNL     1       3.183   4.775  -0.719  0.00  0.00    +0.028 A 
ATOM     19 BR   UNL     1       3.959   8.189   1.493  0.00  0.00    -0.050 Br
ENDBRANCH  10  13
ENDBRANCH   8  10
ENDBRANCH   2   5
BRANCH   1  20
ATOM     20  C   UNL     1      -2.542  -0.140  -0.124  0.00  0.00    +0.094 C 
BRANCH  20  21
ATOM     21  C   UNL     1      -1.727  -0.995   0.848  0.00  0.00    -0.020 C 
BRANCH  21  22
ATOM     22  C   UNL     1      -2.573  -2.142   1.339  0.00  0.00    -0.059 A 
ATOM     23  C   UNL     1      -3.624  -2.604   0.570  0.00  0.00    +0.002 A 
ATOM     24  C   UNL     1      -4.400  -3.656   1.022  0.00  0.00    +0.000 A 
ATOM     25  C   UNL     1      -4.125  -4.244   2.242  0.00  0.00    +0.000 A 
ATOM     26  C   UNL     1      -3.073  -3.782   3.010  0.00  0.00    +0.000 A 
ATOM     27  C   UNL     1      -2.294  -2.733   2.557  0.00  0.00    +0.002 A 
ENDBRANCH  21  22
BRANCH  21  28
ATOM     28  N   UNL     1      -0.541  -1.522   0.160  0.00  0.00    +0.385 N 
ATOM     29  H   UNL     1      -0.017  -0.758  -0.240  0.00  0.00    -0.081 HD
BRANCH  28  31
ATOM     30  C   UNL     1       0.856  -1.260   2.154  0.00  0.00    -0.017 C 
ATOM     31  C   UNL     1       0.303  -2.244   1.122  0.00  0.00    -0.081 C 
ENDBRANCH  28  31
BRANCH  28  32
ATOM     32  C   UNL     1      -0.961  -2.440  -0.908  0.00  0.00    -0.081 C 
ATOM     33  C   UNL     1      -1.182  -1.651  -2.200  0.00  0.00    -0.017 C 
ENDBRANCH  28  32
ENDBRANCH  21  28
ENDBRANCH  20  21
ENDBRANCH   1  20
TORSDOF 9
