REMARK  Name = ZINC13063967
REMARK  14 active torsions:
REMARK  status: ('A' for Active; 'I' for Inactive)
REMARK    1  A    between atoms: C_1  and  C_2
REMARK    2  A    between atoms: C_2  and  C_3
REMARK    3  A    between atoms: C_3  and  C_5
REMARK    4  A    between atoms: C_3  and  N_73
REMARK    5  A    between atoms: N_9  and  C_10
REMARK    6  A    between atoms: C_10  and  C_11
REMARK    7  A    between atoms: C_11  and  C_12
REMARK    8  A    between atoms: C_18  and  C_19
REMARK    9  A    between atoms: C_18  and  N_73
REMARK   10  A    between atoms: C_22  and  O_25
REMARK   11  A    between atoms: O_25  and  C_26
REMARK   12  A    between atoms: C_27  and  C_28
REMARK   13  A    between atoms: C_27  and  N_73
REMARK   14  A    between atoms: C_33  and  C_40
REMARK                            x       y       z     vdW  Elec       q    Type
REMARK                         _______ _______ _______ _____ _____    ______ ____
ROOT
ATOM      1  N   UNL     1       0.069   0.168   0.358  0.00  0.00    +0.392 N 
ATOM      2  H   UNL     1       0.753  -0.264   0.991  0.00  0.00    -0.080 HD
ENDROOT
BRANCH   1   3
ATOM      3  C   UNL     1      -1.293  -0.176   0.816  0.00  0.00    +0.003 C 
BRANCH   3   4
ATOM      4  C   UNL     1      -1.579   0.549   2.105  0.00  0.00    +0.138 A 
ATOM      5  N   UNL     1      -0.772   0.671   3.130  0.00  0.00    -0.115 NA
ATOM      6  N   UNL     1      -1.377   1.361   4.035  0.00  0.00    -0.023 NA
ATOM      7  N   UNL     1      -2.553   1.676   3.616  0.00  0.00    -0.044 NA
ATOM      8  N   UNL     1      -2.715   1.194   2.430  0.00  0.00    -0.231 N 
BRANCH   8   9
ATOM      9  C   UNL     1      -3.911   1.324   1.594  0.00  0.00    +0.152 C 
BRANCH   9  10
ATOM     10  C   UNL     1      -4.856   0.152   1.869  0.00  0.00    +0.058 C 
BRANCH  10  11
ATOM     11  C   UNL     1      -6.086   0.286   1.009  0.00  0.00    -0.046 A 
ATOM     12  C   UNL     1      -7.187   0.976   1.480  0.00  0.00    +0.004 A 
ATOM     13  C   UNL     1      -8.314   1.104   0.690  0.00  0.00    +0.000 A 
ATOM     14  C   UNL     1      -8.343   0.531  -0.568  0.00  0.00    +0.000 A 
ATOM     15  C   UNL     1      -7.245  -0.164  -1.037  0.00  0.00    +0.000 A 
ATOM     16  C   UNL     1      -6.116  -0.287  -0.249  0.00  0.00    +0.004 A 
ENDBRANCH  10  11
ENDBRANCH   9  10
ENDBRANCH   8   9
ENDBRANCH   3   4
BRANCH   3  18
ATOM     17  C   UNL     1      -0.401  -2.073   2.176  0.00  0.00    +0.002 C 
ATOM     18  C   UNL     1      -1.366  -1.686   1.053  0.00  0.00    -0.011 C 
ENDBRANCH   3  18
ENDBRANCH   1   3
BRANCH   1  19
ATOM     19  C   UNL     1       0.254   1.635   0.381  0.00  0.00    -0.042 C 
BRANCH  19  20
ATOM     20  C   UNL     1       1.730   1.936   0.357  0.00  0.00    -0.064 A 
ATOM     21  C   UNL     1       2.459   1.913   1.532  0.00  0.00    +0.005 A 
ATOM     22  C   UNL     1       3.813   2.183   1.511  0.00  0.00    +0.046 A 
ATOM     23  C   UNL     1       4.440   2.489   0.312  0.00  0.00    +0.120 A 
ATOM     24  C   UNL     1       3.706   2.517  -0.865  0.00  0.00    +0.046 A 
ATOM     25  C   UNL     1       2.353   2.241  -0.840  0.00  0.00    +0.005 A 
BRANCH  23  26
ATOM     26  O   UNL     1       5.772   2.760   0.290  0.00  0.00    -0.495 OA
ATOM     27  C   UNL     1       6.464   2.713   1.540  0.00  0.00    +0.277 C 
ENDBRANCH  23  26
ENDBRANCH  19  20
ENDBRANCH   1  19
BRANCH   1  28
ATOM     28  C   UNL     1       0.288  -0.347  -1.010  0.00  0.00    -0.036 C 
BRANCH  28  29
ATOM     29  C   UNL     1      -0.749   0.203  -1.954  0.00  0.00    +0.001 A 
ATOM     30  C   UNL     1      -0.486   1.328  -2.665  0.00  0.00    +0.017 A 
ATOM     31  C   UNL     1      -1.514   1.837  -3.575  0.00  0.00    -0.001 A 
ATOM     32  C   UNL     1      -1.300   2.992  -4.334  0.00  0.00    +0.010 A 
ATOM     33  C   UNL     1      -2.280   3.441  -5.174  0.00  0.00    +0.004 A 
ATOM     34  C   UNL     1      -3.486   2.761  -5.280  0.00  0.00    -0.048 A 
ATOM     35  C   UNL     1      -3.718   1.621  -4.541  0.00  0.00    +0.029 A 
ATOM     36  C   UNL     1      -2.735   1.145  -3.679  0.00  0.00    +0.049 A 
ATOM     37  N   UNL     1      -2.940   0.007  -2.929  0.00  0.00    -0.322 N 
ATOM     38  H   UNL     1      -3.782  -0.469  -3.002  0.00  0.00    +0.169 HD
ATOM     39  C   UNL     1      -1.988  -0.456  -2.100  0.00  0.00    +0.251 A 
ATOM     40  O   UNL     1      -2.202  -1.468  -1.456  0.00  0.00    -0.268 OA
ATOM     41  C   UNL     1      -4.552   3.275  -6.213  0.00  0.00    +0.044 C 
ENDBRANCH  28  29
ENDBRANCH   1  28
TORSDOF 11
