REMARK  Name = ZINC40317841
REMARK  12 active torsions:
REMARK  status: ('A' for Active; 'I' for Inactive)
REMARK    1  A    between atoms: C_1  and  N_2
REMARK    2  A    between atoms: N_2  and  C_3
REMARK    3  A    between atoms: N_2  and  C_4
REMARK    4  A    between atoms: C_7  and  C_10
REMARK    5  A    between atoms: C_10  and  N_11
REMARK    6  A    between atoms: N_11  and  C_12
REMARK    7  A    between atoms: N_11  and  C_26
REMARK    8  A    between atoms: C_12  and  C_13
REMARK    9  A    between atoms: C_13  and  C_15
REMARK   10  A    between atoms: C_13  and  O_25
REMARK   11  A    between atoms: C_15  and  O_16
REMARK   12  A    between atoms: O_16  and  C_17
REMARK                            x       y       z     vdW  Elec       q    Type
REMARK                         _______ _______ _______ _____ _____    ______ ____
ROOT
ATOM      1  N   UNL     1      -5.256  -3.079   1.302  0.00  0.00    +0.387 N 
ATOM      2  H   UNL     1      -5.208  -2.128   1.637  0.00  0.00    -0.081 HD
ENDROOT
BRANCH   1   3
ATOM      3  C   UNL     1      -4.069  -3.817   1.753  0.00  0.00    -0.045 C 
ATOM      4  C   UNL     1      -2.824  -2.922   1.636  0.00  0.00    +0.009 C 
ATOM      5  C   UNL     1      -1.543  -3.775   1.798  0.00  0.00    +0.164 C 
ATOM      6  S   UNL     1      -2.079  -5.428   1.194  0.00  0.00    -0.033 S 
ATOM      7  O   UNL     1      -1.995  -6.360   2.263  0.00  0.00    -0.174 OA
ATOM      8  O   UNL     1      -1.419  -5.708  -0.033  0.00  0.00    -0.174 OA
ATOM      9  C   UNL     1      -3.853  -5.066   0.851  0.00  0.00    +0.151 C 
ENDBRANCH   1   3
BRANCH   1  10
ATOM     10  C   UNL     1      -5.303  -3.078  -0.166  0.00  0.00    -0.042 C 
BRANCH  10  14
ATOM     11  C   UNL     1      -2.133  -0.654  -1.695  0.00  0.00    +0.029 A 
ATOM     12  C   UNL     1      -1.997  -2.036  -1.659  0.00  0.00    +0.023 A 
ATOM     13  C   UNL     1      -3.023  -2.817  -1.164  0.00  0.00    +0.003 A 
ATOM     14  C   UNL     1      -4.185  -2.224  -0.705  0.00  0.00    -0.064 A 
ATOM     15  C   UNL     1      -4.324  -0.848  -0.740  0.00  0.00    +0.003 A 
ATOM     16  C   UNL     1      -3.299  -0.061  -1.228  0.00  0.00    +0.023 A 
BRANCH  11  18
ATOM     17  C   UNL     1      -1.239   1.595  -2.227  0.00  0.00    +0.129 C 
ATOM     18  N   UNL     1      -1.097   0.138  -2.195  0.00  0.00    -0.336 N 
ATOM     19  C   UNL     1       0.133  -0.489  -2.687  0.00  0.00    +0.129 C 
ENDBRANCH  11  18
ENDBRANCH  10  14
ENDBRANCH   1  10
BRANCH   1  20
ATOM     20  C   UNL     1      -6.464  -3.724   1.831  0.00  0.00    -0.043 C 
BRANCH  20  21
ATOM     21  C   UNL     1      -6.495  -3.579   3.354  0.00  0.00    +0.135 C 
BRANCH  21  22
ATOM     22  O   UNL     1      -6.549  -2.193   3.699  0.00  0.00    -0.390 OA
ATOM     23  H   UNL     1      -7.325  -1.732   3.353  0.00  0.00    +0.210 HD
ENDBRANCH  21  22
BRANCH  21  24
ATOM     24  C   UNL     1      -7.730  -4.292   3.909  0.00  0.00    +0.258 C 
BRANCH  24  25
ATOM     25  O   UNL     1      -7.698  -4.256   5.338  0.00  0.00    -0.488 OA
BRANCH  25  26
ATOM     26  C   UNL     1      -8.731  -4.850   5.993  0.00  0.00    +0.139 A 
ATOM     27  C   UNL     1      -9.750  -5.458   5.276  0.00  0.00    +0.048 A 
ATOM     28  C   UNL     1     -10.799  -6.061   5.943  0.00  0.00    +0.023 A 
ATOM     29  C   UNL     1     -10.834  -6.058   7.326  0.00  0.00    +0.043 A 
ATOM     30  C   UNL     1      -9.818  -5.452   8.044  0.00  0.00    +0.043 A 
ATOM     31  C   UNL     1      -8.764  -4.853   7.380  0.00  0.00    +0.084 A 
ATOM     32 CL   UNL     1      -7.486  -4.098   8.281  0.00  0.00    -0.080 Cl
ATOM     33 CL   UNL     1     -12.153  -6.816   8.162  0.00  0.00    -0.083 Cl
ENDBRANCH  25  26
ENDBRANCH  24  25
ENDBRANCH  21  24
ENDBRANCH  20  21
ENDBRANCH   1  20
TORSDOF 10
