REMARK  Name = ZINC19717552
REMARK  6 active torsions:
REMARK  status: ('A' for Active; 'I' for Inactive)
REMARK    1  A    between atoms: C_1  and  C_2
REMARK    2  A    between atoms: C_2  and  C_4
REMARK    3  A    between atoms: C_2  and  N_10
REMARK    4  A    between atoms: C_13  and  C_18
REMARK    5  A    between atoms: N_21  and  C_24
REMARK    6  A    between atoms: C_24  and  C_25
REMARK                            x       y       z     vdW  Elec       q    Type
REMARK                         _______ _______ _______ _____ _____    ______ ____
ROOT
ATOM      1  N   UNL     1       0.711  -0.489   1.189  0.00  0.00    -0.308 N 
ATOM      2  C   UNL     1       0.041  -0.636   2.374  0.00  0.00    +0.196 A 
ATOM      3  N   UNL     1       0.691  -1.068   3.436  0.00  0.00    -0.221 NA
ATOM      4  C   UNL     1       0.077  -1.225   4.607  0.00  0.00    +0.053 A 
ATOM      5  C   UNL     1      -1.251  -0.936   4.728  0.00  0.00    +0.093 A 
ATOM      6  C   UNL     1      -1.951  -0.474   3.600  0.00  0.00    +0.253 A 
ATOM      7  N   UNL     1      -1.283  -0.327   2.436  0.00  0.00    -0.295 N 
ATOM      8  O   UNL     1      -3.140  -0.207   3.672  0.00  0.00    -0.268 OA
ATOM      9  H   UNL     1       1.654  -0.707   1.135  0.00  0.00    +0.149 HD
ATOM     10  H   UNL     1      -1.745  -0.006   1.646  0.00  0.00    +0.172 HD
ENDROOT
BRANCH   4  11
ATOM     11  C   UNL     1       0.851  -1.722   5.801  0.00  0.00    +0.035 C 
ATOM     12  C   UNL     1       2.002  -0.757   6.103  0.00  0.00    -0.009 C 
ATOM     13  C   UNL     1       2.830  -1.308   7.266  0.00  0.00    -0.078 C 
ATOM     14  N   UNL     1       3.374  -2.623   6.904  0.00  0.00    +0.382 N 
ATOM     15  C   UNL     1       2.277  -3.572   6.682  0.00  0.00    -0.078 C 
ATOM     16  C   UNL     1       1.427  -3.108   5.497  0.00  0.00    -0.009 C 
ATOM     17  H   UNL     1       3.920  -2.538   6.059  0.00  0.00    -0.081 HD
BRANCH  14  18
ATOM     18  C   UNL     1       4.231  -3.113   7.991  0.00  0.00    -0.041 C 
BRANCH  18  19
ATOM     19  C   UNL     1       4.888  -4.403   7.571  0.00  0.00    -0.046 A 
ATOM     20  C   UNL     1       4.269  -5.619   7.820  0.00  0.00    +0.005 A 
ATOM     21  C   UNL     1       4.910  -6.779   7.416  0.00  0.00    +0.020 A 
ATOM     22  C   UNL     1       6.135  -6.687   6.783  0.00  0.00    +0.111 A 
ATOM     23  N   UNL     1       6.694  -5.513   6.563  0.00  0.00    -0.263 NA
ATOM     24  C   UNL     1       6.111  -4.388   6.928  0.00  0.00    +0.112 A 
ENDBRANCH  18  19
ENDBRANCH  14  18
ENDBRANCH   4  11
BRANCH   1  26
ATOM     25  C   UNL     1      -0.019   1.526   0.010  0.00  0.00    +0.033 C 
ATOM     26  C   UNL     1       0.002  -0.004   0.002  0.00  0.00    +0.100 C 
BRANCH  26  27
ATOM     27  C   UNL     1       0.707  -0.490  -1.238  0.00  0.00    -0.027 A 
ATOM     28  C   UNL     1       2.089  -0.511  -1.284  0.00  0.00    +0.005 A 
ATOM     29  C   UNL     1       2.736  -0.957  -2.421  0.00  0.00    +0.000 A 
ATOM     30  C   UNL     1       2.002  -1.382  -3.512  0.00  0.00    +0.000 A 
ATOM     31  C   UNL     1       0.620  -1.362  -3.466  0.00  0.00    +0.000 A 
ATOM     32  C   UNL     1      -0.027  -0.920  -2.327  0.00  0.00    +0.005 A 
ENDBRANCH  26  27
ENDBRANCH   1  26
TORSDOF 5
