REMARK  Name = ZINC12219302
REMARK  8 active torsions:
REMARK  status: ('A' for Active; 'I' for Inactive)
REMARK    1  A    between atoms: C_1  and  N_2
REMARK    2  A    between atoms: N_2  and  C_3
REMARK    3  A    between atoms: C_3  and  C_4
REMARK    4  A    between atoms: C_9  and  C_11
REMARK    5  A    between atoms: C_15  and  C_20
REMARK    6  A    between atoms: C_20  and  O_33
REMARK    7  A    between atoms: C_25  and  C_26
REMARK    8  A    between atoms: C_25  and  N_60
REMARK                            x       y       z     vdW  Elec       q    Type
REMARK                         _______ _______ _______ _____ _____    ______ ____
ROOT
ATOM      1  C   UNL     1       1.166   1.943  -0.571  0.00  0.00    +0.191 A 
ATOM      2  C   UNL     1       2.399   1.393  -0.721  0.00  0.00    +0.063 A 
ATOM      3  C   UNL     1       3.298   2.498  -1.050  0.00  0.00    +0.021 A 
ATOM      4  C   UNL     1       4.665   2.594  -1.319  0.00  0.00    +0.018 A 
ATOM      5  C   UNL     1       5.217   3.813  -1.599  0.00  0.00    -0.015 A 
ATOM      6  C   UNL     1       4.427   4.954  -1.618  0.00  0.00    +0.010 A 
ATOM      7  C   UNL     1       3.076   4.881  -1.356  0.00  0.00    +0.047 A 
ATOM      8  C   UNL     1       2.493   3.652  -1.068  0.00  0.00    +0.136 A 
ATOM      9  O   UNL     1       1.232   3.274  -0.784  0.00  0.00    -0.450 OA
ENDROOT
BRANCH   5  10
ATOM     10  C   UNL     1       6.692   3.918  -1.890  0.00  0.00    +0.088 C 
ATOM     11  C   UNL     1       7.454   4.161  -0.584  0.00  0.00    +0.021 C 
ATOM     12  C   UNL     1       8.944   4.329  -0.893  0.00  0.00    -0.075 C 
ATOM     13  C   UNL     1       8.448   5.227  -3.088  0.00  0.00    -0.075 C 
ATOM     14  C   UNL     1       6.943   5.088  -2.845  0.00  0.00    +0.021 C 
ATOM     15  N   UNL     1       9.120   5.485  -1.797  0.00  0.00    +0.383 N 
ATOM     16  H   UNL     1       8.699   6.315  -1.362  0.00  0.00    -0.081 HD
BRANCH  10  17
ATOM     17  O   UNL     1       7.148   2.704  -2.490  0.00  0.00    -0.384 OA
ATOM     18  H   UNL     1       7.022   1.920  -1.938  0.00  0.00    +0.211 HD
ENDBRANCH  10  17
BRANCH  15  19
ATOM     19  C   UNL     1      10.559   5.737  -2.019  0.00  0.00    -0.043 C 
BRANCH  19  20
ATOM     20  C   UNL     1      11.174   6.210  -0.727  0.00  0.00    -0.064 A 
ATOM     21  C   UNL     1      11.199   7.559  -0.427  0.00  0.00    +0.003 A 
ATOM     22  C   UNL     1      11.757   7.993   0.761  0.00  0.00    +0.020 A 
ATOM     23  C   UNL     1      12.302   7.077   1.644  0.00  0.00    +0.041 A 
ATOM     24  C   UNL     1      12.281   5.728   1.340  0.00  0.00    +0.020 A 
ATOM     25  C   UNL     1      11.717   5.295   0.155  0.00  0.00    +0.003 A 
ATOM     26 CL   UNL     1      13.009   7.622   3.133  0.00  0.00    -0.084 Cl
ENDBRANCH  19  20
ENDBRANCH  15  19
ENDBRANCH   5  10
BRANCH   1  29
ATOM     27  C   UNL     1      -1.244   3.323  -0.108  0.00  0.00    +0.133 C 
ATOM     28  N   UNL     1      -1.202   1.864   0.017  0.00  0.00    -0.292 N 
ATOM     29  C   UNL     1      -0.056   1.199  -0.235  0.00  0.00    +0.282 C 
ATOM     30  O   UNL     1      -0.036  -0.016  -0.189  0.00  0.00    -0.267 OA
BRANCH  28  31
ATOM     31  C   UNL     1      -2.403   1.127   0.417  0.00  0.00    +0.163 C 
BRANCH  31  32
ATOM     32  C   UNL     1      -2.440   1.003   1.918  0.00  0.00    +0.066 A 
ATOM     33  C   UNL     1      -3.130   1.896   2.673  0.00  0.00    +0.071 A 
ATOM     34  S   UNL     1      -2.817   1.253   4.311  0.00  0.00    -0.084 S 
ATOM     35  C   UNL     1      -1.823  -0.091   3.838  0.00  0.00    +0.156 A 
ATOM     36  N   UNL     1      -1.800   0.029   2.530  0.00  0.00    -0.251 NA
ENDBRANCH  31  32
ENDBRANCH  28  31
ENDBRANCH   1  29
TORSDOF 7
