REMARK  Name = ZINC39884082
REMARK  4 active torsions:
REMARK  status: ('A' for Active; 'I' for Inactive)
REMARK    1  A    between atoms: C_4  and  C_7
REMARK    2  A    between atoms: N_11  and  C_15
REMARK    3  A    between atoms: C_15  and  C_16
REMARK    4  A    between atoms: N_18  and  C_19
REMARK                            x       y       z     vdW  Elec       q    Type
REMARK                         _______ _______ _______ _____ _____    ______ ____
ROOT
ATOM      1  C   UNL     1       3.754  -0.642  -0.201  0.00  0.00    +0.072 C 
ATOM      2  C   UNL     1       3.776  -1.630  -1.332  0.00  0.00    +0.033 A 
ATOM      3  C   UNL     1       3.537  -2.960  -1.316  0.00  0.00    +0.091 A 
ATOM      4  N   UNL     1       3.658  -3.587  -2.531  0.00  0.00    -0.288 N 
ATOM      5  C   UNL     1       3.978  -2.873  -3.627  0.00  0.00    +0.292 A 
ATOM      6  O   UNL     1       4.120  -3.268  -4.771  0.00  0.00    -0.259 OA
ATOM      7  S   UNL     1       4.135  -1.305  -3.038  0.00  0.00    -0.030 S 
ATOM      8  S   UNL     1       3.083  -3.797   0.197  0.00  0.00    -0.093 S 
ATOM      9  C   UNL     1       2.697  -2.372   1.246  0.00  0.00    +0.152 C 
ATOM     10  C   UNL     1       3.905  -1.392   1.099  0.00  0.00    +0.110 C 
ATOM     11  C   UNL     1       3.816  -0.642   2.390  0.00  0.00    +0.235 C 
ATOM     12  O   UNL     1       4.148   0.503   2.590  0.00  0.00    -0.274 OA
ATOM     13  N   UNL     1       3.287  -1.508   3.294  0.00  0.00    -0.162 N 
ATOM     14  C   UNL     1       2.741  -2.648   2.724  0.00  0.00    +0.244 C 
ATOM     15  O   UNL     1       2.387  -3.659   3.284  0.00  0.00    -0.273 OA
ATOM     16  C   UNL     1       3.274  -1.274   4.621  0.00  0.00    +0.313 C 
ATOM     17  O   UNL     1       3.752  -0.248   5.061  0.00  0.00    -0.252 OA
ATOM     18  N   UNL     1       2.732  -2.179   5.460  0.00  0.00    -0.313 N 
ATOM     19  H   UNL     1       2.351  -2.999   5.108  0.00  0.00    +0.147 HD
ATOM     20  H   UNL     1       2.723  -2.011   6.415  0.00  0.00    +0.147 HD
ENDROOT
BRANCH   1  24
ATOM     21  C   UNL     1       0.043   1.474  -0.217  0.00  0.00    +0.000 A 
ATOM     22  C   UNL     1       1.196   2.105   0.211  0.00  0.00    +0.000 A 
ATOM     23  C   UNL     1       2.397   1.420   0.217  0.00  0.00    +0.004 A 
ATOM     24  C   UNL     1       2.445   0.105  -0.206  0.00  0.00    -0.039 A 
ATOM     25  C   UNL     1       1.291  -0.526  -0.633  0.00  0.00    +0.004 A 
ATOM     26  C   UNL     1       0.091   0.159  -0.640  0.00  0.00    +0.000 A 
ENDBRANCH   1  24
BRANCH   4  27
ATOM     27  C   UNL     1       3.439  -5.032  -2.635  0.00  0.00    +0.222 C 
BRANCH  27  28
ATOM     28  C   UNL     1       1.985  -5.300  -2.926  0.00  0.00    +0.237 C 
ATOM     29  O   UNL     1       1.208  -4.375  -3.035  0.00  0.00    -0.274 OA
ATOM     30  N   UNL     1       1.548  -6.567  -3.064  0.00  0.00    -0.284 N 
ATOM     31  H   UNL     1       2.151  -7.309  -2.902  0.00  0.00    +0.155 HD
BRANCH  30  32
ATOM     32  C   UNL     1       0.222  -6.813  -3.442  0.00  0.00    +0.034 A 
ATOM     33  C   UNL     1      -0.444  -7.930  -2.954  0.00  0.00    +0.026 A 
ATOM     34  C   UNL     1      -1.752  -8.171  -3.329  0.00  0.00    +0.040 A 
ATOM     35  C   UNL     1      -2.398  -7.300  -4.190  0.00  0.00    +0.124 A 
ATOM     36  C   UNL     1      -1.735  -6.186  -4.677  0.00  0.00    +0.040 A 
ATOM     37  C   UNL     1      -0.430  -5.938  -4.301  0.00  0.00    +0.026 A 
ATOM     38  F   UNL     1      -3.677  -7.538  -4.555  0.00  0.00    -0.205 F 
ENDBRANCH  30  32
ENDBRANCH  27  28
ENDBRANCH   4  27
TORSDOF 4
