REMARK  Name = ZINC33383343
REMARK  6 active torsions:
REMARK  status: ('A' for Active; 'I' for Inactive)
REMARK    1  A    between atoms: C_1  and  C_2
REMARK    2  A    between atoms: C_2  and  N_3
REMARK    3  A    between atoms: C_4  and  C_6
REMARK    4  A    between atoms: N_11  and  C_22
REMARK    5  A    between atoms: N_13  and  C_14
REMARK    6  A    between atoms: C_22  and  C_23
REMARK                            x       y       z     vdW  Elec       q    Type
REMARK                         _______ _______ _______ _____ _____    ______ ____
ROOT
ATOM      1  C   UNL     1      -3.014  -2.361   0.018  0.00  0.00    +0.148 C 
ATOM      2  C   UNL     1      -3.080  -3.661   0.822  0.00  0.00    +0.120 C 
ATOM      3  C   UNL     1      -4.401  -4.340   0.699  0.00  0.00    +0.223 C 
ATOM      4  O   UNL     1      -4.728  -5.027   1.643  0.00  0.00    -0.275 OA
ATOM      5  N   UNL     1      -5.264  -4.293  -0.304  0.00  0.00    -0.246 N 
ATOM      6  C   UNL     1      -5.138  -3.460  -1.401  0.00  0.00    +0.164 C 
ATOM      7  N   UNL     1      -6.154  -3.220  -2.197  0.00  0.00    -0.226 NA
ATOM      8  S   UNL     1      -3.550  -2.726  -1.686  0.00  0.00    -0.077 S 
ENDROOT
BRANCH   7   9
ATOM      9  C   UNL     1      -5.998  -2.390  -3.275  0.00  0.00    +0.067 A 
ATOM     10  C   UNL     1      -5.315  -1.180  -3.135  0.00  0.00    +0.029 A 
ATOM     11  C   UNL     1      -5.161  -0.348  -4.224  0.00  0.00    +0.022 A 
ATOM     12  C   UNL     1      -5.682  -0.711  -5.455  0.00  0.00    +0.041 A 
ATOM     13  C   UNL     1      -6.360  -1.909  -5.600  0.00  0.00    +0.022 A 
ATOM     14  C   UNL     1      -6.516  -2.752  -4.520  0.00  0.00    +0.029 A 
ATOM     15 CL   UNL     1      -5.484   0.342  -6.821  0.00  0.00    -0.084 Cl
ENDBRANCH   7   9
BRANCH   1  17
ATOM     16  N   UNL     1      -1.372  -0.511   0.012  0.00  0.00    -0.315 N 
ATOM     17  C   UNL     1      -1.601  -1.839   0.007  0.00  0.00    +0.227 C 
ATOM     18  O   UNL     1      -0.668  -2.615  -0.006  0.00  0.00    -0.275 OA
ATOM     19  H   UNL     1      -2.118   0.109   0.023  0.00  0.00    +0.149 HD
BRANCH  16  21
ATOM     20  C   UNL     1      -0.019   1.526   0.010  0.00  0.00    +0.024 C 
ATOM     21  C   UNL     1       0.002  -0.004   0.002  0.00  0.00    +0.101 C 
ENDBRANCH  16  21
ENDBRANCH   1  17
BRANCH   5  22
ATOM     22  C   UNL     1      -6.428  -5.182  -0.249  0.00  0.00    +0.150 C 
BRANCH  22  23
ATOM     23  C   UNL     1      -7.563  -4.480   0.451  0.00  0.00    -0.026 A 
ATOM     24  C   UNL     1      -7.699  -4.586   1.823  0.00  0.00    +0.009 A 
ATOM     25  C   UNL     1      -8.738  -3.944   2.469  0.00  0.00    +0.050 A 
ATOM     26  C   UNL     1      -9.647  -3.191   1.742  0.00  0.00    +0.166 A 
ATOM     27  C   UNL     1      -9.510  -3.084   0.361  0.00  0.00    +0.167 A 
ATOM     28  C   UNL     1      -8.462  -3.726  -0.280  0.00  0.00    +0.054 A 
ATOM     29  O   UNL     1     -10.518  -2.298  -0.118  0.00  0.00    -0.453 OA
ATOM     30  C   UNL     1     -11.506  -2.260   0.928  0.00  0.00    +0.466 C 
ATOM     31  O   UNL     1     -10.741  -2.472   2.129  0.00  0.00    -0.453 OA
ENDBRANCH  22  23
ENDBRANCH   5  22
TORSDOF 5
