REMARK  Name = ZINC39966178
REMARK  8 active torsions:
REMARK  status: ('A' for Active; 'I' for Inactive)
REMARK    1  A    between atoms: C_1  and  C_2
REMARK    2  A    between atoms: C_9  and  N_14
REMARK    3  A    between atoms: C_10  and  C_11
REMARK    4  A    between atoms: C_15  and  C_17
REMARK    5  A    between atoms: C_17  and  S_18
REMARK    6  A    between atoms: S_18  and  C_19
REMARK    7  A    between atoms: C_22  and  C_25
REMARK    8  A    between atoms: N_23  and  C_24
REMARK                            x       y       z     vdW  Elec       q    Type
REMARK                         _______ _______ _______ _____ _____    ______ ____
ROOT
ATOM      1  N   UNL     1       0.720  -5.859   2.400  0.00  0.00    -0.279 N 
ATOM      2  C   UNL     1       1.760  -6.128   3.213  0.00  0.00    +0.228 C 
ATOM      3  O   UNL     1       2.564  -5.259   3.478  0.00  0.00    -0.275 OA
ATOM      4  H   UNL     1       0.077  -6.554   2.188  0.00  0.00    +0.155 HD
ENDROOT
BRANCH   1  12
ATOM      5  C   UNL     1       0.319   1.384  -0.453  0.00  0.00    +0.008 C 
ATOM      6  C   UNL     1       0.227  -0.141  -0.357  0.00  0.00    -0.009 C 
ATOM      7  C   UNL     1      -1.235  -0.556  -0.176  0.00  0.00    +0.008 C 
ATOM      8  C   UNL     1      -1.368  -2.073  -0.326  0.00  0.00    +0.037 C 
ATOM      9  C   UNL     1      -0.363  -2.745   0.598  0.00  0.00    -0.023 A 
ATOM     10  C   UNL     1       0.692  -2.066   1.099  0.00  0.00    -0.004 A 
ATOM     11  S   UNL     1       1.552  -3.247   2.096  0.00  0.00    -0.077 S 
ATOM     12  C   UNL     1       0.568  -4.588   1.866  0.00  0.00    +0.084 A 
ATOM     13  C   UNL     1      -0.430  -4.133   1.019  0.00  0.00    +0.068 A 
ATOM     14  C   UNL     1       1.040  -0.630   0.851  0.00  0.00    +0.046 C 
BRANCH  13  15
ATOM     15  C   UNL     1      -1.510  -5.016   0.568  0.00  0.00    +0.244 C 
ATOM     16  O   UNL     1      -1.379  -5.665  -0.454  0.00  0.00    -0.270 OA
ATOM     17  N   UNL     1      -2.648  -5.111   1.284  0.00  0.00    -0.325 N 
ATOM     18  H   UNL     1      -2.752  -4.594   2.098  0.00  0.00    +0.145 HD
ATOM     19  H   UNL     1      -3.362  -5.695   0.985  0.00  0.00    +0.145 HD
ENDBRANCH  13  15
ENDBRANCH   1  12
BRANCH   2  20
ATOM     20  C   UNL     1       1.925  -7.509   3.793  0.00  0.00    +0.173 C 
BRANCH  20  21
ATOM     21  S   UNL     1       3.408  -7.553   4.838  0.00  0.00    -0.077 S 
BRANCH  21  22
ATOM     22  C   UNL     1       3.461  -9.210   5.433  0.00  0.00    +0.192 A 
ATOM     23  N   UNL     1       2.605 -10.166   5.154  0.00  0.00    -0.122 NA
ATOM     24  N   UNL     1       2.942 -11.250   5.755  0.00  0.00    -0.128 NA
ATOM     25  C   UNL     1       4.034 -11.054   6.457  0.00  0.00    +0.165 A 
ATOM     26  N   UNL     1       4.404  -9.743   6.268  0.00  0.00    -0.305 N 
ATOM     27  C   UNL     1       5.565  -9.059   6.843  0.00  0.00    +0.153 C 
BRANCH  25  28
ATOM     28  C   UNL     1       4.737 -12.055   7.288  0.00  0.00    +0.030 A 
ATOM     29  C   UNL     1       5.115 -11.744   8.561  0.00  0.00    +0.057 A 
ATOM     30  S   UNL     1       5.894 -13.261   9.092  0.00  0.00    -0.101 S 
ATOM     31  C   UNL     1       5.658 -14.193   7.600  0.00  0.00    -0.006 A 
ATOM     32  C   UNL     1       5.014 -13.336   6.770  0.00  0.00    -0.026 A 
ATOM     33  C   UNL     1       4.626 -13.726   5.346  0.00  0.00    +0.036 C 
ATOM     34  C   UNL     1       4.442 -15.235   5.253  0.00  0.00    +0.005 C 
ATOM     35  C   UNL     1       5.759 -15.920   4.894  0.00  0.00    +0.001 C 
ATOM     36  C   UNL     1       6.790 -15.681   5.992  0.00  0.00    +0.005 C 
ATOM     37  C   UNL     1       6.065 -15.606   7.334  0.00  0.00    +0.043 C 
ENDBRANCH  25  28
ENDBRANCH  21  22
ENDBRANCH  20  21
ENDBRANCH   2  20
TORSDOF 6
