REMARK  Name = ZINC63161117
REMARK  6 active torsions:
REMARK  status: ('A' for Active; 'I' for Inactive)
REMARK    1  A    between atoms: C_7  and  C_10
REMARK    2  A    between atoms: C_10  and  C_11
REMARK    3  A    between atoms: N_15  and  C_19
REMARK    4  A    between atoms: C_19  and  C_20
REMARK    5  A    between atoms: N_22  and  C_23
REMARK    6  A    between atoms: C_25  and  C_34
REMARK                            x       y       z     vdW  Elec       q    Type
REMARK                         _______ _______ _______ _____ _____    ______ ____
ROOT
ATOM      1  C   UNL     1      -1.438  -3.697  -0.637  0.00  0.00    +0.165 C 
ATOM      2  C   UNL     1      -1.907  -5.116  -0.890  0.00  0.00    +0.244 C 
ATOM      3  O   UNL     1      -2.959  -5.611  -0.547  0.00  0.00    -0.273 OA
ATOM      4  N   UNL     1      -0.911  -5.712  -1.574  0.00  0.00    -0.216 N 
ATOM      5  C   UNL     1       0.111  -4.876  -1.788  0.00  0.00    +0.310 C 
ATOM      6  O   UNL     1       1.124  -5.185  -2.384  0.00  0.00    -0.252 OA
ATOM      7  N   UNL     1      -0.108  -3.651  -1.269  0.00  0.00    -0.287 N 
ATOM      8  H   UNL     1       0.491  -2.888  -1.304  0.00  0.00    +0.151 HD
ENDROOT
BRANCH   1   9
ATOM      9  C   UNL     1      -1.330  -3.425   0.864  0.00  0.00    +0.065 C 
BRANCH   9  16
ATOM     10  C   UNL     1      -3.764   0.378   1.683  0.00  0.00    +0.001 A 
ATOM     11  C   UNL     1      -2.977   1.529   1.830  0.00  0.00    +0.002 A 
ATOM     12  C   UNL     1      -1.630   1.508   1.738  0.00  0.00    +0.026 A 
ATOM     13  C   UNL     1      -0.946   0.287   1.482  0.00  0.00    +0.043 A 
ATOM     14  N   UNL     1       0.329   0.012   1.350  0.00  0.00    -0.380 N 
ATOM     15  C   UNL     1       0.473  -1.425   1.091  0.00  0.00    +0.144 C 
ATOM     16  C   UNL     1      -0.931  -1.988   1.087  0.00  0.00    -0.039 C 
ATOM     17  C   UNL     1      -1.755  -0.942   1.323  0.00  0.00    -0.001 A 
ATOM     18  C   UNL     1      -3.214  -0.833   1.438  0.00  0.00    +0.010 A 
ATOM     19  H   UNL     1       1.055   0.652   1.412  0.00  0.00    +0.160 HD
ENDBRANCH   9  16
ENDBRANCH   1   9
BRANCH   4  20
ATOM     20  C   UNL     1      -0.944  -7.105  -2.029  0.00  0.00    +0.213 C 
BRANCH  20  21
ATOM     21  C   UNL     1      -1.548  -7.170  -3.407  0.00  0.00    +0.232 C 
ATOM     22  O   UNL     1      -1.916  -6.153  -3.957  0.00  0.00    -0.274 OA
ATOM     23  N   UNL     1      -1.681  -8.357  -4.030  0.00  0.00    -0.301 N 
ATOM     24  H   UNL     1      -1.387  -9.171  -3.591  0.00  0.00    +0.150 HD
BRANCH  23  25
ATOM     25  C   UNL     1      -2.269  -8.420  -5.370  0.00  0.00    +0.151 C 
ATOM     26  C   UNL     1      -1.715  -9.618  -6.178  0.00  0.00    +0.132 C 
ATOM     27  C   UNL     1      -1.515  -9.265  -7.631  0.00  0.00    -0.046 C 
ATOM     28  C   UNL     1      -1.451  -7.977  -7.947  0.00  0.00    -0.013 C 
ATOM     29  S   UNL     1      -1.658  -7.052  -6.442  0.00  0.00    -0.106 S 
ATOM     30  C   UNL     1      -1.245  -7.391  -9.316  0.00  0.00    +0.042 C 
ATOM     31  C   UNL     1      -0.754  -8.497 -10.258  0.00  0.00    +0.005 C 
ATOM     32  C   UNL     1      -1.651  -9.725 -10.074  0.00  0.00    +0.005 C 
ATOM     33  C   UNL     1      -1.389 -10.346  -8.702  0.00  0.00    +0.032 C 
BRANCH  26  34
ATOM     34  C   UNL     1      -0.392 -10.039  -5.590  0.00  0.00    +0.220 C 
ATOM     35  O   UNL     1       0.628  -9.479  -5.931  0.00  0.00    -0.275 OA
ATOM     36  N   UNL     1      -0.344 -11.037  -4.686  0.00  0.00    -0.329 N 
ATOM     37  H   UNL     1      -1.148 -11.532  -4.467  0.00  0.00    +0.145 HD
ATOM     38  H   UNL     1       0.496 -11.260  -4.255  0.00  0.00    +0.145 HD
ENDBRANCH  26  34
ENDBRANCH  23  25
ENDBRANCH  20  21
ENDBRANCH   4  20
TORSDOF 6
