REMARK  Name = ZINC62891790
REMARK  9 active torsions:
REMARK  status: ('A' for Active; 'I' for Inactive)
REMARK    1  A    between atoms: C_1  and  C_2
REMARK    2  A    between atoms: C_2  and  C_3
REMARK    3  A    between atoms: C_3  and  C_4
REMARK    4  A    between atoms: C_4  and  C_9
REMARK    5  A    between atoms: N_11  and  C_12
REMARK    6  A    between atoms: C_18  and  C_20
REMARK    7  A    between atoms: C_20  and  C_21
REMARK    8  A    between atoms: C_20  and  C_22
REMARK    9  A    between atoms: C_20  and  C_23
REMARK                            x       y       z     vdW  Elec       q    Type
REMARK                         _______ _______ _______ _____ _____    ______ ____
ROOT
ATOM      1  C   UNL     1      -0.719  -2.143   0.902  0.00  0.00    +0.218 C 
ATOM      2  O   UNL     1      -1.064  -2.042   2.060  0.00  0.00    -0.275 OA
ATOM      3  N   UNL     1      -1.613  -2.504  -0.039  0.00  0.00    -0.312 N 
ATOM      4  H   UNL     1      -1.360  -2.501  -0.975  0.00  0.00    +0.149 HD
ENDROOT
BRANCH   1   5
ATOM      5  C   UNL     1       0.711  -1.866   0.516  0.00  0.00    +0.030 C 
ATOM      6  C   UNL     1       0.769  -0.803  -0.606  0.00  0.00    -0.005 C 
ATOM      7  C   UNL     1       1.034   0.509   0.173  0.00  0.00    -0.082 C 
ATOM      8  N   UNL     1       1.958   0.082   1.255  0.00  0.00    +0.380 N 
ATOM      9  C   UNL     1       1.473  -1.242   1.700  0.00  0.00    -0.067 C 
ATOM     10  H   UNL     1       2.899   0.006   0.898  0.00  0.00    -0.086 HD
ATOM     11  H   UNL     1       1.926   0.740   2.019  0.00  0.00    -0.086 HD
BRANCH   5  12
ATOM     12  C   UNL     1       1.398  -3.155   0.062  0.00  0.00    +0.014 C 
BRANCH  12  14
ATOM     13  C   UNL     1       1.369  -4.996  -1.627  0.00  0.00    +0.004 C 
ATOM     14  C   UNL     1       0.704  -3.689  -1.192  0.00  0.00    -0.002 C 
ENDBRANCH  12  14
ENDBRANCH   5  12
ENDBRANCH   1   5
BRANCH   3  15
ATOM     15  C   UNL     1      -2.968  -2.901   0.352  0.00  0.00    +0.077 C 
ATOM     16  C   UNL     1      -2.892  -4.025   1.388  0.00  0.00    +0.022 C 
ATOM     17  C   UNL     1      -4.307  -4.439   1.796  0.00  0.00    +0.002 C 
ATOM     18  C   UNL     1      -5.036  -3.238   2.400  0.00  0.00    +0.000 C 
ATOM     19  C   UNL     1      -5.112  -2.114   1.365  0.00  0.00    +0.006 C 
ATOM     20  C   UNL     1      -3.697  -1.699   0.956  0.00  0.00    +0.015 C 
BRANCH  20  21
ATOM     21  C   UNL     1      -3.774  -0.576  -0.079  0.00  0.00    -0.033 C 
ATOM     22  C   UNL     1      -4.383  -1.116  -1.374  0.00  0.00    +0.011 C 
ATOM     23  C   UNL     1      -4.648   0.557   0.461  0.00  0.00    +0.011 C 
ATOM     24  C   UNL     1      -2.367  -0.045  -0.361  0.00  0.00    +0.011 C 
ENDBRANCH  20  21
ENDBRANCH   3  15
TORSDOF 5
