REMARK  Name = ZINC36545381
REMARK  12 active torsions:
REMARK  status: ('A' for Active; 'I' for Inactive)
REMARK    1  A    between atoms: C_1  and  C_2
REMARK    2  A    between atoms: C_2  and  C_3
REMARK    3  A    between atoms: C_3  and  C_4
REMARK    4  A    between atoms: C_4  and  N_5
REMARK    5  A    between atoms: C_6  and  C_8
REMARK    6  A    between atoms: C_8  and  C_10
REMARK    7  A    between atoms: C_8  and  N_17
REMARK    8  A    between atoms: C_15  and  C_16
REMARK    9  A    between atoms: N_17  and  C_18
REMARK   10  A    between atoms: C_25  and  C_27
REMARK   11  A    between atoms: C_31  and  O_34
REMARK   12  A    between atoms: C_32  and  O_33
REMARK                            x       y       z     vdW  Elec       q    Type
REMARK                         _______ _______ _______ _____ _____    ______ ____
ROOT
ATOM      1  N   UNL     1      -3.969  -5.803   0.223  0.00  0.00    -0.250 N 
ATOM      2  C   UNL     1      -4.615  -6.591   1.106  0.00  0.00    +0.255 C 
ATOM      3  O   UNL     1      -5.272  -6.092   1.999  0.00  0.00    -0.269 OA
ENDROOT
BRANCH   1   4
ATOM      4  C   UNL     1      -3.300  -6.374  -0.865  0.00  0.00    +0.056 A 
ATOM      5  C   UNL     1      -1.957  -6.709  -0.758  0.00  0.00    +0.025 A 
ATOM      6  C   UNL     1      -1.300  -7.272  -1.834  0.00  0.00    +0.002 A 
ATOM      7  C   UNL     1      -1.977  -7.503  -3.018  0.00  0.00    +0.002 A 
ATOM      8  C   UNL     1      -3.315  -7.171  -3.128  0.00  0.00    +0.022 A 
ATOM      9  C   UNL     1      -3.980  -6.612  -2.053  0.00  0.00    +0.062 A 
ATOM     10 CL   UNL     1      -5.662  -6.201  -2.190  0.00  0.00    -0.082 Cl
ENDBRANCH   1   4
BRANCH   2  11
ATOM     11  C   UNL     1      -4.523  -8.059   0.989  0.00  0.00    +0.082 A 
ATOM     12  C   UNL     1      -3.273  -8.682   0.925  0.00  0.00    +0.017 A 
ATOM     13  C   UNL     1      -3.192 -10.053   0.816  0.00  0.00    +0.005 A 
ATOM     14  C   UNL     1      -4.344 -10.820   0.768  0.00  0.00    +0.049 A 
ATOM     15  C   UNL     1      -5.589 -10.218   0.830  0.00  0.00    +0.159 A 
ATOM     16  C   UNL     1      -5.688  -8.835   0.947  0.00  0.00    +0.171 A 
BRANCH  16  17
ATOM     17  O   UNL     1      -6.906  -8.241   1.014  0.00  0.00    -0.503 OA
ATOM     18  H   UNL     1      -7.274  -7.999   0.152  0.00  0.00    +0.292 HD
ENDBRANCH  16  17
BRANCH  15  19
ATOM     19  O   UNL     1      -6.716 -10.978   0.782  0.00  0.00    -0.503 OA
ATOM     20  H   UNL     1      -7.032 -11.269   1.649  0.00  0.00    +0.292 HD
ENDBRANCH  15  19
ENDBRANCH   2  11
BRANCH   1  21
ATOM     21  C   UNL     1      -3.968  -4.349   0.403  0.00  0.00    +0.198 C 
BRANCH  21  22
ATOM     22  C   UNL     1      -4.442  -3.686  -0.864  0.00  0.00    -0.015 A 
ATOM     23  C   UNL     1      -3.524  -3.240  -1.796  0.00  0.00    +0.006 A 
ATOM     24  C   UNL     1      -3.958  -2.631  -2.959  0.00  0.00    +0.000 A 
ATOM     25  C   UNL     1      -5.312  -2.469  -3.190  0.00  0.00    +0.000 A 
ATOM     26  C   UNL     1      -6.230  -2.916  -2.258  0.00  0.00    +0.004 A 
ATOM     27  C   UNL     1      -5.795  -3.529  -1.098  0.00  0.00    -0.045 A 
ATOM     28  C   UNL     1      -6.797  -4.020  -0.085  0.00  0.00    +0.044 C 
ENDBRANCH  21  22
BRANCH  21  30
ATOM     29  N   UNL     1      -2.352  -2.600   1.072  0.00  0.00    -0.313 N 
ATOM     30  C   UNL     1      -2.571  -3.883   0.722  0.00  0.00    +0.238 C 
ATOM     31  O   UNL     1      -1.644  -4.663   0.663  0.00  0.00    -0.273 OA
ATOM     32  H   UNL     1      -3.080  -1.960   1.049  0.00  0.00    +0.149 HD
BRANCH  29  33
ATOM     33  C   UNL     1      -1.014  -2.173   1.488  0.00  0.00    +0.104 C 
BRANCH  33  34
ATOM     34  C   UNL     1      -1.037  -0.682   1.829  0.00  0.00    +0.018 C 
BRANCH  34  36
ATOM     35  C   UNL     1       0.336   1.256   2.604  0.00  0.00    +0.004 C 
ATOM     36  C   UNL     1       0.360  -0.235   2.263  0.00  0.00    -0.002 C 
ENDBRANCH  34  36
ENDBRANCH  33  34
ENDBRANCH  29  33
ENDBRANCH  21  30
ENDBRANCH   1  21
TORSDOF 10
