REMARK  Name = ZINC39666104
REMARK  9 active torsions:
REMARK  status: ('A' for Active; 'I' for Inactive)
REMARK    1  A    between atoms: C_1  and  C_2
REMARK    2  A    between atoms: C_5  and  O_8
REMARK    3  A    between atoms: O_8  and  C_9
REMARK    4  A    between atoms: C_9  and  C_11
REMARK    5  A    between atoms: C_9  and  C_12
REMARK    6  A    between atoms: C_12  and  N_13
REMARK    7  A    between atoms: C_14  and  C_16
REMARK    8  A    between atoms: C_27  and  C_29
REMARK    9  A    between atoms: C_33  and  C_36
REMARK                            x       y       z     vdW  Elec       q    Type
REMARK                         _______ _______ _______ _____ _____    ______ ____
ROOT
ATOM      1  C   UNL     1       4.838  -6.439   0.555  0.00  0.00    +0.100 C 
ATOM      2  C   UNL     1       5.018  -5.600  -0.730  0.00  0.00    +0.121 C 
ATOM      3  N   UNL     1       6.280  -6.095  -1.327  0.00  0.00    -0.296 N 
ATOM      4  C   UNL     1       6.240  -7.561  -1.109  0.00  0.00    +0.115 C 
ATOM      5  C   UNL     1       5.641  -7.726   0.302  0.00  0.00    -0.004 C 
ATOM      6  C   UNL     1       4.720  -8.941   0.344  0.00  0.00    -0.010 C 
ATOM      7  C   UNL     1       5.550 -10.213   0.148  0.00  0.00    -0.082 C 
ATOM      8  N   UNL     1       6.564 -10.305   1.206  0.00  0.00    +0.379 N 
ATOM      9  C   UNL     1       7.502  -9.181   1.099  0.00  0.00    -0.082 C 
ATOM     10  C   UNL     1       6.755  -7.865   1.335  0.00  0.00    -0.010 C 
ATOM     11  C   UNL     1       7.246  -5.376  -1.932  0.00  0.00    +0.251 C 
ATOM     12  O   UNL     1       8.231  -5.933  -2.376  0.00  0.00    -0.270 OA
ATOM     13  H   UNL     1       6.112 -10.279   2.107  0.00  0.00    -0.086 HD
ATOM     14  H   UNL     1       7.069 -11.173   1.110  0.00  0.00    -0.086 HD
ENDROOT
BRANCH  11  15
ATOM     15  C   UNL     1       7.108  -3.911  -2.056  0.00  0.00    +0.091 A 
ATOM     16  C   UNL     1       7.606  -3.072  -1.055  0.00  0.00    +0.056 A 
ATOM     17  C   UNL     1       7.473  -1.703  -1.178  0.00  0.00    +0.021 A 
ATOM     18  C   UNL     1       6.849  -1.161  -2.287  0.00  0.00    +0.007 A 
ATOM     19  C   UNL     1       6.352  -1.983  -3.282  0.00  0.00    -0.014 A 
ATOM     20  C   UNL     1       6.483  -3.356  -3.177  0.00  0.00    +0.140 A 
ATOM     21  F   UNL     1       6.002  -4.159  -4.152  0.00  0.00    -0.204 F 
ATOM     22  C   UNL     1       5.673  -1.382  -4.485  0.00  0.00    +0.047 C 
ATOM     23 CL   UNL     1       8.389  -3.748   0.338  0.00  0.00    -0.083 Cl
ENDBRANCH  11  15
BRANCH   1  25
ATOM     24  N   UNL     1       2.912  -6.953   2.019  0.00  0.00    -0.312 N 
ATOM     25  C   UNL     1       3.382  -6.763   0.771  0.00  0.00    +0.218 C 
ATOM     26  O   UNL     1       2.634  -6.853  -0.179  0.00  0.00    -0.275 OA
ATOM     27  H   UNL     1       3.510  -6.881   2.779  0.00  0.00    +0.149 HD
BRANCH  24  28
ATOM     28  C   UNL     1       1.497  -7.268   2.229  0.00  0.00    +0.148 C 
BRANCH  28  29
ATOM     29  C   UNL     1       1.227  -7.434   3.726  0.00  0.00    +0.187 C 
ATOM     30  C   UNL     1      -0.219  -7.884   3.937  0.00  0.00    +0.053 C 
BRANCH  29  31
ATOM     31  O   UNL     1       1.439  -6.185   4.389  0.00  0.00    -0.488 OA
BRANCH  31  36
ATOM     32  C   UNL     1       2.771  -6.388   9.858  0.00  0.00    +0.044 C 
ATOM     33  C   UNL     1       2.414  -6.334   8.395  0.00  0.00    -0.050 A 
ATOM     34  C   UNL     1       2.090  -7.496   7.720  0.00  0.00    +0.007 A 
ATOM     35  C   UNL     1       1.763  -7.449   6.378  0.00  0.00    +0.046 A 
ATOM     36  C   UNL     1       1.760  -6.234   5.709  0.00  0.00    +0.121 A 
ATOM     37  C   UNL     1       2.085  -5.069   6.388  0.00  0.00    +0.046 A 
ATOM     38  C   UNL     1       2.406  -5.121   7.731  0.00  0.00    +0.007 A 
ENDBRANCH  31  36
ENDBRANCH  29  31
ENDBRANCH  28  29
ENDBRANCH  24  28
ENDBRANCH   1  25
TORSDOF 6
