REMARK  Name = ZINC18350466
REMARK  6 active torsions:
REMARK  status: ('A' for Active; 'I' for Inactive)
REMARK    1  A    between atoms: C_1  and  C_2
REMARK    2  A    between atoms: N_11  and  C_15
REMARK    3  A    between atoms: C_15  and  C_16
REMARK    4  A    between atoms: N_18  and  C_19
REMARK    5  A    between atoms: C_19  and  C_20
REMARK    6  A    between atoms: N_22  and  C_23
REMARK                            x       y       z     vdW  Elec       q    Type
REMARK                         _______ _______ _______ _____ _____    ______ ____
ROOT
ATOM      1  C   UNL     1      -3.279  -1.876   2.370  0.00  0.00    +0.231 C 
ATOM      2  O   UNL     1      -2.370  -2.210   1.639  0.00  0.00    -0.274 OA
ATOM      3  N   UNL     1      -4.250  -2.756   2.683  0.00  0.00    -0.305 N 
ATOM      4  H   UNL     1      -4.977  -2.489   3.267  0.00  0.00    +0.149 HD
ENDROOT
BRANCH   1   5
ATOM      5  C   UNL     1      -3.322  -0.476   2.926  0.00  0.00    +0.213 C 
BRANCH   5  15
ATOM      6  C   UNL     1      -1.579   3.579   2.489  0.00  0.00    +0.010 C 
ATOM      7  C   UNL     1      -0.837   3.119   1.233  0.00  0.00    +0.018 C 
ATOM      8  C   UNL     1      -1.583   3.612  -0.010  0.00  0.00    +0.006 C 
ATOM      9  C   UNL     1      -0.852   3.134  -1.266  0.00  0.00    +0.000 C 
ATOM     10  C   UNL     1      -0.807   1.604  -1.281  0.00  0.00    +0.003 C 
ATOM     11  C   UNL     1      -0.058   1.104  -0.044  0.00  0.00    +0.035 C 
ATOM     12  C   UNL     1      -0.766   1.596   1.214  0.00  0.00    +0.115 C 
ATOM     13  C   UNL     1      -2.154   1.003   1.303  0.00  0.00    +0.247 C 
ATOM     14  O   UNL     1      -3.066   1.149   0.517  0.00  0.00    -0.273 OA
ATOM     15  N   UNL     1      -2.164   0.279   2.441  0.00  0.00    -0.215 N 
ATOM     16  C   UNL     1      -0.985   0.335   3.071  0.00  0.00    +0.310 C 
ATOM     17  O   UNL     1      -0.750  -0.237   4.117  0.00  0.00    -0.252 OA
ATOM     18  N   UNL     1      -0.088   1.097   2.416  0.00  0.00    -0.285 N 
ATOM     19  H   UNL     1       0.826   1.279   2.686  0.00  0.00    +0.151 HD
ENDBRANCH   5  15
ENDBRANCH   1   5
BRANCH   3  20
ATOM     20  C   UNL     1      -4.207  -4.117   2.143  0.00  0.00    +0.200 C 
BRANCH  20  21
ATOM     21  C   UNL     1      -5.399  -4.893   2.642  0.00  0.00    +0.234 C 
ATOM     22  O   UNL     1      -6.204  -4.362   3.377  0.00  0.00    -0.274 OA
ATOM     23  N   UNL     1      -5.570  -6.178   2.271  0.00  0.00    -0.283 N 
ATOM     24  H   UNL     1      -4.963  -6.583   1.632  0.00  0.00    +0.155 HD
BRANCH  23  25
ATOM     25  C   UNL     1      -6.623  -6.927   2.808  0.00  0.00    +0.047 A 
ATOM     26  C   UNL     1      -7.836  -6.316   3.095  0.00  0.00    +0.024 A 
ATOM     27  C   UNL     1      -8.875  -7.059   3.622  0.00  0.00    +0.002 A 
ATOM     28  C   UNL     1      -8.705  -8.408   3.872  0.00  0.00    +0.001 A 
ATOM     29  C   UNL     1      -7.497  -9.019   3.592  0.00  0.00    +0.017 A 
ATOM     30  C   UNL     1      -6.455  -8.283   3.061  0.00  0.00    +0.039 A 
ATOM     31 BR   UNL     1      -4.802  -9.119   2.680  0.00  0.00    -0.048 Br
ENDBRANCH  23  25
ENDBRANCH  20  21
ENDBRANCH   3  20
TORSDOF 5
