REMARK  Name = ZINC36395450
REMARK  7 active torsions:
REMARK  status: ('A' for Active; 'I' for Inactive)
REMARK    1  A    between atoms: C_1  and  C_2
REMARK    2  A    between atoms: C_2  and  C_4
REMARK    3  A    between atoms: C_2  and  N_12
REMARK    4  A    between atoms: N_12  and  C_13
REMARK    5  A    between atoms: C_14  and  C_16
REMARK    6  A    between atoms: C_16  and  C_17
REMARK    7  A    between atoms: C_17  and  C_18
REMARK                            x       y       z     vdW  Elec       q    Type
REMARK                         _______ _______ _______ _____ _____    ______ ____
ROOT
ATOM      1  N   UNL     1       0.759  -0.541   1.131  0.00  0.00    -0.298 N 
ATOM      2  C   UNL     1       0.258  -0.367   2.497  0.00  0.00    +0.132 C 
ATOM      3  C   UNL     1       1.915  -1.200   0.916  0.00  0.00    +0.216 C 
ATOM      4  O   UNL     1       2.330  -1.343  -0.214  0.00  0.00    -0.276 OA
ENDROOT
BRANCH   1   6
ATOM      5  C   UNL     1      -0.011   1.529   0.081  0.00  0.00    +0.033 C 
ATOM      6  C   UNL     1       0.003   0.001  -0.001  0.00  0.00    +0.104 C 
BRANCH   6   7
ATOM      7  C   UNL     1      -1.411  -0.518   0.045  0.00  0.00    -0.009 A 
ATOM      8  C   UNL     1      -2.434   0.303   0.481  0.00  0.00    +0.008 A 
ATOM      9  C   UNL     1      -3.732  -0.172   0.523  0.00  0.00    +0.020 A 
ATOM     10  C   UNL     1      -4.007  -1.470   0.128  0.00  0.00    +0.042 A 
ATOM     11  C   UNL     1      -2.983  -2.291  -0.309  0.00  0.00    +0.040 A 
ATOM     12  C   UNL     1      -1.685  -1.813  -0.355  0.00  0.00    +0.047 A 
ATOM     13 CL   UNL     1      -0.401  -2.842  -0.909  0.00  0.00    -0.083 Cl
ATOM     14 CL   UNL     1      -5.636  -2.066   0.181  0.00  0.00    -0.083 Cl
ENDBRANCH   6   7
ENDBRANCH   1   6
BRANCH   3  15
ATOM     15  C   UNL     1       2.692  -1.757   2.081  0.00  0.00    +0.098 C 
BRANCH  15  16
ATOM     16  C   UNL     1       3.955  -2.451   1.566  0.00  0.00    +0.041 C 
BRANCH  16  17
ATOM     17  C   UNL     1       4.744  -3.018   2.748  0.00  0.00    +0.161 C 
ATOM     18  C   UNL     1       6.020  -3.681   2.269  0.00  0.00    +0.241 C 
ATOM     19  O   UNL     1       6.941  -3.157   1.680  0.00  0.00    -0.273 OA
ATOM     20  N   UNL     1       5.918  -4.974   2.634  0.00  0.00    -0.239 N 
ATOM     21  C   UNL     1       4.766  -5.217   3.271  0.00  0.00    +0.307 C 
ATOM     22  O   UNL     1       4.448  -6.310   3.697  0.00  0.00    -0.252 OA
ATOM     23  N   UNL     1       3.999  -4.115   3.390  0.00  0.00    -0.288 N 
ATOM     24  H   UNL     1       6.595  -5.646   2.457  0.00  0.00    +0.159 HD
ATOM     25  H   UNL     1       3.129  -4.054   3.815  0.00  0.00    +0.151 HD
ENDBRANCH  16  17
ENDBRANCH  15  16
ENDBRANCH   3  15
TORSDOF 5
