REMARK  Name = ZINC01305060
REMARK  12 active torsions:
REMARK  status: ('A' for Active; 'I' for Inactive)
REMARK    1  A    between atoms: C_1  and  C_2
REMARK    2  A    between atoms: C_5  and  N_9
REMARK    3  A    between atoms: C_6  and  C_8
REMARK    4  A    between atoms: C_10  and  C_12
REMARK    5  A    between atoms: C_12  and  S_13
REMARK    6  A    between atoms: S_13  and  C_14
REMARK    7  A    between atoms: C_15  and  C_37
REMARK    8  A    between atoms: C_16  and  C_32
REMARK    9  A    between atoms: C_18  and  C_22
REMARK   10  A    between atoms: C_19  and  C_21
REMARK   11  A    between atoms: N_24  and  C_25
REMARK   12  A    between atoms: C_30  and  C_31
REMARK                            x       y       z     vdW  Elec       q    Type
REMARK                         _______ _______ _______ _____ _____    ______ ____
ROOT
ATOM      1  C   UNL     1      -0.970  -0.543  -0.297  0.00  0.00    +0.080 C 
ATOM      2  C   UNL     1       0.134  -1.279   0.001  0.00  0.00    +0.072 C 
ATOM      3  C   UNL     1       1.426  -0.623   0.398  0.00  0.00    +0.134 C 
ATOM      4  C   UNL     1       1.417   0.835   0.036  0.00  0.00    +0.047 C 
ATOM      5  C   UNL     1       0.279   1.483  -0.258  0.00  0.00    +0.015 C 
ATOM      6  N   UNL     1      -0.925   0.833  -0.249  0.00  0.00    -0.312 N 
ATOM      7  C   UNL     1       0.328   2.949  -0.604  0.00  0.00    +0.061 C 
ATOM      8  H   UNL     1      -1.860   1.412  -0.203  0.00  0.00    +0.152 HD
ENDROOT
BRANCH   3   9
ATOM      9  C   UNL     1       1.616  -0.762   1.886  0.00  0.00    +0.118 A 
ATOM     10  C   UNL     1       2.644  -1.381   2.493  0.00  0.00    +0.045 A 
ATOM     11  C   UNL     1       2.422  -1.275   3.886  0.00  0.00    +0.041 A 
ATOM     12  C   UNL     1       1.271  -0.598   4.046  0.00  0.00    +0.195 A 
ATOM     13  O   UNL     1       0.790  -0.284   2.832  0.00  0.00    -0.467 OA
ENDBRANCH   3   9
BRANCH   4  14
ATOM     14  C   UNL     1       2.642   1.545   0.005  0.00  0.00    +0.247 C 
ATOM     15  O   UNL     1       2.653   2.727  -0.286  0.00  0.00    -0.270 OA
ATOM     16  N   UNL     1       3.795   0.911   0.297  0.00  0.00    -0.281 N 
ATOM     17  H   UNL     1       3.778  -0.136   0.632  0.00  0.00    +0.155 HD
BRANCH  16  18
ATOM     18  C   UNL     1       5.013   1.587   0.176  0.00  0.00    +0.037 A 
ATOM     19  C   UNL     1       5.091   2.942   0.469  0.00  0.00    +0.023 A 
ATOM     20  C   UNL     1       6.296   3.605   0.352  0.00  0.00    +0.002 A 
ATOM     21  C   UNL     1       7.425   2.923  -0.066  0.00  0.00    +0.000 A 
ATOM     22  C   UNL     1       7.350   1.575  -0.364  0.00  0.00    +0.005 A 
ATOM     23  C   UNL     1       6.148   0.905  -0.244  0.00  0.00    -0.029 A 
ATOM     24  C   UNL     1       6.068  -0.565  -0.569  0.00  0.00    +0.045 C 
ENDBRANCH  16  18
ENDBRANCH   4  14
BRANCH   2  25
ATOM     25  C   UNL     1       0.064  -2.708  -0.065  0.00  0.00    +0.098 C 
ATOM     26  N   UNL     1       0.008  -3.841  -0.118  0.00  0.00    -0.191 NA
ENDBRANCH   2  25
BRANCH   1  27
ATOM     27  S   UNL     1      -2.467  -1.354  -0.748  0.00  0.00    -0.100 S 
BRANCH  27  28
ATOM     28  C   UNL     1      -3.534   0.083  -1.017  0.00  0.00    +0.171 C 
BRANCH  28  30
ATOM     29  N   UNL     1      -5.878   0.520  -1.679  0.00  0.00    -0.285 N 
ATOM     30  C   UNL     1      -4.909  -0.382  -1.424  0.00  0.00    +0.227 C 
ATOM     31  O   UNL     1      -5.144  -1.568  -1.522  0.00  0.00    -0.275 OA
ATOM     32  H   UNL     1      -5.646   1.595  -1.662  0.00  0.00    +0.155 HD
BRANCH  29  37
ATOM     33  C   UNL     1     -11.150  -1.228  -2.834  0.00  0.00    +0.044 C 
ATOM     34  C   UNL     1      -9.749  -0.763  -2.527  0.00  0.00    -0.050 A 
ATOM     35  C   UNL     1      -8.666  -1.513  -2.948  0.00  0.00    +0.005 A 
ATOM     36  C   UNL     1      -7.381  -1.088  -2.673  0.00  0.00    +0.024 A 
ATOM     37  C   UNL     1      -7.178   0.089  -1.964  0.00  0.00    +0.036 A 
ATOM     38  C   UNL     1      -8.268   0.840  -1.543  0.00  0.00    -0.029 A 
ATOM     39  C   UNL     1      -9.550   0.411  -1.826  0.00  0.00    +0.008 A 
ATOM     40  C   UNL     1      -8.051   2.120  -0.778  0.00  0.00    +0.045 C 
ENDBRANCH  29  37
ENDBRANCH  28  30
ENDBRANCH  27  28
ENDBRANCH   1  27
TORSDOF 8
