REMARK  Name = ZINC06077486
REMARK  13 active torsions:
REMARK  status: ('A' for Active; 'I' for Inactive)
REMARK    1  A    between atoms: C_1  and  C_2
REMARK    2  A    between atoms: C_2  and  C_3
REMARK    3  A    between atoms: C_3  and  C_4
REMARK    4  A    between atoms: C_3  and  C_5
REMARK    5  A    between atoms: C_3  and  N_6
REMARK    6  A    between atoms: C_7  and  C_11
REMARK    7  A    between atoms: C_11  and  C_13
REMARK    8  A    between atoms: C_11  and  N_77
REMARK    9  A    between atoms: C_16  and  C_26
REMARK   10  A    between atoms: C_18  and  C_25
REMARK   11  A    between atoms: N_29  and  C_32
REMARK   12  A    between atoms: C_36  and  C_39
REMARK   13  A    between atoms: C_37  and  C_38
REMARK                            x       y       z     vdW  Elec       q    Type
REMARK                         _______ _______ _______ _____ _____    ______ ____
ROOT
ATOM      1  C   UNL     1       5.047  -2.804  -0.018  0.00  0.00    +0.039 C 
ENDROOT
BRANCH   1   2
ATOM      2  C   UNL     1       3.665  -2.234   0.171  0.00  0.00    +0.011 A 
ATOM      3  C   UNL     1       3.487  -0.890   0.194  0.00  0.00    +0.018 A 
ATOM      4  C   UNL     1       2.132  -0.367   0.381  0.00  0.00    +0.002 A 
ATOM      5  C   UNL     1       1.885   1.009   0.415  0.00  0.00    -0.041 A 
ATOM      6  C   UNL     1       0.609   1.465   0.589  0.00  0.00    +0.007 A 
ATOM      7  C   UNL     1      -0.445   0.574   0.734  0.00  0.00    -0.048 A 
ATOM      8  C   UNL     1      -0.226  -0.787   0.705  0.00  0.00    +0.029 A 
ATOM      9  C   UNL     1       1.065  -1.274   0.528  0.00  0.00    +0.050 A 
ATOM     10  N   UNL     1       1.314  -2.630   0.495  0.00  0.00    -0.322 N 
ATOM     11  H   UNL     1       0.555  -3.272   0.599  0.00  0.00    +0.169 HD
ATOM     12  C   UNL     1       2.562  -3.100   0.324  0.00  0.00    +0.251 A 
ATOM     13  O   UNL     1       2.744  -4.305   0.300  0.00  0.00    -0.268 OA
ATOM     14  C   UNL     1      -1.845   1.099   0.920  0.00  0.00    +0.044 C 
ATOM     15  C   UNL     1       3.023   1.986   0.258  0.00  0.00    +0.044 C 
ENDBRANCH   1   2
BRANCH   1  21
ATOM     16  C   UNL     1       5.215  -3.050   2.385  0.00  0.00    -0.058 C 
ATOM     17  C   UNL     1       5.464  -4.060   3.508  0.00  0.00    +0.086 C 
ATOM     18  N   UNL     1       6.807  -4.637   3.357  0.00  0.00    -0.333 N 
ATOM     19  C   UNL     1       6.944  -5.310   2.058  0.00  0.00    +0.086 C 
ATOM     20  C   UNL     1       6.696  -4.301   0.934  0.00  0.00    -0.058 C 
ATOM     21  N   UNL     1       5.335  -3.745   1.085  0.00  0.00    +0.391 N 
ATOM     22  H   UNL     1       4.655  -4.514   1.054  0.00  0.00    -0.080 HD
BRANCH  18  23
ATOM     23  C   UNL     1       7.097  -5.511   4.407  0.00  0.00    +0.033 A 
ATOM     24  C   UNL     1       6.349  -6.670   4.575  0.00  0.00    +0.023 A 
ATOM     25  C   UNL     1       6.640  -7.532   5.614  0.00  0.00    +0.002 A 
ATOM     26  C   UNL     1       7.673  -7.243   6.486  0.00  0.00    +0.004 A 
ATOM     27  C   UNL     1       8.420  -6.091   6.321  0.00  0.00    -0.046 A 
ATOM     28  C   UNL     1       8.139  -5.227   5.281  0.00  0.00    -0.027 A 
ATOM     29  C   UNL     1       8.957  -3.975   5.098  0.00  0.00    +0.046 C 
ATOM     30  C   UNL     1       9.545  -5.780   7.274  0.00  0.00    +0.044 C 
ENDBRANCH  18  23
ENDBRANCH   1  21
BRANCH   1  32
ATOM     31  N   UNL     1       5.787  -3.189  -2.429  0.00  0.00    -0.225 N 
ATOM     32  C   UNL     1       5.107  -3.552  -1.326  0.00  0.00    +0.143 A 
ATOM     33  N   UNL     1       4.511  -4.685  -1.607  0.00  0.00    -0.115 NA
ATOM     34  N   UNL     1       4.804  -4.997  -2.823  0.00  0.00    -0.023 NA
ATOM     35  N   UNL     1       5.577  -4.097  -3.321  0.00  0.00    -0.043 NA
BRANCH  31  36
ATOM     36  C   UNL     1       6.612  -1.988  -2.586  0.00  0.00    +0.061 C 
ATOM     37  C   UNL     1       5.764  -0.746  -2.307  0.00  0.00    +0.036 C 
ATOM     38  C   UNL     1       7.781  -2.040  -1.601  0.00  0.00    +0.036 C 
BRANCH  36  40
ATOM     39  C   UNL     1       8.014  -0.671  -4.181  0.00  0.00    +0.006 C 
ATOM     40  C   UNL     1       7.153  -1.925  -4.016  0.00  0.00    +0.026 C 
ENDBRANCH  36  40
ENDBRANCH  31  36
ENDBRANCH   1  32
TORSDOF 6
