REMARK  Name = ZINC39678350
REMARK  10 active torsions:
REMARK  status: ('A' for Active; 'I' for Inactive)
REMARK    1  A    between atoms: C_1  and  C_2
REMARK    2  A    between atoms: C_2  and  C_3
REMARK    3  A    between atoms: C_3  and  C_4
REMARK    4  A    between atoms: C_4  and  C_5
REMARK    5  A    between atoms: C_5  and  C_7
REMARK    6  A    between atoms: C_5  and  C_8
REMARK    7  A    between atoms: C_12  and  C_21
REMARK    8  A    between atoms: N_23  and  C_24
REMARK    9  A    between atoms: C_24  and  C_25
REMARK   10  A    between atoms: C_30  and  N_31
REMARK                            x       y       z     vdW  Elec       q    Type
REMARK                         _______ _______ _______ _____ _____    ______ ____
ROOT
ATOM      1  C   UNL     1       1.813  -3.828  -1.532  0.00  0.00    +0.218 C 
ATOM      2  O   UNL     1       1.847  -2.628  -1.356  0.00  0.00    -0.275 OA
ATOM      3  N   UNL     1       2.514  -4.381  -2.542  0.00  0.00    -0.300 N 
ATOM      4  C   UNL     1       3.453  -3.708  -3.471  0.00  0.00    +0.121 C 
ATOM      5  C   UNL     1       4.608  -4.718  -3.655  0.00  0.00    +0.100 C 
ATOM      6  C   UNL     1       3.989  -6.087  -3.331  0.00  0.00    -0.004 C 
ATOM      7  C   UNL     1       2.524  -5.800  -2.971  0.00  0.00    +0.115 C 
ATOM      8  C   UNL     1       4.065  -7.004  -4.548  0.00  0.00    -0.010 C 
ATOM      9  C   UNL     1       3.496  -8.378  -4.183  0.00  0.00    -0.082 C 
ATOM     10  N   UNL     1       4.263  -8.947  -3.068  0.00  0.00    +0.379 N 
ATOM     11  C   UNL     1       4.108  -8.107  -1.874  0.00  0.00    -0.082 C 
ATOM     12  C   UNL     1       4.704  -6.722  -2.142  0.00  0.00    -0.010 C 
ATOM     13  H   UNL     1       3.925  -9.877  -2.870  0.00  0.00    -0.086 HD
ATOM     14  H   UNL     1       5.238  -8.993  -3.322  0.00  0.00    -0.086 HD
ENDROOT
BRANCH   5  15
ATOM     15  C   UNL     1       5.733  -4.408  -2.701  0.00  0.00    +0.218 C 
ATOM     16  O   UNL     1       5.497  -3.874  -1.638  0.00  0.00    -0.275 OA
ATOM     17  N   UNL     1       7.001  -4.726  -3.028  0.00  0.00    -0.311 N 
ATOM     18  H   UNL     1       7.199  -5.088  -3.906  0.00  0.00    +0.149 HD
BRANCH  17  19
ATOM     19  C   UNL     1       8.081  -4.524  -2.059  0.00  0.00    +0.141 C 
BRANCH  19  20
ATOM     20  C   UNL     1       9.404  -4.842  -2.706  0.00  0.00    -0.009 A 
ATOM     21  C   UNL     1      10.022  -6.052  -2.458  0.00  0.00    +0.007 A 
ATOM     22  C   UNL     1      11.236  -6.344  -3.051  0.00  0.00    +0.000 A 
ATOM     23  C   UNL     1      11.836  -5.426  -3.895  0.00  0.00    +0.002 A 
ATOM     24  C   UNL     1      11.223  -4.215  -4.148  0.00  0.00    +0.023 A 
ATOM     25  C   UNL     1      10.000  -3.920  -3.557  0.00  0.00    +0.034 A 
BRANCH  25  26
ATOM     26  N   UNL     1       9.375  -2.698  -3.815  0.00  0.00    -0.330 N 
ATOM     27  C   UNL     1       9.633  -1.531  -2.961  0.00  0.00    +0.105 C 
ATOM     28  C   UNL     1      10.071  -0.360  -3.846  0.00  0.00    +0.019 C 
ATOM     29  C   UNL     1       9.019  -0.124  -4.931  0.00  0.00    +0.003 C 
ATOM     30  C   UNL     1       8.898  -1.373  -5.807  0.00  0.00    +0.019 C 
ATOM     31  C   UNL     1       8.451  -2.554  -4.948  0.00  0.00    +0.105 C 
ENDBRANCH  25  26
ENDBRANCH  19  20
ENDBRANCH  17  19
ENDBRANCH   5  15
BRANCH   1  32
ATOM     32  C   UNL     1       0.987  -4.700  -0.623  0.00  0.00    +0.072 C 
ATOM     33  C   UNL     1      -0.409  -4.884  -1.222  0.00  0.00    +0.017 C 
BRANCH  32  34
ATOM     34  C   UNL     1       0.869  -4.037   0.751  0.00  0.00    +0.012 C 
BRANCH  34  35
ATOM     35  C   UNL     1       0.150  -4.983   1.714  0.00  0.00    +0.000 C 
BRANCH  35  37
ATOM     36  C   UNL     1      -0.705  -5.258   4.046  0.00  0.00    +0.004 C 
ATOM     37  C   UNL     1       0.014  -4.312   3.082  0.00  0.00    -0.003 C 
ENDBRANCH  35  37
ENDBRANCH  34  35
ENDBRANCH  32  34
ENDBRANCH   1  32
TORSDOF 8
