REMARK  Name = ZINC43876644
REMARK  8 active torsions:
REMARK  status: ('A' for Active; 'I' for Inactive)
REMARK    1  A    between atoms: C_1  and  C_2
REMARK    2  A    between atoms: C_2  and  C_4
REMARK    3  A    between atoms: C_2  and  N_13
REMARK    4  A    between atoms: N_19  and  C_22
REMARK    5  A    between atoms: C_22  and  C_23
REMARK    6  A    between atoms: N_25  and  C_26
REMARK    7  A    between atoms: C_26  and  C_27
REMARK    8  A    between atoms: C_26  and  C_28
REMARK                            x       y       z     vdW  Elec       q    Type
REMARK                         _______ _______ _______ _____ _____    ______ ____
ROOT
ATOM      1  N   UNL     1       2.745  -0.264   0.067  0.00  0.00    -0.290 N 
ATOM      2  C   UNL     1       2.054  -0.600   1.174  0.00  0.00    +0.303 C 
ATOM      3  O   UNL     1       0.853  -0.415   1.220  0.00  0.00    -0.253 OA
ATOM      4  N   UNL     1       2.694  -1.141   2.229  0.00  0.00    -0.283 N 
ATOM      5  C   UNL     1       1.945  -1.620   3.401  0.00  0.00    +0.124 C 
ATOM      6  C   UNL     1       2.394  -3.052   3.712  0.00  0.00    +0.104 C 
ATOM      7  N   UNL     1       3.856  -3.084   3.854  0.00  0.00    -0.291 NA
ATOM      8  C   UNL     1       4.520  -2.712   2.598  0.00  0.00    +0.104 C 
ATOM      9  C   UNL     1       4.159  -1.272   2.238  0.00  0.00    +0.124 C 
ATOM     10  H   UNL     1       3.712  -0.342   0.056  0.00  0.00    +0.151 HD
ENDROOT
BRANCH   1  12
ATOM     11  C   UNL     1       1.566  -0.973  -1.955  0.00  0.00    +0.036 C 
ATOM     12  C   UNL     1       2.036   0.220  -1.121  0.00  0.00    +0.137 C 
BRANCH  12  13
ATOM     13  C   UNL     1       2.963   1.075  -1.946  0.00  0.00    +0.126 A 
ATOM     14  C   UNL     1       2.613   2.211  -2.564  0.00  0.00    +0.055 A 
ATOM     15  C   UNL     1       3.821   2.699  -3.240  0.00  0.00    +0.020 A 
ATOM     16  C   UNL     1       4.114   3.806  -4.034  0.00  0.00    +0.011 A 
ATOM     17  C   UNL     1       5.380   3.974  -4.523  0.00  0.00    +0.001 A 
ATOM     18  C   UNL     1       6.373   3.050  -4.233  0.00  0.00    +0.004 A 
ATOM     19  C   UNL     1       6.102   1.949  -3.449  0.00  0.00    +0.047 A 
ATOM     20  C   UNL     1       4.823   1.760  -2.942  0.00  0.00    +0.135 A 
ATOM     21  O   UNL     1       4.264   0.812  -2.163  0.00  0.00    -0.458 OA
ENDBRANCH  12  13
ENDBRANCH   1  12
BRANCH   7  22
ATOM     22  C   UNL     1       4.311  -4.400   4.321  0.00  0.00    +0.180 C 
BRANCH  22  23
ATOM     23  C   UNL     1       5.770  -4.326   4.688  0.00  0.00    +0.227 C 
ATOM     24  O   UNL     1       6.372  -3.280   4.571  0.00  0.00    -0.274 OA
ATOM     25  N   UNL     1       6.407  -5.422   5.145  0.00  0.00    -0.312 N 
ATOM     26  H   UNL     1       5.926  -6.259   5.238  0.00  0.00    +0.149 HD
BRANCH  25  27
ATOM     27  C   UNL     1       7.826  -5.350   5.502  0.00  0.00    +0.067 C 
ATOM     28  C   UNL     1       7.965  -4.849   6.941  0.00  0.00    +0.027 C 
ATOM     29  C   UNL     1       8.453  -6.741   5.383  0.00  0.00    +0.027 C 
ENDBRANCH  25  27
ENDBRANCH  22  23
ENDBRANCH   7  22
TORSDOF 5
