REMARK  Name = ZINC38769721
REMARK  9 active torsions:
REMARK  status: ('A' for Active; 'I' for Inactive)
REMARK    1  A    between atoms: C_1  and  C_2
REMARK    2  A    between atoms: C_5  and  N_9
REMARK    3  A    between atoms: C_6  and  C_8
REMARK    4  A    between atoms: C_13  and  C_15
REMARK    5  A    between atoms: C_15  and  C_17
REMARK    6  A    between atoms: C_15  and  S_18
REMARK    7  A    between atoms: S_18  and  C_19
REMARK    8  A    between atoms: C_23  and  C_28
REMARK    9  A    between atoms: N_24  and  C_25
REMARK                            x       y       z     vdW  Elec       q    Type
REMARK                         _______ _______ _______ _____ _____    ______ ____
ROOT
ATOM      1  S   UNL     1       0.106  -8.877  -3.720  0.00  0.00    -0.106 S 
ENDROOT
BRANCH   1   2
ATOM      2  C   UNL     1       0.211 -10.687  -3.664  0.00  0.00    +0.238 C 
ATOM      3  N   UNL     1       1.046 -11.119  -2.531  0.00  0.00    -0.237 N 
ATOM      4  N   UNL     1       0.221 -11.886  -1.699  0.00  0.00    -0.169 NA
ATOM      5  C   UNL     1      -0.991 -11.970  -2.180  0.00  0.00    +0.147 C 
ATOM      6  N   UNL     1      -1.112 -11.271  -3.387  0.00  0.00    -0.282 N 
ATOM      7  H   UNL     1       1.983 -10.914  -2.389  0.00  0.00    +0.171 HD
BRANCH   5   8
ATOM      8  C   UNL     1      -2.039 -12.673  -1.566  0.00  0.00    +0.022 C 
ATOM      9  C   UNL     1      -2.012 -13.315  -0.327  0.00  0.00    +0.006 A 
ATOM     10  C   UNL     1      -1.003 -13.461   0.649  0.00  0.00    +0.010 A 
ATOM     11  C   UNL     1      -1.263 -14.154   1.788  0.00  0.00    +0.001 A 
ATOM     12  C   UNL     1      -2.512 -14.731   2.023  0.00  0.00    +0.002 A 
ATOM     13  C   UNL     1      -3.527 -14.630   1.130  0.00  0.00    +0.026 A 
ATOM     14  C   UNL     1      -3.331 -13.922  -0.084  0.00  0.00    +0.043 A 
ATOM     15  N   UNL     1      -4.142 -13.684  -1.096  0.00  0.00    -0.380 N 
ATOM     16  C   UNL     1      -3.436 -12.889  -2.105  0.00  0.00    +0.152 C 
ATOM     17  H   UNL     1      -5.062 -13.984  -1.161  0.00  0.00    +0.160 HD
ENDBRANCH   5   8
BRANCH   6  18
ATOM     18  C   UNL     1      -2.316 -11.143  -4.213  0.00  0.00    +0.078 C 
ATOM     19  C   UNL     1      -2.290 -11.783  -5.602  0.00  0.00    +0.024 C 
ATOM     20  C   UNL     1      -2.227 -10.261  -5.460  0.00  0.00    +0.024 C 
ENDBRANCH   6  18
ENDBRANCH   1   2
BRANCH   1  21
ATOM     21  C   UNL     1      -0.549  -8.424  -2.090  0.00  0.00    +0.133 C 
ATOM     22  C   UNL     1      -1.970  -8.971  -1.942  0.00  0.00    +0.029 C 
BRANCH  21  27
ATOM     23  N   UNL     1      -0.498  -4.443   0.604  0.00  0.00    -0.269 N 
ATOM     24  C   UNL     1      -0.545  -5.012  -0.617  0.00  0.00    +0.310 C 
ATOM     25  O   UNL     1      -0.606  -4.314  -1.610  0.00  0.00    -0.252 OA
ATOM     26  N   UNL     1      -0.525  -6.354  -0.736  0.00  0.00    -0.239 N 
ATOM     27  C   UNL     1      -0.572  -6.923  -1.957  0.00  0.00    +0.233 C 
ATOM     28  O   UNL     1      -0.632  -6.227  -2.948  0.00  0.00    -0.274 OA
ATOM     29  H   UNL     1      -0.381  -4.996   1.393  0.00  0.00    +0.156 HD
ATOM     30  H   UNL     1      -0.476  -6.911   0.057  0.00  0.00    +0.159 HD
BRANCH  23  35
ATOM     31  C   UNL     1      -0.985   1.185   1.131  0.00  0.00    +0.044 C 
ATOM     32  C   UNL     1      -0.855  -0.310   0.991  0.00  0.00    -0.050 A 
ATOM     33  C   UNL     1      -0.216  -0.848  -0.111  0.00  0.00    +0.005 A 
ATOM     34  C   UNL     1      -0.097  -2.217  -0.243  0.00  0.00    +0.024 A 
ATOM     35  C   UNL     1      -0.618  -3.055   0.735  0.00  0.00    +0.038 A 
ATOM     36  C   UNL     1      -1.258  -2.513   1.841  0.00  0.00    -0.029 A 
ATOM     37  C   UNL     1      -1.371  -1.142   1.968  0.00  0.00    +0.008 A 
ATOM     38  C   UNL     1      -1.825  -3.418   2.903  0.00  0.00    +0.045 C 
ENDBRANCH  23  35
ENDBRANCH  21  27
ENDBRANCH   1  21
TORSDOF 6
