REMARK  Name = ZINC24906302
REMARK  9 active torsions:
REMARK  status: ('A' for Active; 'I' for Inactive)
REMARK    1  A    between atoms: C_1  and  C_2
REMARK    2  A    between atoms: C_3  and  C_30
REMARK    3  A    between atoms: C_7  and  N_19
REMARK    4  A    between atoms: C_9  and  C_11
REMARK    5  A    between atoms: C_11  and  N_12
REMARK    6  A    between atoms: C_15  and  C_18
REMARK    7  A    between atoms: N_19  and  C_20
REMARK    8  A    between atoms: N_23  and  C_26
REMARK    9  A    between atoms: C_26  and  C_27
REMARK                            x       y       z     vdW  Elec       q    Type
REMARK                         _______ _______ _______ _____ _____    ______ ____
ROOT
ATOM      1  C   UNL     1      -2.338   6.995  -6.793  0.00  0.00    +0.045 C 
ATOM      2  C   UNL     1      -2.635   6.886  -5.320  0.00  0.00    -0.028 A 
ATOM      3  C   UNL     1      -3.903   6.852  -4.884  0.00  0.00    -0.008 A 
ATOM      4  S   UNL     1      -3.732   6.723  -3.114  0.00  0.00    -0.074 S 
ATOM      5  C   UNL     1      -1.962   6.718  -3.007  0.00  0.00    +0.114 A 
ATOM      6  C   UNL     1      -1.551   6.817  -4.355  0.00  0.00    +0.051 A 
ATOM      7  C   UNL     1      -0.145   6.834  -4.564  0.00  0.00    +0.131 A 
ATOM      8  N   UNL     1       0.663   6.763  -3.519  0.00  0.00    -0.219 NA
ATOM      9  C   UNL     1       0.208   6.667  -2.283  0.00  0.00    +0.116 A 
ATOM     10  N   UNL     1      -1.085   6.646  -2.025  0.00  0.00    -0.227 NA
ATOM     11  C   UNL     1      -5.170   6.909  -5.697  0.00  0.00    +0.052 C 
ENDROOT
BRANCH   7  12
ATOM     12  N   UNL     1       0.372   6.929  -5.844  0.00  0.00    -0.326 N 
ATOM     13  H   UNL     1      -0.302   7.086  -6.699  0.00  0.00    +0.148 HD
BRANCH  12  14
ATOM     14  C   UNL     1       1.817   6.820  -6.060  0.00  0.00    +0.068 C 
ATOM     15  C   UNL     1       2.469   8.191  -5.857  0.00  0.00    +0.003 C 
ATOM     16  C   UNL     1       3.968   8.084  -6.145  0.00  0.00    -0.076 C 
ATOM     17  N   UNL     1       4.173   7.623  -7.524  0.00  0.00    +0.385 N 
ATOM     18  C   UNL     1       3.596   6.288  -7.729  0.00  0.00    -0.076 C 
ATOM     19  C   UNL     1       2.086   6.341  -7.489  0.00  0.00    +0.003 C 
ATOM     20  H   UNL     1       3.647   8.321  -8.193  0.00  0.00    -0.081 HD
BRANCH  17  21
ATOM     21  C   UNL     1       5.598   7.641  -7.880  0.00  0.00    +0.018 C 
BRANCH  21  22
ATOM     22  C   UNL     1       5.749   7.415  -9.362  0.00  0.00    +0.194 C 
ATOM     23  O   UNL     1       4.770   7.204 -10.046  0.00  0.00    -0.278 OA
ATOM     24  N   UNL     1       6.972   7.448  -9.927  0.00  0.00    -0.331 N 
ATOM     25  H   UNL     1       7.082   7.283 -11.009  0.00  0.00    +0.145 HD
ATOM     26  H   UNL     1       7.860   7.639  -9.307  0.00  0.00    +0.145 HD
ENDBRANCH  21  22
ENDBRANCH  17  21
ENDBRANCH  12  14
ENDBRANCH   7  12
BRANCH   9  27
ATOM     27  C   UNL     1       1.188   6.585  -1.140  0.00  0.00    -0.001 C 
BRANCH  27  28
ATOM     28  N   UNL     1       1.508   5.177  -0.870  0.00  0.00    +0.384 N 
ATOM     29  C   UNL     1       2.269   5.040   0.378  0.00  0.00    -0.078 C 
ATOM     30  C   UNL     1       2.709   3.585   0.553  0.00  0.00    -0.016 C 
ATOM     31  C   UNL     1       1.472   2.683   0.586  0.00  0.00    -0.018 C 
ATOM     32  C   UNL     1       0.672   2.881  -0.705  0.00  0.00    -0.016 C 
ATOM     33  C   UNL     1       0.291   4.356  -0.843  0.00  0.00    -0.078 C 
ATOM     34  C   UNL     1       1.908   1.221   0.699  0.00  0.00    +0.007 C 
ATOM     35  H   UNL     1       2.142   4.809  -1.691  0.00  0.00    -0.081 HD
ENDBRANCH  27  28
ENDBRANCH   9  27
TORSDOF 6
