REMARK  Name = ZINC03911176
REMARK  6 active torsions:
REMARK  status: ('A' for Active; 'I' for Inactive)
REMARK    1  A    between atoms: C_1  and  C_2
REMARK    2  A    between atoms: C_2  and  C_3
REMARK    3  A    between atoms: C_3  and  C_5
REMARK    4  A    between atoms: C_3  and  N_6
REMARK    5  A    between atoms: C_7  and  C_9
REMARK    6  A    between atoms: C_12  and  N_15
REMARK                            x       y       z     vdW  Elec       q    Type
REMARK                         _______ _______ _______ _____ _____    ______ ____
ROOT
ATOM      1  C   UNL     1       3.349   3.815   0.247  0.00  0.00    +0.037 A 
ATOM      2  C   UNL     1       2.071   4.375   0.327  0.00  0.00    +0.015 A 
ATOM      3  C   UNL     1       0.960   3.565   0.248  0.00  0.00    +0.024 A 
ATOM      4  C   UNL     1       1.109   2.190   0.089  0.00  0.00    +0.033 A 
ATOM      5  C   UNL     1       2.381   1.629   0.015  0.00  0.00    +0.024 A 
ATOM      6  C   UNL     1       3.495   2.434   0.087  0.00  0.00    +0.015 A 
ENDROOT
BRANCH   4   7
ATOM      7  N   UNL     1      -0.017   1.374   0.010  0.00  0.00    -0.294 N 
ATOM      8  C   UNL     1       0.056   0.162  -0.642  0.00  0.00    +0.154 C 
ATOM      9  N   UNL     1       1.084  -0.326  -1.332  0.00  0.00    -0.257 NA
ATOM     10  C   UNL     1       0.876  -1.557  -2.017  0.00  0.00    +0.143 C 
ATOM     11  C   UNL     1       1.963  -2.437  -2.602  0.00  0.00    +0.193 C 
ATOM     12  S   UNL     1       0.973  -3.949  -3.012  0.00  0.00    -0.028 S 
ATOM     13  O   UNL     1       1.518  -5.062  -2.318  0.00  0.00    -0.174 OA
ATOM     14  O   UNL     1       0.795  -4.019  -4.420  0.00  0.00    -0.174 OA
ATOM     15  C   UNL     1      -0.636  -3.470  -2.221  0.00  0.00    +0.182 C 
ATOM     16  C   UNL     1      -0.098  -2.472  -1.189  0.00  0.00    +0.101 C 
ATOM     17  S   UNL     1      -1.222  -1.100  -0.751  0.00  0.00    -0.083 S 
ATOM     18  H   UNL     1      -0.853   1.660   0.410  0.00  0.00    +0.154 HD
ENDBRANCH   4   7
BRANCH   1  20
ATOM     19  N   UNL     1       5.773   4.138   0.254  0.00  0.00    -0.309 N 
ATOM     20  C   UNL     1       4.541   4.680   0.331  0.00  0.00    +0.244 C 
ATOM     21  O   UNL     1       4.413   5.881   0.470  0.00  0.00    -0.270 OA
ATOM     22  H   UNL     1       5.876   3.180   0.142  0.00  0.00    +0.149 HD
BRANCH  19  23
ATOM     23  C   UNL     1       6.957   4.997   0.337  0.00  0.00    +0.070 C 
ATOM     24  C   UNL     1       7.277   5.561  -1.049  0.00  0.00    +0.028 C 
BRANCH  23  26
ATOM     25  C   UNL     1       7.878   3.719   2.277  0.00  0.00    +0.005 C 
ATOM     26  C   UNL     1       8.147   4.178   0.842  0.00  0.00    +0.018 C 
ENDBRANCH  23  26
ENDBRANCH  19  23
ENDBRANCH   1  20
TORSDOF 4
