REMARK  Name = ZINC40319361
REMARK  6 active torsions:
REMARK  status: ('A' for Active; 'I' for Inactive)
REMARK    1  A    between atoms: C_1  and  C_2
REMARK    2  A    between atoms: C_5  and  N_22
REMARK    3  A    between atoms: C_7  and  S_8
REMARK    4  A    between atoms: S_8  and  N_11
REMARK    5  A    between atoms: C_16  and  C_18
REMARK    6  A    between atoms: N_20  and  C_21
REMARK                            x       y       z     vdW  Elec       q    Type
REMARK                         _______ _______ _______ _____ _____    ______ ____
ROOT
ATOM      1  S   UNL     1       0.205   0.200   1.982  0.00  0.00    +0.062 S 
ATOM      2  O   UNL     1      -1.013   0.846   2.327  0.00  0.00    -0.153 OA
ATOM      3  O   UNL     1       0.634  -1.001   2.610  0.00  0.00    -0.153 OA
ENDROOT
BRANCH   1  10
ATOM      4  C   UNL     1      -2.060  -1.290   0.646  0.00  0.00    +0.046 C 
ATOM      5  C   UNL     1      -0.954  -0.826  -0.266  0.00  0.00    -0.024 A 
ATOM      6  C   UNL     1      -1.023  -1.086  -1.623  0.00  0.00    +0.007 A 
ATOM      7  C   UNL     1      -0.011  -0.662  -2.461  0.00  0.00    +0.023 A 
ATOM      8  C   UNL     1       1.077   0.027  -1.941  0.00  0.00    +0.026 A 
ATOM      9  C   UNL     1       1.144   0.287  -0.578  0.00  0.00    +0.051 A 
ATOM     10  C   UNL     1       0.125  -0.135   0.254  0.00  0.00    +0.110 A 
BRANCH   8  11
ATOM     11  N   UNL     1       2.103   0.457  -2.786  0.00  0.00    -0.358 N 
ATOM     12  H   UNL     1       2.056   0.275  -3.737  0.00  0.00    +0.142 HD
ATOM     13  H   UNL     1       2.862   0.938  -2.421  0.00  0.00    +0.142 HD
ENDBRANCH   8  11
ENDBRANCH   1  10
BRANCH   1  14
ATOM     14  N   UNL     1       1.411   1.311   2.211  0.00  0.00    -0.165 NA
ATOM     15  C   UNL     1       2.758   0.882   2.614  0.00  0.00    +0.110 C 
ATOM     16  C   UNL     1       3.776   1.458   1.625  0.00  0.00    +0.017 C 
ATOM     17  C   UNL     1       3.598   2.975   1.541  0.00  0.00    +0.003 C 
ATOM     18  C   UNL     1       2.192   3.299   1.031  0.00  0.00    +0.030 C 
ATOM     19  C   UNL     1       1.158   2.744   2.007  0.00  0.00    +0.165 C 
BRANCH  19  20
ATOM     20  C   UNL     1      -0.225   2.937   1.440  0.00  0.00    +0.232 C 
ATOM     21  O   UNL     1      -0.577   2.297   0.472  0.00  0.00    -0.274 OA
ATOM     22  N   UNL     1      -1.069   3.821   2.007  0.00  0.00    -0.317 N 
ATOM     23  C   UNL     1      -2.413   4.008   1.455  0.00  0.00    +0.128 C 
ATOM     24  H   UNL     1      -0.787   4.333   2.781  0.00  0.00    +0.148 HD
ENDBRANCH  19  20
ENDBRANCH   1  14
TORSDOF 4
