REMARK  Name = ZINC63698359
REMARK  7 active torsions:
REMARK  status: ('A' for Active; 'I' for Inactive)
REMARK    1  A    between atoms: C_1  and  C_2
REMARK    2  A    between atoms: C_12  and  S_14
REMARK    3  A    between atoms: S_14  and  N_17
REMARK    4  A    between atoms: C_21  and  C_24
REMARK    5  A    between atoms: N_26  and  C_27
REMARK    6  A    between atoms: C_27  and  C_28
REMARK    7  A    between atoms: C_28  and  C_29
REMARK                            x       y       z     vdW  Elec       q    Type
REMARK                         _______ _______ _______ _____ _____    ______ ____
ROOT
ATOM      1  N   UNL     1      -6.421   2.811  -2.017  0.00  0.00    -0.176 NA
ATOM      2  C   UNL     1      -5.886   4.132  -2.373  0.00  0.00    +0.109 C 
ATOM      3  C   UNL     1      -6.996   4.949  -3.043  0.00  0.00    +0.018 C 
ATOM      4  C   UNL     1      -7.561   4.160  -4.226  0.00  0.00    +0.015 C 
ATOM      5  C   UNL     1      -8.164   2.846  -3.724  0.00  0.00    +0.091 C 
ATOM      6  C   UNL     1      -7.063   2.003  -3.063  0.00  0.00    +0.122 C 
ENDROOT
BRANCH   5   7
ATOM      7  C   UNL     1      -8.750   2.085  -4.885  0.00  0.00    +0.217 C 
ATOM      8  O   UNL     1      -8.335   0.978  -5.156  0.00  0.00    -0.275 OA
ATOM      9  N   UNL     1      -9.735   2.634  -5.623  0.00  0.00    -0.315 N 
ATOM     10  H   UNL     1     -10.067   3.520  -5.406  0.00  0.00    +0.149 HD
BRANCH   9  11
ATOM     11  C   UNL     1     -10.305   1.895  -6.752  0.00  0.00    +0.108 C 
BRANCH  11  12
ATOM     12  C   UNL     1     -11.397   2.737  -7.414  0.00  0.00    +0.065 C 
BRANCH  12  13
ATOM     13  C   UNL     1     -11.992   1.964  -8.594  0.00  0.00    +0.175 C 
ATOM     14  N   UNL     1     -10.962   1.731  -9.614  0.00  0.00    -0.363 N 
ATOM     15  C   UNL     1     -11.358   2.313 -10.709  0.00  0.00    +0.060 A 
ATOM     16  C   UNL     1     -10.767   2.429 -12.049  0.00  0.00    +0.027 A 
ATOM     17  C   UNL     1     -11.423   3.111 -13.009  0.00  0.00    +0.002 A 
ATOM     18  C   UNL     1     -12.667   3.727 -12.785  0.00  0.00    +0.002 A 
ATOM     19  C   UNL     1     -13.296   3.682 -11.594  0.00  0.00    +0.027 A 
ATOM     20  C   UNL     1     -12.675   2.965 -10.472  0.00  0.00    +0.060 A 
ATOM     21  N   UNL     1     -13.042   2.761  -9.240  0.00  0.00    -0.363 N 
ATOM     22  H   UNL     1     -10.137   1.234  -9.494  0.00  0.00    +0.162 HD
ATOM     23  H   UNL     1     -13.860   3.077  -8.825  0.00  0.00    +0.162 HD
ENDBRANCH  12  13
ENDBRANCH  11  12
ENDBRANCH   9  11
ENDBRANCH   5   7
BRANCH   1  24
ATOM     24  S   UNL     1      -6.296   2.240  -0.467  0.00  0.00    +0.061 S 
ATOM     25  O   UNL     1      -7.329   1.278  -0.305  0.00  0.00    -0.153 OA
ATOM     26  O   UNL     1      -6.175   3.377   0.376  0.00  0.00    -0.153 OA
BRANCH  24  38
ATOM     27  C   UNL     1       1.316  -0.742   0.016  0.00  0.00    +0.109 C 
ATOM     28  C   UNL     1       0.002  -0.004   0.002  0.00  0.00    +0.217 C 
ATOM     29  O   UNL     1      -0.015   1.206   0.076  0.00  0.00    -0.276 OA
ATOM     30  N   UNL     1      -1.155  -0.689  -0.092  0.00  0.00    -0.271 N 
ATOM     31  C   UNL     1      -1.154  -2.159  -0.096  0.00  0.00    +0.114 C 
ATOM     32  C   UNL     1      -2.109  -2.625  -1.203  0.00  0.00    +0.024 C 
ATOM     33  C   UNL     1      -3.524  -2.158  -0.864  0.00  0.00    +0.038 C 
ATOM     34  C   UNL     1      -3.534  -0.683  -0.559  0.00  0.00    -0.024 A 
ATOM     35  C   UNL     1      -2.379  -0.012  -0.183  0.00  0.00    +0.040 A 
ATOM     36  C   UNL     1      -2.423   1.347   0.102  0.00  0.00    +0.026 A 
ATOM     37  C   UNL     1      -3.619   2.033   0.016  0.00  0.00    +0.030 A 
ATOM     38  C   UNL     1      -4.771   1.365  -0.356  0.00  0.00    +0.106 A 
ATOM     39  C   UNL     1      -4.728   0.012  -0.650  0.00  0.00    +0.034 A 
ENDBRANCH  24  38
ENDBRANCH   1  24
TORSDOF 6
