REMARK  Name = ZINC20150714
REMARK  12 active torsions:
REMARK  status: ('A' for Active; 'I' for Inactive)
REMARK    1  A    between atoms: C_1  and  C_2
REMARK    2  A    between atoms: C_2  and  O_3
REMARK    3  A    between atoms: O_3  and  C_4
REMARK    4  A    between atoms: C_7  and  N_10
REMARK    5  A    between atoms: C_15  and  C_33
REMARK    6  A    between atoms: C_18  and  C_23
REMARK    7  A    between atoms: C_18  and  C_29
REMARK    8  A    between atoms: C_29  and  O_31
REMARK    9  A    between atoms: O_31  and  C_32
REMARK   10  A    between atoms: C_36  and  N_39
REMARK   11  A    between atoms: N_39  and  C_40
REMARK   12  A    between atoms: N_39  and  C_41
REMARK                            x       y       z     vdW  Elec       q    Type
REMARK                         _______ _______ _______ _____ _____    ______ ____
ROOT
ATOM      1  N   UNL     1      -4.237  -3.380  -0.246  0.00  0.00    -0.210 N 
ATOM      2  C   UNL     1      -4.753  -4.647  -0.161  0.00  0.00    +0.232 C 
ATOM      3  O   UNL     1      -4.154  -5.668   0.099  0.00  0.00    -0.274 OA
ATOM      4  C   UNL     1      -6.195  -4.503  -0.451  0.00  0.00    +0.112 C 
ATOM      5  C   UNL     1      -7.334  -5.240   0.212  0.00  0.00    +0.098 C 
ATOM      6  N   UNL     1      -8.464  -4.258   0.098  0.00  0.00    -0.290 NA
ATOM      7  C   UNL     1      -7.864  -2.904   0.004  0.00  0.00    +0.155 C 
ATOM      8  C   UNL     1      -6.411  -3.101   0.244  0.00  0.00    +0.125 C 
ATOM      9  C   UNL     1      -5.210  -2.413  -0.223  0.00  0.00    +0.233 C 
ATOM     10  O   UNL     1      -5.098  -1.244  -0.525  0.00  0.00    -0.274 OA
ATOM     11  H   UNL     1      -9.055  -4.482  -0.802  0.00  0.00    +0.124 HD
ENDROOT
BRANCH   1  15
ATOM     12  C   UNL     1      -0.159  -2.555  -0.558  0.00  0.00    +0.121 A 
ATOM     13  C   UNL     1      -1.078  -1.515  -0.536  0.00  0.00    +0.047 A 
ATOM     14  C   UNL     1      -2.428  -1.788  -0.439  0.00  0.00    +0.027 A 
ATOM     15  C   UNL     1      -2.865  -3.102  -0.351  0.00  0.00    +0.044 A 
ATOM     16  C   UNL     1      -1.946  -4.142  -0.367  0.00  0.00    +0.027 A 
ATOM     17  C   UNL     1      -0.596  -3.869  -0.470  0.00  0.00    +0.047 A 
BRANCH  12  18
ATOM     18  O   UNL     1       1.169  -2.286  -0.659  0.00  0.00    -0.492 OA
BRANCH  18  20
ATOM     19  C   UNL     1       3.071  -0.807  -0.851  0.00  0.00    +0.048 C 
ATOM     20  C   UNL     1       1.548  -0.911  -0.745  0.00  0.00    +0.225 C 
ENDBRANCH  18  20
ENDBRANCH  12  18
ENDBRANCH   1  15
BRANCH   7  21
ATOM     21  C   UNL     1      -8.452  -1.996   1.053  0.00  0.00    -0.016 A 
ATOM     22  C   UNL     1      -7.668  -1.021   1.641  0.00  0.00    +0.006 A 
ATOM     23  C   UNL     1      -8.208  -0.185   2.600  0.00  0.00    +0.000 A 
ATOM     24  C   UNL     1      -9.530  -0.329   2.977  0.00  0.00    +0.000 A 
ATOM     25  C   UNL     1     -10.313  -1.306   2.392  0.00  0.00    +0.000 A 
ATOM     26  C   UNL     1      -9.774  -2.140   1.430  0.00  0.00    +0.006 A 
ENDBRANCH   7  21
BRANCH   5  27
ATOM     27  C   UNL     1      -7.017  -5.527   1.658  0.00  0.00    -0.030 A 
ATOM     28  C   UNL     1      -6.362  -6.695   2.002  0.00  0.00    +0.007 A 
ATOM     29  C   UNL     1      -6.065  -6.958   3.325  0.00  0.00    +0.023 A 
ATOM     30  C   UNL     1      -6.435  -6.052   4.311  0.00  0.00    +0.029 A 
ATOM     31  C   UNL     1      -7.097  -4.882   3.962  0.00  0.00    +0.023 A 
ATOM     32  C   UNL     1      -7.386  -4.623   2.637  0.00  0.00    +0.007 A 
BRANCH  30  33
ATOM     33  N   UNL     1      -6.140  -6.317   5.651  0.00  0.00    -0.336 N 
ATOM     34  C   UNL     1      -6.636  -5.423   6.700  0.00  0.00    +0.129 C 
ATOM     35  C   UNL     1      -5.336  -7.489   6.006  0.00  0.00    +0.129 C 
ENDBRANCH  30  33
ENDBRANCH   5  27
BRANCH   7  36
ATOM     36  C   UNL     1      -8.098  -2.340  -1.373  0.00  0.00    +0.333 C 
ATOM     37  O   UNL     1      -7.228  -1.705  -1.922  0.00  0.00    -0.248 OA
BRANCH  36  38
ATOM     38  O   UNL     1      -9.272  -2.542  -1.991  0.00  0.00    -0.466 OA
ATOM     39  C   UNL     1      -9.427  -1.969  -3.317  0.00  0.00    +0.280 C 
ENDBRANCH  36  38
ENDBRANCH   7  36
TORSDOF 8
