REMARK  Name = ZINC39664159
REMARK  13 active torsions:
REMARK  status: ('A' for Active; 'I' for Inactive)
REMARK    1  A    between atoms: C_1  and  C_2
REMARK    2  A    between atoms: C_2  and  C_3
REMARK    3  A    between atoms: C_3  and  C_4
REMARK    4  A    between atoms: C_4  and  C_5
REMARK    5  A    between atoms: C_5  and  C_7
REMARK    6  A    between atoms: C_5  and  C_8
REMARK    7  A    between atoms: C_12  and  C_21
REMARK    8  A    between atoms: N_23  and  C_24
REMARK    9  A    between atoms: C_24  and  C_25
REMARK   10  A    between atoms: C_25  and  C_27
REMARK   11  A    between atoms: C_25  and  N_35
REMARK   12  A    between atoms: C_30  and  O_33
REMARK   13  A    between atoms: O_33  and  C_34
REMARK                            x       y       z     vdW  Elec       q    Type
REMARK                         _______ _______ _______ _____ _____    ______ ____
ROOT
ATOM      1  C   UNL     1       1.553  -4.202   2.301  0.00  0.00    +0.218 C 
ATOM      2  O   UNL     1       1.248  -4.869   1.335  0.00  0.00    -0.275 OA
ATOM      3  N   UNL     1       2.151  -4.783   3.360  0.00  0.00    -0.300 N 
ATOM      4  C   UNL     1       2.486  -4.167   4.665  0.00  0.00    +0.121 C 
ATOM      5  C   UNL     1       2.174  -5.264   5.707  0.00  0.00    +0.100 C 
ATOM      6  C   UNL     1       2.265  -6.585   4.925  0.00  0.00    -0.004 C 
ATOM      7  C   UNL     1       2.615  -6.186   3.484  0.00  0.00    +0.115 C 
ATOM      8  C   UNL     1       0.923  -7.311   4.954  0.00  0.00    -0.010 C 
ATOM      9  C   UNL     1       1.055  -8.647   4.219  0.00  0.00    -0.082 C 
ATOM     10  N   UNL     1       2.089  -9.464   4.866  0.00  0.00    +0.379 N 
ATOM     11  C   UNL     1       3.394  -8.802   4.752  0.00  0.00    -0.082 C 
ATOM     12  C   UNL     1       3.361  -7.471   5.510  0.00  0.00    -0.010 C 
ATOM     13  H   UNL     1       1.859  -9.585   5.841  0.00  0.00    -0.086 HD
ATOM     14  H   UNL     1       2.132 -10.367   4.419  0.00  0.00    -0.086 HD
ENDROOT
BRANCH   5  15
ATOM     15  C   UNL     1       3.192  -5.238   6.818  0.00  0.00    +0.218 C 
ATOM     16  O   UNL     1       4.331  -4.892   6.588  0.00  0.00    -0.275 OA
ATOM     17  N   UNL     1       2.835  -5.598   8.067  0.00  0.00    -0.316 N 
ATOM     18  H   UNL     1       1.924  -5.875   8.251  0.00  0.00    +0.149 HD
BRANCH  17  19
ATOM     19  C   UNL     1       3.825  -5.573   9.147  0.00  0.00    +0.093 C 
BRANCH  19  20
ATOM     20  C   UNL     1       3.204  -6.150  10.421  0.00  0.00    -0.020 C 
BRANCH  20  21
ATOM     21  C   UNL     1       2.894  -7.610  10.211  0.00  0.00    -0.059 A 
ATOM     22  C   UNL     1       3.900  -8.552  10.321  0.00  0.00    +0.005 A 
ATOM     23  C   UNL     1       3.618  -9.891  10.128  0.00  0.00    +0.046 A 
ATOM     24  C   UNL     1       2.324 -10.290   9.825  0.00  0.00    +0.120 A 
ATOM     25  C   UNL     1       1.316  -9.342   9.716  0.00  0.00    +0.046 A 
ATOM     26  C   UNL     1       1.602  -8.005   9.915  0.00  0.00    +0.005 A 
BRANCH  24  27
ATOM     27  O   UNL     1       2.044 -11.606   9.635  0.00  0.00    -0.495 OA
ATOM     28  C   UNL     1       0.690 -11.943   9.326  0.00  0.00    +0.277 C 
ENDBRANCH  24  27
ENDBRANCH  20  21
BRANCH  20  29
ATOM     29  N   UNL     1       4.151  -6.006  11.535  0.00  0.00    +0.385 N 
ATOM     30  C   UNL     1       4.405  -4.569  11.809  0.00  0.00    -0.078 C 
ATOM     31  C   UNL     1       4.913  -4.571  13.272  0.00  0.00    -0.020 C 
ATOM     32  C   UNL     1       4.048  -5.666  13.937  0.00  0.00    -0.020 C 
ATOM     33  C   UNL     1       3.564  -6.555  12.777  0.00  0.00    -0.078 C 
ATOM     34  H   UNL     1       5.016  -6.479  11.321  0.00  0.00    -0.081 HD
ENDBRANCH  20  29
ENDBRANCH  19  20
ENDBRANCH  17  19
ENDBRANCH   5  15
BRANCH   1  35
ATOM     35  C   UNL     1       1.263  -2.723   2.318  0.00  0.00    +0.072 C 
ATOM     36  C   UNL     1      -0.117  -2.481   2.934  0.00  0.00    +0.017 C 
BRANCH  35  37
ATOM     37  C   UNL     1       1.284  -2.183   0.886  0.00  0.00    +0.012 C 
BRANCH  37  38
ATOM     38  C   UNL     1       1.114  -0.663   0.912  0.00  0.00    +0.000 C 
BRANCH  38  40
ATOM     39  C   UNL     1       0.965   1.397  -0.493  0.00  0.00    +0.004 C 
ATOM     40  C   UNL     1       1.135  -0.123  -0.519  0.00  0.00    -0.003 C 
ENDBRANCH  38  40
ENDBRANCH  37  38
ENDBRANCH  35  37
ENDBRANCH   1  35
TORSDOF 10
