REMARK  Name = ZINC20608343
REMARK  7 active torsions:
REMARK  status: ('A' for Active; 'I' for Inactive)
REMARK    1  A    between atoms: C_1  and  C_2
REMARK    2  A    between atoms: C_2  and  O_3
REMARK    3  A    between atoms: O_3  and  C_4
REMARK    4  A    between atoms: C_6  and  C_12
REMARK    5  A    between atoms: C_9  and  O_10
REMARK    6  A    between atoms: C_14  and  C_26
REMARK    7  A    between atoms: C_17  and  C_22
REMARK                            x       y       z     vdW  Elec       q    Type
REMARK                         _______ _______ _______ _____ _____    ______ ____
ROOT
ATOM      1  C   UNL     1       0.002  -0.004   0.002  0.00  0.00    +0.026 C 
ATOM      2  C   UNL     1       1.182  -0.666  -0.115  0.00  0.00    +0.039 C 
ATOM      3  C   UNL     1       1.214  -2.130  -0.229  0.00  0.00    +0.073 C 
ATOM      4  N   UNL     1       2.131  -2.758  -0.899  0.00  0.00    -0.167 NA
ATOM      5  N   UNL     1       3.177  -2.105  -1.547  0.00  0.00    -0.184 N 
ATOM      6  C   UNL     1       4.031  -2.553  -2.504  0.00  0.00    +0.240 A 
ATOM      7  N   UNL     1       4.836  -1.565  -2.801  0.00  0.00    -0.124 NA
ATOM      8  N   UNL     1       4.547  -0.525  -2.094  0.00  0.00    -0.120 NA
ATOM      9  C   UNL     1       3.548  -0.798  -1.313  0.00  0.00    +0.217 A 
ATOM     10  S   UNL     1       2.720   0.215  -0.128  0.00  0.00    -0.046 S 
ATOM     11  C   UNL     1       0.136  -2.932   0.455  0.00  0.00    +0.068 C 
ENDROOT
BRANCH   1  14
ATOM     12  C   UNL     1       0.954   3.376   1.325  0.00  0.00    +0.162 A 
ATOM     13  C   UNL     1       0.966   2.014   1.088  0.00  0.00    +0.058 A 
ATOM     14  C   UNL     1      -0.006   1.443   0.259  0.00  0.00    -0.006 A 
ATOM     15  C   UNL     1      -0.982   2.256  -0.329  0.00  0.00    +0.029 A 
ATOM     16  C   UNL     1      -0.989   3.613  -0.082  0.00  0.00    +0.065 A 
ATOM     17  C   UNL     1      -0.025   4.177   0.741  0.00  0.00    +0.160 A 
ATOM     18 BR   UNL     1      -2.295   1.493  -1.456  0.00  0.00    -0.050 Br
BRANCH  17  19
ATOM     19  O   UNL     1      -0.034   5.516   0.976  0.00  0.00    -0.503 OA
ATOM     20  H   UNL     1      -0.805   6.151   0.515  0.00  0.00    +0.292 HD
ENDBRANCH  17  19
BRANCH  12  21
ATOM     21  O   UNL     1       1.897   3.934   2.131  0.00  0.00    -0.489 OA
BRANCH  21  23
ATOM     22  C   UNL     1       3.839   3.856   3.567  0.00  0.00    +0.048 C 
ATOM     23  C   UNL     1       2.869   3.054   2.698  0.00  0.00    +0.226 C 
ENDBRANCH  21  23
ENDBRANCH  12  21
ENDBRANCH   1  14
BRANCH   6  24
ATOM     24  C   UNL     1       4.047  -3.932  -3.112  0.00  0.00    +0.384 C 
ATOM     25  F   UNL     1       5.253  -4.126  -3.795  0.00  0.00    -0.179 F 
ATOM     26  F   UNL     1       3.925  -4.889  -2.099  0.00  0.00    -0.179 F 
ATOM     27 CL   UNL     1       2.671  -4.097  -4.264  0.00  0.00    -0.039 Cl
ENDBRANCH   6  24
TORSDOF 5
