REMARK  Name = ZINC13413575
REMARK  6 active torsions:
REMARK  status: ('A' for Active; 'I' for Inactive)
REMARK    1  A    between atoms: C_1  and  C_2
REMARK    2  A    between atoms: C_3  and  C_27
REMARK    3  A    between atoms: C_5  and  C_7
REMARK    4  A    between atoms: C_8  and  C_9
REMARK    5  A    between atoms: N_14  and  S_17
REMARK    6  A    between atoms: S_17  and  C_20
REMARK                            x       y       z     vdW  Elec       q    Type
REMARK                         _______ _______ _______ _____ _____    ______ ____
ROOT
ATOM      1  C   UNL     1      -0.217  -0.009  -0.102  0.00  0.00    +0.240 C 
ATOM      2  O   UNL     1       0.796  -0.683  -0.152  0.00  0.00    -0.271 OA
ATOM      3  N   UNL     1      -0.132   1.335  -0.078  0.00  0.00    -0.295 N 
ATOM      4  C   UNL     1      -1.344   2.163  -0.135  0.00  0.00    +0.125 C 
ATOM      5  C   UNL     1      -1.345   3.107   1.079  0.00  0.00    +0.128 C 
ATOM      6  N   UNL     1      -0.037   3.772   1.156  0.00  0.00    -0.174 NA
ATOM      7  C   UNL     1       1.176   2.944   1.208  0.00  0.00    +0.128 C 
ATOM      8  C   UNL     1       1.177   2.000  -0.001  0.00  0.00    +0.125 C 
ENDROOT
BRANCH   6   9
ATOM      9  S   UNL     1       0.069   5.425   1.185  0.00  0.00    +0.062 S 
ATOM     10  O   UNL     1       1.286   5.765   0.534  0.00  0.00    -0.153 OA
ATOM     11  O   UNL     1      -1.191   5.919   0.751  0.00  0.00    -0.153 OA
BRANCH   9  12
ATOM     12  C   UNL     1       0.246   5.907   2.870  0.00  0.00    +0.119 A 
ATOM     13  C   UNL     1       1.428   6.476   3.305  0.00  0.00    +0.029 A 
ATOM     14  C   UNL     1       1.566   6.858   4.627  0.00  0.00    +0.002 A 
ATOM     15  C   UNL     1       0.525   6.662   5.515  0.00  0.00    +0.001 A 
ATOM     16  C   UNL     1      -0.655   6.088   5.082  0.00  0.00    +0.017 A 
ATOM     17  C   UNL     1      -0.795   5.710   3.759  0.00  0.00    +0.044 A 
ATOM     18 BR   UNL     1      -2.409   4.924   3.166  0.00  0.00    -0.048 Br
ENDBRANCH   9  12
ENDBRANCH   6   9
BRANCH   1  20
ATOM     19  C   UNL     1      -1.570  -1.989   0.014  0.00  0.00    +0.051 C 
ATOM     20  C   UNL     1      -1.486  -0.639  -0.070  0.00  0.00    +0.071 C 
BRANCH  19  25
ATOM     21  C   UNL     1      -6.496  -2.572   0.024  0.00  0.00    +0.087 C 
ATOM     22  C   UNL     1      -5.022  -2.885   0.052  0.00  0.00    +0.117 A 
ATOM     23  C   UNL     1      -4.465  -4.144   0.133  0.00  0.00    +0.104 A 
ATOM     24  C   UNL     1      -3.059  -3.963   0.129  0.00  0.00    +0.064 A 
ATOM     25  C   UNL     1      -2.840  -2.619   0.047  0.00  0.00    +0.129 A 
ATOM     26  O   UNL     1      -4.032  -1.989   0.007  0.00  0.00    -0.460 OA
BRANCH  23  27
ATOM     27  C   UNL     1      -5.189  -5.425   0.210  0.00  0.00    +0.390 C 
ATOM     28  O   UNL     1      -6.404  -5.438   0.204  0.00  0.00    -0.240 OA
ATOM     29  O   UNL     1      -4.504  -6.583   0.285  0.00  0.00    -0.240 OA
ENDBRANCH  23  27
ENDBRANCH  19  25
ENDBRANCH   1  20
TORSDOF 5
