REMARK  Name = ZINC39697700
REMARK  8 active torsions:
REMARK  status: ('A' for Active; 'I' for Inactive)
REMARK    1  A    between atoms: C_1  and  O_2
REMARK    2  A    between atoms: O_2  and  C_3
REMARK    3  A    between atoms: C_8  and  N_9
REMARK    4  A    between atoms: C_10  and  C_30
REMARK    5  A    between atoms: C_14  and  S_16
REMARK    6  A    between atoms: S_16  and  C_17
REMARK    7  A    between atoms: C_17  and  C_18
REMARK    8  A    between atoms: C_35  and  O_36
REMARK                            x       y       z     vdW  Elec       q    Type
REMARK                         _______ _______ _______ _____ _____    ______ ____
ROOT
ATOM      1  N   UNL     1       0.021  -2.892   0.092  0.00  0.00    -0.270 N 
ATOM      2  C   UNL     1       0.691  -3.175  -1.190  0.00  0.00    +0.222 C 
ATOM      3  N   UNL     1      -0.274  -3.916  -2.004  0.00  0.00    -0.286 N 
ATOM      4  N   UNL     1      -1.336  -4.089  -1.409  0.00  0.00    -0.180 NA
ATOM      5  C   UNL     1      -1.309  -3.507  -0.067  0.00  0.00    +0.273 C 
ATOM      6  H   UNL     1      -0.097  -4.232  -2.904  0.00  0.00    +0.185 HD
ENDROOT
BRANCH   1  12
ATOM      7  C   UNL     1       1.094  -2.915   2.261  0.00  0.00    +0.141 A 
ATOM      8  C   UNL     1       1.602  -2.232   3.353  0.00  0.00    +0.047 A 
ATOM      9  C   UNL     1       1.544  -0.851   3.394  0.00  0.00    +0.004 A 
ATOM     10  C   UNL     1       0.980  -0.148   2.345  0.00  0.00    +0.002 A 
ATOM     11  C   UNL     1       0.471  -0.822   1.251  0.00  0.00    +0.027 A 
ATOM     12  C   UNL     1       0.530  -2.207   1.201  0.00  0.00    +0.076 A 
BRANCH   7  14
ATOM     13  C   UNL     1       1.742  -4.932   3.342  0.00  0.00    +0.277 C 
ATOM     14  O   UNL     1       1.150  -4.274   2.220  0.00  0.00    -0.493 OA
ENDBRANCH   7  14
ENDBRANCH   1  12
BRANCH   2  15
ATOM     15  C   UNL     1       1.923  -4.010  -0.957  0.00  0.00    +0.036 A 
ATOM     16  C   UNL     1       1.855  -5.386  -1.059  0.00  0.00    +0.011 A 
ATOM     17  C   UNL     1       2.986  -6.153  -0.844  0.00  0.00    +0.001 A 
ATOM     18  C   UNL     1       4.187  -5.545  -0.528  0.00  0.00    +0.004 A 
ATOM     19  C   UNL     1       4.260  -4.169  -0.426  0.00  0.00    +0.046 A 
ATOM     20  C   UNL     1       3.128  -3.397  -0.645  0.00  0.00    +0.124 A 
BRANCH  20  21
ATOM     21  O   UNL     1       3.199  -2.043  -0.551  0.00  0.00    -0.506 OA
ATOM     22  H   UNL     1       3.023  -1.701   0.336  0.00  0.00    +0.292 HD
ENDBRANCH  20  21
ENDBRANCH   2  15
BRANCH   5  23
ATOM     23  S   UNL     1      -2.601  -2.243   0.086  0.00  0.00    -0.106 S 
BRANCH  23  24
ATOM     24  C   UNL     1      -2.332  -1.165  -1.348  0.00  0.00    +0.147 C 
BRANCH  24  25
ATOM     25  C   UNL     1      -3.425  -0.129  -1.410  0.00  0.00    +0.120 A 
ATOM     26  N   UNL     1      -3.400   0.774  -2.425  0.00  0.00    -0.310 N 
ATOM     27  H   UNL     1      -2.690   0.736  -3.084  0.00  0.00    +0.170 HD
ATOM     28  C   UNL     1      -4.359   1.724  -2.526  0.00  0.00    +0.259 A 
ATOM     29  O   UNL     1      -4.350   2.538  -3.430  0.00  0.00    -0.267 OA
ATOM     30  C   UNL     1      -5.412   1.734  -1.499  0.00  0.00    +0.065 A 
ATOM     31  C   UNL     1      -6.444   2.670  -1.511  0.00  0.00    +0.015 A 
ATOM     32  C   UNL     1      -7.404   2.634  -0.524  0.00  0.00    +0.001 A 
ATOM     33  C   UNL     1      -7.351   1.675   0.478  0.00  0.00    +0.002 A 
ATOM     34  C   UNL     1      -6.340   0.741   0.508  0.00  0.00    +0.028 A 
ATOM     35  C   UNL     1      -5.355   0.757  -0.481  0.00  0.00    +0.078 A 
ATOM     36  N   UNL     1      -4.344  -0.148  -0.493  0.00  0.00    -0.233 NA
ENDBRANCH  24  25
ENDBRANCH  23  24
ENDBRANCH   5  23
TORSDOF 7
