REMARK  Name = ZINC10002766
REMARK  9 active torsions:
REMARK  status: ('A' for Active; 'I' for Inactive)
REMARK    1  A    between atoms: C_1  and  C_2
REMARK    2  A    between atoms: C_2  and  C_3
REMARK    3  A    between atoms: C_2  and  C_4
REMARK    4  A    between atoms: C_4  and  C_6
REMARK    5  A    between atoms: C_4  and  N_22
REMARK    6  A    between atoms: N_8  and  N_9
REMARK    7  A    between atoms: C_10  and  C_11
REMARK    8  A    between atoms: C_20  and  O_21
REMARK    9  A    between atoms: C_23  and  C_25
REMARK                            x       y       z     vdW  Elec       q    Type
REMARK                         _______ _______ _______ _____ _____    ______ ____
ROOT
ATOM      1  C   UNL     1       3.353  -4.869  -0.871  0.00  0.00    +0.253 C 
ATOM      2  O   UNL     1       4.243  -4.119  -1.216  0.00  0.00    -0.272 OA
ATOM      3  N   UNL     1       3.381  -6.163  -1.246  0.00  0.00    -0.205 N 
ATOM      4  H   UNL     1       2.635  -6.745  -1.033  0.00  0.00    +0.177 HD
ENDROOT
BRANCH   3   5
ATOM      5  N   UNL     1       4.485  -6.667  -1.945  0.00  0.00    -0.188 NA
ATOM      6  C   UNL     1       4.511  -7.915  -2.307  0.00  0.00    +0.142 C 
BRANCH   6   7
ATOM      7  C   UNL     1       5.670  -8.444  -3.040  0.00  0.00    +0.044 A 
ATOM      8  C   UNL     1       5.719  -9.846  -3.449  0.00  0.00    -0.006 A 
ATOM      9  C   UNL     1       4.666 -10.726  -3.170  0.00  0.00    +0.009 A 
ATOM     10  C   UNL     1       4.748 -12.025  -3.574  0.00  0.00    +0.001 A 
ATOM     11  C   UNL     1       5.863 -12.489  -4.266  0.00  0.00    +0.001 A 
ATOM     12  C   UNL     1       6.903 -11.660  -4.559  0.00  0.00    +0.008 A 
ATOM     13  C   UNL     1       6.852 -10.314  -4.158  0.00  0.00    -0.017 A 
ATOM     14  C   UNL     1       7.906  -9.428  -4.442  0.00  0.00    +0.012 A 
ATOM     15  C   UNL     1       7.847  -8.128  -4.050  0.00  0.00    +0.046 A 
ATOM     16  C   UNL     1       6.751  -7.620  -3.355  0.00  0.00    +0.126 A 
BRANCH  16  17
ATOM     17  O   UNL     1       6.734  -6.314  -2.982  0.00  0.00    -0.506 OA
ATOM     18  H   UNL     1       7.116  -6.150  -2.109  0.00  0.00    +0.292 HD
ENDBRANCH  16  17
ENDBRANCH   6   7
ENDBRANCH   3   5
BRANCH   1  19
ATOM     19  C   UNL     1       2.219  -4.353  -0.024  0.00  0.00    +0.163 C 
BRANCH  19  20
ATOM     20  N   UNL     1       2.039  -2.920  -0.268  0.00  0.00    -0.300 N 
ATOM     21  C   UNL     1       0.840  -2.345  -0.051  0.00  0.00    +0.245 C 
ATOM     22  O   UNL     1      -0.093  -3.015   0.348  0.00  0.00    -0.270 OA
ATOM     23  H   UNL     1       2.783  -2.385  -0.586  0.00  0.00    +0.150 HD
BRANCH  21  24
ATOM     24  C   UNL     1       0.659  -0.899  -0.297  0.00  0.00    +0.037 A 
ATOM     25  C   UNL     1      -0.583  -0.300  -0.072  0.00  0.00    +0.016 A 
ATOM     26  C   UNL     1      -0.747   1.048  -0.304  0.00  0.00    +0.039 A 
ATOM     27  C   UNL     1       0.319   1.810  -0.759  0.00  0.00    +0.123 A 
ATOM     28  C   UNL     1       1.553   1.221  -0.984  0.00  0.00    +0.039 A 
ATOM     29  C   UNL     1       1.728  -0.127  -0.755  0.00  0.00    +0.016 A 
ATOM     30  F   UNL     1       0.153   3.132  -0.985  0.00  0.00    -0.205 F 
ENDBRANCH  21  24
ENDBRANCH  19  20
BRANCH  19  32
ATOM     31  C   UNL     1       1.368  -4.105   2.312  0.00  0.00    +0.009 C 
ATOM     32  C   UNL     1       2.541  -4.582   1.454  0.00  0.00    +0.012 C 
ATOM     33  C   UNL     1       2.778  -6.074   1.699  0.00  0.00    +0.009 C 
ENDBRANCH  19  32
ENDBRANCH   1  19
TORSDOF 7
