REMARK  Name = ZINC64002699
REMARK  3 active torsions:
REMARK  status: ('A' for Active; 'I' for Inactive)
REMARK    1  A    between atoms: C_8  and  C_12
REMARK    2  A    between atoms: C_12  and  N_13
REMARK    3  A    between atoms: N_13  and  C_14
REMARK                            x       y       z     vdW  Elec       q    Type
REMARK                         _______ _______ _______ _____ _____    ______ ____
ROOT
ATOM      1  C   UNL     1       2.633  -4.230  -0.177  0.00  0.00    +0.108 C 
ENDROOT
BRANCH   1   9
ATOM      2  C   UNL     1      -0.017   1.377   0.010  0.00  0.00    +0.000 A 
ATOM      3  C   UNL     1       1.172   2.084   0.002  0.00  0.00    +0.004 A 
ATOM      4  C   UNL     1       2.375   1.409  -0.015  0.00  0.00    +0.046 A 
ATOM      5  C   UNL     1       2.398   0.018  -0.024  0.00  0.00    +0.124 A 
ATOM      6  C   UNL     1       1.207  -0.687  -0.012  0.00  0.00    -0.005 A 
ATOM      7  C   UNL     1       0.002  -0.004   0.002  0.00  0.00    +0.007 A 
ATOM      8  C   UNL     1       1.187  -2.194  -0.010  0.00  0.00    +0.047 C 
ATOM      9  C   UNL     1       2.548  -2.729  -0.463  0.00  0.00    +0.048 C 
ATOM     10  C   UNL     1       3.641  -1.990   0.320  0.00  0.00    +0.234 C 
ATOM     11  O   UNL     1       3.602  -0.610  -0.046  0.00  0.00    -0.491 OA
ENDBRANCH   1   9
BRANCH   1  12
ATOM     12  N   UNL     1       3.886  -4.760  -0.720  0.00  0.00    -0.344 N 
ATOM     13  H   UNL     1       4.506  -4.168  -1.175  0.00  0.00    +0.146 HD
BRANCH  12  14
ATOM     14  C   UNL     1       4.181  -6.079  -0.585  0.00  0.00    +0.051 C 
ATOM     15  C   UNL     1       3.330  -6.946   0.047  0.00  0.00    +0.152 C 
ATOM     16  N   UNL     1       3.619  -8.226   0.177  0.00  0.00    -0.164 NA
ATOM     17  N   UNL     1       4.675  -8.806  -0.245  0.00  0.00    -0.079 NA
ATOM     18  C   UNL     1       5.655  -8.159  -0.895  0.00  0.00    +0.277 C 
ATOM     19  O   UNL     1       6.647  -8.742  -1.283  0.00  0.00    -0.270 OA
ATOM     20  C   UNL     1       5.470  -6.670  -1.132  0.00  0.00    +0.215 C 
ATOM     21 CL   UNL     1       5.525  -6.363  -2.908  0.00  0.00    -0.105 Cl
ENDBRANCH  12  14
ENDBRANCH   1  12
TORSDOF 3
