REMARK  Name = ZINC40273623
REMARK  2 active torsions:
REMARK  status: ('A' for Active; 'I' for Inactive)
REMARK    1  A    between atoms: C_3  and  C_8
REMARK    2  A    between atoms: C_8  and  C_10
REMARK                            x       y       z     vdW  Elec       q    Type
REMARK                         _______ _______ _______ _____ _____    ______ ____
ROOT
ATOM      1  C   UNL     1       4.365   2.016   1.306  0.00  0.00    -0.022 A 
ATOM      2  C   UNL     1       4.919   0.791   1.644  0.00  0.00    +0.008 A 
ATOM      3  C   UNL     1       5.556   0.624   2.854  0.00  0.00    +0.032 A 
ATOM      4  C   UNL     1       5.644   1.696   3.744  0.00  0.00    +0.113 A 
ATOM      5  C   UNL     1       5.082   2.933   3.398  0.00  0.00    +0.159 A 
ATOM      6  C   UNL     1       4.449   3.085   2.174  0.00  0.00    +0.054 A 
ATOM      7  O   UNL     1       5.319   3.764   4.439  0.00  0.00    -0.406 OA
ATOM      8  C   UNL     1       5.992   3.077   5.378  0.00  0.00    +0.441 A 
ATOM      9  O   UNL     1       6.401   3.584   6.563  0.00  0.00    -0.221 OA
ATOM     10  N   UNL     1       6.191   1.849   4.981  0.00  0.00    -0.172 NA
ENDROOT
BRANCH   1  11
ATOM     11  C   UNL     1       3.672   2.183  -0.022  0.00  0.00    +0.140 C 
ATOM     12 CL   UNL     1       4.769   1.639  -1.345  0.00  0.00    -0.112 Cl
BRANCH  11  15
ATOM     13  C   UNL     1       0.024   1.212  -0.095  0.00  0.00    +0.001 A 
ATOM     14  C   UNL     1       1.179   1.972  -0.078  0.00  0.00    +0.005 A 
ATOM     15  C   UNL     1       2.414   1.353  -0.039  0.00  0.00    -0.024 A 
ATOM     16  C   UNL     1       2.495  -0.026  -0.017  0.00  0.00    +0.019 A 
ATOM     17  C   UNL     1       1.341  -0.787  -0.034  0.00  0.00    +0.014 A 
ATOM     18  C   UNL     1       0.105  -0.168  -0.072  0.00  0.00    +0.014 A 
ATOM     19  I   UNL     1       1.464  -2.879  -0.001  0.00  0.00    -0.044 I 
ENDBRANCH  11  15
ENDBRANCH   1  11
TORSDOF 2
