REMARK  Name = ZINC17141969
REMARK  2 active torsions:
REMARK  status: ('A' for Active; 'I' for Inactive)
REMARK    1  A    between atoms: C_5  and  C_7
REMARK    2  A    between atoms: N_8  and  N_9
REMARK                            x       y       z     vdW  Elec       q    Type
REMARK                         _______ _______ _______ _____ _____    ______ ____
ROOT
ATOM      1  N   UNL     1      -2.349   0.993   0.019  0.00  0.00    -0.204 N 
ATOM      2  C   UNL     1      -3.558   1.669   0.028  0.00  0.00    +0.256 A 
ATOM      3  N   UNL     1      -4.690   0.978   0.024  0.00  0.00    -0.192 NA
ATOM      4  C   UNL     1      -5.849   1.628   0.039  0.00  0.00    +0.163 A 
ATOM      5  C   UNL     1      -5.826   3.038   0.046  0.00  0.00    +0.138 A 
ATOM      6  C   UNL     1      -7.233   3.476   0.055  0.00  0.00    +0.030 A 
ATOM      7  C   UNL     1      -7.850   4.724   0.065  0.00  0.00    +0.027 A 
ATOM      8  C   UNL     1      -9.227   4.808   0.071  0.00  0.00    +0.019 A 
ATOM      9  C   UNL     1      -9.996   3.654   0.069  0.00  0.00    +0.017 A 
ATOM     10  C   UNL     1      -9.397   2.413   0.060  0.00  0.00    +0.027 A 
ATOM     11  C   UNL     1      -8.010   2.308   0.053  0.00  0.00    +0.050 A 
ATOM     12  N   UNL     1      -7.159   1.215   0.043  0.00  0.00    -0.338 N 
ATOM     13  H   UNL     1      -7.447   0.288   0.039  0.00  0.00    +0.167 HD
ATOM     14 BR   UNL     1     -10.068   6.502   0.083  0.00  0.00    -0.050 Br
ATOM     15  N   UNL     1      -4.661   3.670   0.044  0.00  0.00    -0.142 NA
ATOM     16  N   UNL     1      -3.562   2.998   0.035  0.00  0.00    -0.111 NA
ATOM     17  H   UNL     1      -2.336   0.023   0.013  0.00  0.00    +0.177 HD
ENDROOT
BRANCH   1  19
ATOM     18  C   UNL     1      -0.013   1.076   0.008  0.00  0.00    +0.158 C 
ATOM     19  N   UNL     1      -1.146   1.710   0.017  0.00  0.00    -0.186 NA
BRANCH  18  24
ATOM     20  C   UNL     1       3.649   1.865  -0.023  0.00  0.00    +0.004 A 
ATOM     21  C   UNL     1       3.577   3.252  -0.015  0.00  0.00    +0.020 A 
ATOM     22  C   UNL     1       2.340   3.869   0.001  0.00  0.00    +0.111 A 
ATOM     23  N   UNL     1       1.230   3.159   0.002  0.00  0.00    -0.254 NA
ATOM     24  C   UNL     1       1.254   1.830  -0.000  0.00  0.00    +0.083 A 
ATOM     25  C   UNL     1       2.470   1.143  -0.015  0.00  0.00    +0.029 A 
ENDBRANCH  18  24
ENDBRANCH   1  19
TORSDOF 2
