REMARK  Name = ZINC04554744
REMARK  8 active torsions:
REMARK  status: ('A' for Active; 'I' for Inactive)
REMARK    1  A    between atoms: C_1  and  C_2
REMARK    2  A    between atoms: C_2  and  C_3
REMARK    3  A    between atoms: C_3  and  C_4
REMARK    4  A    between atoms: C_3  and  C_5
REMARK    5  A    between atoms: C_3  and  C_6
REMARK    6  A    between atoms: C_15  and  O_31
REMARK    7  A    between atoms: C_17  and  C_20
REMARK    8  A    between atoms: C_21  and  C_22
REMARK                            x       y       z     vdW  Elec       q    Type
REMARK                         _______ _______ _______ _____ _____    ______ ____
ROOT
ATOM      1  C   UNL     1       0.763  -2.041   1.233  0.00  0.00    -0.000 C 
ATOM      2  C   UNL     1       1.508  -2.550   2.470  0.00  0.00    +0.009 C 
ATOM      3  C   UNL     1       1.324  -4.064   2.602  0.00  0.00    +0.037 C 
ATOM      4  C   UNL     1       1.701  -4.720   1.281  0.00  0.00    -0.023 A 
ATOM      5  C   UNL     1       1.762  -4.001   0.136  0.00  0.00    -0.004 A 
ATOM      6  S   UNL     1       2.231  -5.173  -1.108  0.00  0.00    -0.078 S 
ATOM      7  C   UNL     1       2.337  -6.538  -0.173  0.00  0.00    +0.080 A 
ATOM      8  C   UNL     1       2.020  -6.127   1.127  0.00  0.00    +0.068 A 
ATOM      9  C   UNL     1       2.050  -7.157   2.198  0.00  0.00    +0.220 C 
ATOM     10  N   UNL     1       2.121  -8.408   1.833  0.00  0.00    -0.223 NA
ATOM     11  C   UNL     1       2.108  -8.867   0.450  0.00  0.00    +0.217 C 
ATOM     12  N   UNL     1       2.647  -7.847  -0.467  0.00  0.00    -0.313 N 
ATOM     13  C   UNL     1       1.487  -2.539  -0.026  0.00  0.00    +0.046 C 
ATOM     14  H   UNL     1       3.191  -8.084  -1.235  0.00  0.00    +0.149 HD
ENDROOT
BRANCH   1  15
ATOM     15  C   UNL     1       0.742  -0.511   1.242  0.00  0.00    -0.032 C 
ATOM     16  C   UNL     1       2.178   0.019   1.231  0.00  0.00    +0.011 C 
ATOM     17  C   UNL     1       0.026  -0.018   2.500  0.00  0.00    +0.011 C 
BRANCH  15  19
ATOM     18  C   UNL     1      -0.019   1.526   0.010  0.00  0.00    +0.004 C 
ATOM     19  C   UNL     1       0.002  -0.004   0.002  0.00  0.00    +0.003 C 
ENDBRANCH  15  19
ENDBRANCH   1  15
BRANCH  11  20
ATOM     20  C   UNL     1       0.690  -9.185   0.050  0.00  0.00    +0.019 C 
ATOM     21  C   UNL     1       0.370 -10.412  -0.339  0.00  0.00    +0.007 C 
BRANCH  21  22
ATOM     22  C   UNL     1      -1.020 -10.723  -0.731  0.00  0.00    -0.022 A 
ATOM     23  C   UNL     1      -1.996  -9.727  -0.697  0.00  0.00    +0.012 A 
ATOM     24  C   UNL     1      -3.294 -10.019  -1.063  0.00  0.00    +0.050 A 
ATOM     25  C   UNL     1      -3.633 -11.302  -1.467  0.00  0.00    +0.166 A 
ATOM     26  C   UNL     1      -2.662 -12.302  -1.503  0.00  0.00    +0.167 A 
ATOM     27  C   UNL     1      -1.359 -12.013  -1.142  0.00  0.00    +0.057 A 
ATOM     28  O   UNL     1      -3.245 -13.461  -1.929  0.00  0.00    -0.453 OA
ATOM     29  C   UNL     1      -4.661 -13.263  -1.761  0.00  0.00    +0.466 C 
ATOM     30  O   UNL     1      -4.822 -11.836  -1.870  0.00  0.00    -0.453 OA
ENDBRANCH  21  22
ENDBRANCH  11  20
BRANCH   9  31
ATOM     31  O   UNL     1       2.005  -6.809   3.505  0.00  0.00    -0.492 OA
ATOM     32  H   UNL     1       2.030  -7.561   4.113  0.00  0.00    +0.294 HD
ENDBRANCH   9  31
TORSDOF 5
