REMARK  Name = ZINC08940945
REMARK  4 active torsions:
REMARK  status: ('A' for Active; 'I' for Inactive)
REMARK    1  A    between atoms: C_1  and  C_2
REMARK    2  A    between atoms: N_11  and  C_15
REMARK    3  A    between atoms: C_15  and  C_16
REMARK    4  A    between atoms: N_18  and  C_19
REMARK                            x       y       z     vdW  Elec       q    Type
REMARK                         _______ _______ _______ _____ _____    ______ ____
ROOT
ATOM      1  C   UNL     1      11.132   0.159  -1.570  0.00  0.00    +0.010 C 
ATOM      2  C   UNL     1      10.943   1.470  -0.804  0.00  0.00    +0.018 C 
ATOM      3  C   UNL     1      11.332   1.266   0.662  0.00  0.00    +0.006 C 
ATOM      4  C   UNL     1      11.123   2.572   1.431  0.00  0.00    +0.000 C 
ATOM      5  C   UNL     1       9.651   2.981   1.355  0.00  0.00    +0.003 C 
ATOM      6  C   UNL     1       9.255   3.192  -0.109  0.00  0.00    +0.035 C 
ATOM      7  C   UNL     1       9.483   1.902  -0.888  0.00  0.00    +0.115 C 
ATOM      8  C   UNL     1       8.579   0.807  -0.369  0.00  0.00    +0.247 C 
ATOM      9  O   UNL     1       8.562   0.338   0.748  0.00  0.00    -0.273 OA
ATOM     10  N   UNL     1       7.796   0.461  -1.412  0.00  0.00    -0.215 N 
ATOM     11  C   UNL     1       8.085   1.179  -2.505  0.00  0.00    +0.310 C 
ATOM     12  O   UNL     1       7.518   1.045  -3.571  0.00  0.00    -0.252 OA
ATOM     13  N   UNL     1       9.074   2.068  -2.289  0.00  0.00    -0.285 N 
ATOM     14  H   UNL     1       9.445   2.692  -2.933  0.00  0.00    +0.151 HD
ENDROOT
BRANCH  10  15
ATOM     15  C   UNL     1       6.762  -0.575  -1.358  0.00  0.00    +0.213 C 
BRANCH  15  16
ATOM     16  C   UNL     1       5.452   0.045  -0.944  0.00  0.00    +0.231 C 
ATOM     17  O   UNL     1       5.388   1.234  -0.718  0.00  0.00    -0.274 OA
ATOM     18  N   UNL     1       4.351  -0.724  -0.827  0.00  0.00    -0.311 N 
ATOM     19  H   UNL     1       4.402  -1.675  -1.008  0.00  0.00    +0.149 HD
BRANCH  18  20
ATOM     20  C   UNL     1       3.077  -0.121  -0.425  0.00  0.00    +0.073 C 
ATOM     21  C   UNL     1       2.192  -1.187   0.225  0.00  0.00    +0.022 C 
ATOM     22  C   UNL     1       1.056  -0.506   0.991  0.00  0.00    +0.002 C 
ATOM     23  C   UNL     1       0.002  -0.004   0.002  0.00  0.00    +0.000 C 
ATOM     24  C   UNL     1      -0.019   1.526   0.010  0.00  0.00    +0.000 C 
ATOM     25  C   UNL     1       1.417   2.055  -0.000  0.00  0.00    +0.000 C 
ATOM     26  C   UNL     1       2.003   1.910  -1.406  0.00  0.00    +0.002 C 
ATOM     27  C   UNL     1       2.370   0.447  -1.657  0.00  0.00    +0.022 C 
ENDBRANCH  18  20
ENDBRANCH  15  16
ENDBRANCH  10  15
TORSDOF 3
