REMARK  Name = ZINC65414358
REMARK  7 active torsions:
REMARK  status: ('A' for Active; 'I' for Inactive)
REMARK    1  A    between atoms: C_1  and  C_2
REMARK    2  A    between atoms: C_4  and  C_8
REMARK    3  A    between atoms: C_5  and  C_7
REMARK    4  A    between atoms: C_8  and  C_9
REMARK    5  A    between atoms: C_8  and  N_10
REMARK    6  A    between atoms: N_13  and  C_14
REMARK    7  A    between atoms: C_16  and  N_21
REMARK                            x       y       z     vdW  Elec       q    Type
REMARK                         _______ _______ _______ _____ _____    ______ ____
ROOT
ATOM      1  N   UNL     1      -2.741  -3.081  -0.623  0.00  0.00    -0.292 N 
ATOM      2  C   UNL     1      -3.467  -4.074  -1.173  0.00  0.00    +0.304 C 
ATOM      3  O   UNL     1      -3.026  -5.207  -1.198  0.00  0.00    -0.252 OA
ATOM      4  N   UNL     1      -4.681  -3.812  -1.695  0.00  0.00    -0.267 N 
ATOM      5  H   UNL     1      -3.092  -2.177  -0.603  0.00  0.00    +0.151 HD
ATOM      6  H   UNL     1      -5.069  -2.928  -1.601  0.00  0.00    +0.156 HD
ENDROOT
BRANCH   4   7
ATOM      7  C   UNL     1      -5.385  -4.816  -2.372  0.00  0.00    +0.072 A 
ATOM      8  C   UNL     1      -4.699  -5.871  -2.957  0.00  0.00    +0.049 A 
ATOM      9  C   UNL     1      -5.398  -6.864  -3.626  0.00  0.00    +0.038 A 
ATOM     10  C   UNL     1      -6.783  -6.801  -3.710  0.00  0.00    +0.026 A 
ATOM     11  C   UNL     1      -7.465  -5.750  -3.127  0.00  0.00    +0.042 A 
ATOM     12  C   UNL     1      -6.772  -4.761  -2.454  0.00  0.00    +0.145 A 
ATOM     13  F   UNL     1      -7.441  -3.737  -1.880  0.00  0.00    -0.204 F 
BRANCH   9  14
ATOM     14  N   UNL     1      -4.709  -7.929  -4.218  0.00  0.00    -0.271 N 
ATOM     15  C   UNL     1      -3.264  -8.154  -4.089  0.00  0.00    +0.114 C 
ATOM     16  C   UNL     1      -3.036  -9.622  -4.512  0.00  0.00    +0.029 C 
ATOM     17  C   UNL     1      -4.246  -9.875  -5.441  0.00  0.00    +0.098 C 
ATOM     18  C   UNL     1      -5.286  -8.881  -4.972  0.00  0.00    +0.220 C 
ATOM     19  O   UNL     1      -6.468  -8.934  -5.239  0.00  0.00    -0.275 OA
ENDBRANCH   9  14
ENDBRANCH   4   7
BRANCH   1  20
ATOM     20  C   UNL     1      -1.420  -3.366  -0.056  0.00  0.00    +0.105 C 
ATOM     21  C   UNL     1      -1.579  -3.851   1.387  0.00  0.00    +0.033 C 
BRANCH  20  25
ATOM     22  C   UNL     1       0.001   1.526  -0.106  0.00  0.00    +0.086 C 
ATOM     23  C   UNL     1       0.021   0.019  -0.097  0.00  0.00    +0.103 A 
ATOM     24  C   UNL     1      -1.060  -0.782  -0.077  0.00  0.00    +0.050 A 
ATOM     25  C   UNL     1      -0.584  -2.113  -0.075  0.00  0.00    +0.013 A 
ATOM     26  C   UNL     1       0.760  -2.046  -0.095  0.00  0.00    +0.107 A 
ATOM     27  O   UNL     1       1.120  -0.752  -0.113  0.00  0.00    -0.465 OA
ATOM     28  C   UNL     1       1.701  -3.223  -0.100  0.00  0.00    +0.086 C 
ENDBRANCH  20  25
ENDBRANCH   1  20
TORSDOF 4
