REMARK  Name = ZINC09526167
REMARK  9 active torsions:
REMARK  status: ('A' for Active; 'I' for Inactive)
REMARK    1  A    between atoms: C_4  and  C_7
REMARK    2  A    between atoms: C_7  and  C_8
REMARK    3  A    between atoms: C_11  and  S_19
REMARK    4  A    between atoms: N_12  and  C_13
REMARK    5  A    between atoms: S_19  and  C_20
REMARK    6  A    between atoms: C_20  and  C_21
REMARK    7  A    between atoms: N_23  and  C_24
REMARK    8  A    between atoms: C_27  and  S_30
REMARK    9  A    between atoms: S_30  and  N_33
REMARK                            x       y       z     vdW  Elec       q    Type
REMARK                         _______ _______ _______ _____ _____    ______ ____
ROOT
ATOM      1  C   UNL     1       0.002  -0.003  -0.022  0.00  0.00    +0.143 A 
ATOM      2  N   UNL     1      -0.016   1.300  -0.020  0.00  0.00    -0.133 NA
ATOM      3  N   UNL     1       1.184   1.758  -0.022  0.00  0.00    -0.122 NA
ATOM      4  C   UNL     1       2.043   0.765  -0.027  0.00  0.00    +0.197 A 
ATOM      5  N   UNL     1       1.315  -0.393  -0.027  0.00  0.00    -0.274 N 
ENDROOT
BRANCH   5   6
ATOM      6  C   UNL     1       1.810  -1.705  -0.031  0.00  0.00    +0.050 A 
ATOM      7  C   UNL     1       1.588  -2.535   1.059  0.00  0.00    +0.026 A 
ATOM      8  C   UNL     1       2.072  -3.829   1.050  0.00  0.00    +0.002 A 
ATOM      9  C   UNL     1       2.786  -4.294  -0.039  0.00  0.00    +0.000 A 
ATOM     10  C   UNL     1       3.013  -3.467  -1.124  0.00  0.00    +0.002 A 
ATOM     11  C   UNL     1       2.527  -2.174  -1.123  0.00  0.00    +0.026 A 
ENDBRANCH   5   6
BRANCH   1  12
ATOM     12  C   UNL     1      -1.200  -0.913  -0.021  0.00  0.00    +0.111 C 
BRANCH  12  16
ATOM     13  C   UNL     1      -2.349  -1.763  -4.046  0.00  0.00    +0.000 A 
ATOM     14  C   UNL     1      -1.440  -2.580  -3.400  0.00  0.00    +0.000 A 
ATOM     15  C   UNL     1      -1.068  -2.305  -2.097  0.00  0.00    +0.004 A 
ATOM     16  C   UNL     1      -1.605  -1.213  -1.441  0.00  0.00    -0.040 A 
ATOM     17  C   UNL     1      -2.518  -0.399  -2.086  0.00  0.00    +0.004 A 
ATOM     18  C   UNL     1      -2.885  -0.671  -3.390  0.00  0.00    +0.000 A 
ENDBRANCH  12  16
ENDBRANCH   1  12
BRANCH   4  19
ATOM     19  S   UNL     1       3.800   0.898  -0.031  0.00  0.00    -0.076 S 
BRANCH  19  20
ATOM     20  C   UNL     1       3.978   2.700  -0.028  0.00  0.00    +0.173 C 
BRANCH  20  21
ATOM     21  C   UNL     1       5.442   3.059  -0.031  0.00  0.00    +0.227 C 
ATOM     22  O   UNL     1       6.281   2.184  -0.034  0.00  0.00    -0.275 OA
ATOM     23  N   UNL     1       5.818   4.354  -0.029  0.00  0.00    -0.285 N 
ATOM     24  H   UNL     1       5.149   5.053  -0.094  0.00  0.00    +0.155 HD
BRANCH  23  25
ATOM     25  C   UNL     1       7.173   4.689   0.066  0.00  0.00    +0.034 A 
ATOM     26  C   UNL     1       7.561   5.827   0.759  0.00  0.00    +0.025 A 
ATOM     27  C   UNL     1       8.900   6.152   0.857  0.00  0.00    +0.030 A 
ATOM     28  C   UNL     1       9.853   5.351   0.254  0.00  0.00    +0.105 A 
ATOM     29  C   UNL     1       9.469   4.220  -0.443  0.00  0.00    +0.030 A 
ATOM     30  C   UNL     1       8.132   3.886  -0.538  0.00  0.00    +0.025 A 
BRANCH  28  31
ATOM     31  S   UNL     1      11.559   5.772   0.374  0.00  0.00    +0.056 S 
ATOM     32  O   UNL     1      11.698   6.575   1.539  0.00  0.00    -0.153 OA
ATOM     33  O   UNL     1      12.289   4.567   0.188  0.00  0.00    -0.153 OA
BRANCH  31  34
ATOM     34  N   UNL     1      11.915   6.745  -0.917  0.00  0.00    -0.204 NA
ATOM     35  H   UNL     1      11.224   6.973  -1.558  0.00  0.00    +0.144 HD
ATOM     36  H   UNL     1      12.816   7.088  -1.032  0.00  0.00    +0.144 HD
ENDBRANCH  31  34
ENDBRANCH  28  31
ENDBRANCH  23  25
ENDBRANCH  20  21
ENDBRANCH  19  20
ENDBRANCH   4  19
TORSDOF 9
