REMARK  Name = ZINC66254100
REMARK  5 active torsions:
REMARK  status: ('A' for Active; 'I' for Inactive)
REMARK    1  A    between atoms: C_1  and  C_2
REMARK    2  A    between atoms: C_2  and  C_3
REMARK    3  A    between atoms: C_4  and  C_25
REMARK    4  A    between atoms: N_8  and  S_9
REMARK    5  A    between atoms: S_9  and  C_12
REMARK                            x       y       z     vdW  Elec       q    Type
REMARK                         _______ _______ _______ _____ _____    ______ ____
ROOT
ATOM      1  C   UNL     1       0.327  -1.960  -7.400  0.00  0.00    +0.120 A 
ATOM      2  C   UNL     1       0.607  -1.177  -8.486  0.00  0.00    +0.031 A 
ATOM      3  C   UNL     1      -0.104  -1.249  -9.684  0.00  0.00    +0.026 A 
ATOM      4  C   UNL     1      -1.149  -2.145  -9.815  0.00  0.00    +0.042 A 
ATOM      5  C   UNL     1      -1.421  -2.934  -8.703  0.00  0.00    +0.017 A 
ATOM      6  C   UNL     1      -0.724  -2.888  -7.495  0.00  0.00    +0.011 A 
ATOM      7  C   UNL     1      -1.137  -3.768  -6.480  0.00  0.00    +0.010 A 
ATOM      8  C   UNL     1      -2.183  -4.617  -6.725  0.00  0.00    +0.001 A 
ATOM      9  C   UNL     1      -2.865  -4.655  -7.941  0.00  0.00    +0.014 A 
ATOM     10  C   UNL     1      -2.496  -3.797  -8.962  0.00  0.00    +0.047 A 
ATOM     11  C   UNL     1      -2.885  -3.485 -10.342  0.00  0.00    +0.249 C 
ATOM     12  O   UNL     1      -3.787  -4.010 -10.967  0.00  0.00    -0.270 OA
ATOM     13  N   UNL     1      -2.061  -2.505 -10.799  0.00  0.00    -0.281 N 
ATOM     14  H   UNL     1      -2.103  -2.114 -11.686  0.00  0.00    +0.155 HD
ENDROOT
BRANCH   1  15
ATOM     15  S   UNL     1       1.268  -1.814  -5.918  0.00  0.00    +0.102 S 
ATOM     16  O   UNL     1       2.220  -0.783  -6.141  0.00  0.00    -0.146 OA
ATOM     17  O   UNL     1       1.646  -3.132  -5.545  0.00  0.00    -0.146 OA
BRANCH  15  23
ATOM     18  C   UNL     1       0.707  -0.490  -1.238  0.00  0.00    +0.027 A 
ATOM     19  C   UNL     1       2.004  -0.794  -1.188  0.00  0.00    +0.009 A 
ATOM     20  S   UNL     1       2.336  -1.301  -2.868  0.00  0.00    -0.053 S 
ATOM     21  C   UNL     1       0.690  -1.065  -3.523  0.00  0.00    +0.192 A 
ATOM     22  N   UNL     1       0.015  -0.623  -2.406  0.00  0.00    -0.336 N 
ATOM     23  N   UNL     1       0.244  -1.265  -4.739  0.00  0.00    -0.103 NA
ATOM     24  C   UNL     1       2.949  -0.726  -0.016  0.00  0.00    +0.053 C 
ATOM     25  H   UNL     1      -0.929  -0.408  -2.450  0.00  0.00    +0.168 HD
BRANCH  18  27
ATOM     26  C   UNL     1      -0.019   1.526   0.010  0.00  0.00    +0.010 C 
ATOM     27  C   UNL     1       0.002  -0.004   0.002  0.00  0.00    +0.050 C 
ENDBRANCH  18  27
ENDBRANCH  15  23
ENDBRANCH   1  15
TORSDOF 3
