REMARK  Name = ZINC18013723
REMARK  11 active torsions:
REMARK  status: ('A' for Active; 'I' for Inactive)
REMARK    1  A    between atoms: C_1  and  C_2
REMARK    2  A    between atoms: C_5  and  C_31
REMARK    3  A    between atoms: C_6  and  C_8
REMARK    4  A    between atoms: C_8  and  C_10
REMARK    5  A    between atoms: C_8  and  N_11
REMARK    6  A    between atoms: C_12  and  C_14
REMARK    7  A    between atoms: C_17  and  O_29
REMARK    8  A    between atoms: C_18  and  S_20
REMARK    9  A    between atoms: S_20  and  N_23
REMARK   10  A    between atoms: N_23  and  C_24
REMARK   11  A    between atoms: O_29  and  C_30
REMARK                            x       y       z     vdW  Elec       q    Type
REMARK                         _______ _______ _______ _____ _____    ______ ____
ROOT
ATOM      1  C   UNL     1      -4.610   0.382   1.683  0.00  0.00    +0.039 A 
ATOM      2  C   UNL     1      -3.894  -0.032   0.556  0.00  0.00    +0.017 A 
ATOM      3  C   UNL     1      -2.586   0.363   0.391  0.00  0.00    +0.048 A 
ATOM      4  C   UNL     1      -1.973   1.164   1.348  0.00  0.00    +0.146 A 
ATOM      5  C   UNL     1      -2.681   1.577   2.470  0.00  0.00    +0.147 A 
ATOM      6  C   UNL     1      -3.992   1.191   2.640  0.00  0.00    +0.045 A 
ENDROOT
BRANCH   1   8
ATOM      7  N   UNL     1      -6.609  -0.815   0.937  0.00  0.00    -0.305 N 
ATOM      8  C   UNL     1      -6.015  -0.034   1.861  0.00  0.00    +0.245 C 
ATOM      9  O   UNL     1      -6.636   0.328   2.842  0.00  0.00    -0.270 OA
ATOM     10  H   UNL     1      -6.113  -1.103   0.155  0.00  0.00    +0.150 HD
BRANCH   7  11
ATOM     11  C   UNL     1      -8.004  -1.228   1.114  0.00  0.00    +0.101 C 
ATOM     12  C   UNL     1      -8.057  -2.479   1.992  0.00  0.00    +0.033 C 
BRANCH  11  18
ATOM     13  C   UNL     1      -7.478  -2.592  -3.672  0.00  0.00    +0.044 C 
ATOM     14  C   UNL     1      -8.360  -2.184  -2.521  0.00  0.00    -0.050 A 
ATOM     15  C   UNL     1      -9.728  -2.089  -2.698  0.00  0.00    +0.003 A 
ATOM     16  C   UNL     1     -10.537  -1.715  -1.642  0.00  0.00    +0.004 A 
ATOM     17  C   UNL     1      -9.980  -1.441  -0.407  0.00  0.00    -0.046 A 
ATOM     18  C   UNL     1      -8.612  -1.531  -0.231  0.00  0.00    -0.024 A 
ATOM     19  C   UNL     1      -7.802  -1.906  -1.287  0.00  0.00    +0.009 A 
ATOM     20  C   UNL     1     -10.863  -1.039   0.746  0.00  0.00    +0.044 C 
ENDBRANCH  11  18
ENDBRANCH   7  11
ENDBRANCH   1   8
BRANCH   5  21
ATOM     21  S   UNL     1      -1.901   2.598   3.676  0.00  0.00    +0.062 S 
ATOM     22  O   UNL     1      -1.278   3.660   2.967  0.00  0.00    -0.153 OA
ATOM     23  O   UNL     1      -2.861   2.824   4.699  0.00  0.00    -0.153 OA
BRANCH  21  24
ATOM     24  N   UNL     1      -0.684   1.706   4.358  0.00  0.00    -0.187 NA
ATOM     25  H   UNL     1      -0.728   1.464   5.297  0.00  0.00    +0.148 HD
BRANCH  24  26
ATOM     26  C   UNL     1       0.459   1.283   3.545  0.00  0.00    +0.077 C 
ATOM     27  C   UNL     1       0.257  -0.169   3.064  0.00  0.00    +0.020 C 
ATOM     28  C   UNL     1       1.676  -0.788   3.119  0.00  0.00    +0.002 C 
ATOM     29  C   UNL     1       2.275  -0.157   4.400  0.00  0.00    +0.002 C 
ATOM     30  C   UNL     1       1.742   1.290   4.395  0.00  0.00    +0.020 C 
ENDBRANCH  24  26
ENDBRANCH  21  24
ENDBRANCH   5  21
BRANCH   4  31
ATOM     31  O   UNL     1      -0.682   1.547   1.184  0.00  0.00    -0.493 OA
ATOM     32  C   UNL     1      -0.013   1.086   0.008  0.00  0.00    +0.277 C 
ENDBRANCH   4  31
TORSDOF 7
