REMARK  Name = ZINC45953620
REMARK  4 active torsions:
REMARK  status: ('A' for Active; 'I' for Inactive)
REMARK    1  A    between atoms: C_3  and  S_17
REMARK    2  A    between atoms: C_6  and  N_7
REMARK    3  A    between atoms: C_9  and  C_14
REMARK    4  A    between atoms: S_17  and  N_20
REMARK                            x       y       z     vdW  Elec       q    Type
REMARK                         _______ _______ _______ _____ _____    ______ ____
ROOT
ATOM      1  C   UNL     1      -0.017   1.385  -0.005  0.00  0.00    +0.025 A 
ATOM      2  C   UNL     1       1.171   2.090  -0.013  0.00  0.00    +0.030 A 
ATOM      3  C   UNL     1       2.377   1.415  -0.013  0.00  0.00    +0.105 A 
ATOM      4  C   UNL     1       2.400   0.032  -0.006  0.00  0.00    +0.030 A 
ATOM      5  C   UNL     1       1.216  -0.679   0.002  0.00  0.00    +0.025 A 
ATOM      6  C   UNL     1       0.002  -0.004   0.002  0.00  0.00    +0.036 A 
ENDROOT
BRANCH   6   7
ATOM      7  N   UNL     1      -1.199  -0.722   0.010  0.00  0.00    -0.271 N 
ATOM      8  C   UNL     1      -1.292  -2.182  -0.096  0.00  0.00    +0.126 C 
ATOM      9  C   UNL     1      -2.714  -2.541   0.388  0.00  0.00    +0.098 C 
ATOM     10  C   UNL     1      -3.485  -1.232   0.101  0.00  0.00    +0.110 C 
ATOM     11  C   UNL     1      -2.416  -0.162   0.122  0.00  0.00    +0.221 C 
ATOM     12  O   UNL     1      -2.627   1.028   0.223  0.00  0.00    -0.275 OA
BRANCH   9  13
ATOM     13  C   UNL     1      -2.718  -2.858   1.862  0.00  0.00    +0.227 C 
ATOM     14  O   UNL     1      -3.392  -2.200   2.619  0.00  0.00    -0.279 OA
ATOM     15 CL   UNL     1      -1.755  -4.168   2.471  0.00  0.00    -0.043 Cl
ENDBRANCH   9  13
ENDBRANCH   6   7
BRANCH   3  16
ATOM     16  S   UNL     1       3.890   2.318  -0.024  0.00  0.00    +0.056 S 
ATOM     17  O   UNL     1       4.875   1.454  -0.574  0.00  0.00    -0.153 OA
ATOM     18  O   UNL     1       3.598   3.593  -0.581  0.00  0.00    -0.153 OA
BRANCH  16  19
ATOM     19  N   UNL     1       4.316   2.578   1.555  0.00  0.00    -0.204 NA
ATOM     20  H   UNL     1       3.753   2.244   2.270  0.00  0.00    +0.144 HD
ATOM     21  H   UNL     1       5.129   3.064   1.764  0.00  0.00    +0.144 HD
ENDBRANCH  16  19
ENDBRANCH   3  16
TORSDOF 4
