REMARK  Name = ZINC54368396
REMARK  8 active torsions:
REMARK  status: ('A' for Active; 'I' for Inactive)
REMARK    1  A    between atoms: C_1  and  C_2
REMARK    2  A    between atoms: C_5  and  C_21
REMARK    3  A    between atoms: C_6  and  O_8
REMARK    4  A    between atoms: O_8  and  S_9
REMARK    5  A    between atoms: S_9  and  C_12
REMARK    6  A    between atoms: C_13  and  C_20
REMARK    7  A    between atoms: C_15  and  C_19
REMARK    8  A    between atoms: C_17  and  C_18
REMARK                            x       y       z     vdW  Elec       q    Type
REMARK                         _______ _______ _______ _____ _____    ______ ____
ROOT
ATOM      1  O   UNL     1      -0.036  -2.148   1.825  0.00  0.00    -0.342 OA
ENDROOT
BRANCH   1   7
ATOM      2  C   UNL     1       1.433   1.922  -0.423  0.00  0.00    +0.044 C 
ATOM      3  C   UNL     1       1.089   0.456  -0.451  0.00  0.00    -0.047 A 
ATOM      4  C   UNL     1       1.183  -0.251  -1.639  0.00  0.00    +0.004 A 
ATOM      5  C   UNL     1       0.870  -1.593  -1.676  0.00  0.00    +0.017 A 
ATOM      6  C   UNL     1       0.457  -2.244  -0.511  0.00  0.00    +0.081 A 
ATOM      7  C   UNL     1       0.364  -1.526   0.688  0.00  0.00    +0.169 A 
ATOM      8  C   UNL     1       0.687  -0.177   0.709  0.00  0.00    +0.052 A 
BRANCH   6   9
ATOM      9  C   UNL     1       0.121  -3.681  -0.544  0.00  0.00    +0.245 C 
ATOM     10  O   UNL     1      -0.238  -4.245   0.471  0.00  0.00    -0.270 OA
ATOM     11  N   UNL     1       0.212  -4.368  -1.700  0.00  0.00    -0.325 N 
ATOM     12  H   UNL     1       0.499  -3.918  -2.510  0.00  0.00    +0.145 HD
ATOM     13  H   UNL     1      -0.009  -5.312  -1.722  0.00  0.00    +0.145 HD
ENDBRANCH   6   9
ENDBRANCH   1   7
BRANCH   1  14
ATOM     14  S   UNL     1       1.103  -2.748   2.637  0.00  0.00    +0.151 S 
ATOM     15  O   UNL     1       0.504  -3.527   3.663  0.00  0.00    -0.131 OA
ATOM     16  O   UNL     1       2.022  -3.296   1.702  0.00  0.00    -0.131 OA
BRANCH  14  17
ATOM     17  C   UNL     1       1.932  -1.415   3.436  0.00  0.00    +0.134 A 
ATOM     18  C   UNL     1       1.461  -0.931   4.643  0.00  0.00    -0.022 A 
ATOM     19  C   UNL     1       2.111   0.115   5.269  0.00  0.00    +0.008 A 
ATOM     20  C   UNL     1       3.233   0.678   4.690  0.00  0.00    -0.050 A 
ATOM     21  C   UNL     1       3.705   0.194   3.484  0.00  0.00    +0.008 A 
ATOM     22  C   UNL     1       3.057  -0.855   2.859  0.00  0.00    -0.022 A 
ATOM     23  C   UNL     1       3.574  -1.386   1.547  0.00  0.00    +0.046 C 
ATOM     24  C   UNL     1       3.942   1.819   5.373  0.00  0.00    +0.044 C 
ATOM     25  C   UNL     1       0.238  -1.545   5.274  0.00  0.00    +0.046 C 
ENDBRANCH  14  17
ENDBRANCH   1  14
TORSDOF 4
