REMARK  Name = ZINC00901756
REMARK  9 active torsions:
REMARK  status: ('A' for Active; 'I' for Inactive)
REMARK    1  A    between atoms: N_9  and  C_10
REMARK    2  A    between atoms: C_10  and  C_11
REMARK    3  A    between atoms: N_13  and  C_14
REMARK    4  A    between atoms: N_13  and  C_29
REMARK    5  A    between atoms: C_17  and  S_20
REMARK    6  A    between atoms: S_20  and  N_23
REMARK    7  A    between atoms: C_29  and  C_31
REMARK    8  A    between atoms: C_29  and  C_36
REMARK    9  A    between atoms: N_38  and  C_39
REMARK                            x       y       z     vdW  Elec       q    Type
REMARK                         _______ _______ _______ _____ _____    ______ ____
ROOT
ATOM      1  C   UNL     1      -4.247   3.754  -1.319  0.00  0.00    +0.242 C 
ATOM      2  O   UNL     1      -3.431   3.808  -2.215  0.00  0.00    -0.273 OA
ATOM      3  N   UNL     1      -5.534   3.463  -1.597  0.00  0.00    -0.251 N 
ENDROOT
BRANCH   3   4
ATOM      4  C   UNL     1      -5.953   3.345  -2.927  0.00  0.00    +0.038 A 
ATOM      5  C   UNL     1      -7.288   3.094  -3.216  0.00  0.00    +0.025 A 
ATOM      6  C   UNL     1      -7.699   2.984  -4.530  0.00  0.00    +0.030 A 
ATOM      7  C   UNL     1      -6.782   3.113  -5.556  0.00  0.00    +0.106 A 
ATOM      8  C   UNL     1      -5.451   3.357  -5.272  0.00  0.00    +0.030 A 
ATOM      9  C   UNL     1      -5.034   3.474  -3.960  0.00  0.00    +0.025 A 
BRANCH   7  10
ATOM     10  S   UNL     1      -7.310   2.965  -7.231  0.00  0.00    +0.061 S 
ATOM     11  O   UNL     1      -8.696   3.280  -7.249  0.00  0.00    -0.153 OA
ATOM     12  O   UNL     1      -6.360   3.667  -8.020  0.00  0.00    -0.153 OA
BRANCH  10  13
ATOM     13  N   UNL     1      -7.182   1.367  -7.646  0.00  0.00    -0.177 NA
ATOM     14  C   UNL     1      -5.941   0.843  -8.230  0.00  0.00    +0.109 C 
ATOM     15  C   UNL     1      -5.481  -0.364  -7.398  0.00  0.00    +0.017 C 
ATOM     16  C   UNL     1      -6.618  -1.385  -7.319  0.00  0.00    +0.003 C 
ATOM     17  C   UNL     1      -7.826  -0.753  -6.624  0.00  0.00    +0.017 C 
ATOM     18  C   UNL     1      -8.310   0.448  -7.441  0.00  0.00    +0.109 C 
ENDBRANCH  10  13
ENDBRANCH   7  10
ENDBRANCH   3   4
BRANCH   1  19
ATOM     19  C   UNL     1      -3.824   4.014   0.103  0.00  0.00    +0.242 C 
BRANCH  19  28
ATOM     20  C   UNL     1       1.070   2.119   0.554  0.00  0.00    +0.002 A 
ATOM     21  C   UNL     1      -0.112   1.389   0.579  0.00  0.00    +0.002 A 
ATOM     22  C   UNL     1      -1.319   2.015   0.444  0.00  0.00    +0.029 A 
ATOM     23  C   UNL     1      -1.368   3.397   0.292  0.00  0.00    +0.090 A 
ATOM     24  C   UNL     1      -0.176   4.141   0.266  0.00  0.00    +0.113 A 
ATOM     25  C   UNL     1       1.049   3.474   0.400  0.00  0.00    +0.032 A 
ATOM     26  N   UNL     1      -0.507   5.438   0.104  0.00  0.00    -0.129 NA
ATOM     27  N   UNL     1      -1.785   5.566   0.028  0.00  0.00    -0.064 NA
ATOM     28  N   UNL     1      -2.388   4.305   0.140  0.00  0.00    -0.235 N 
ENDBRANCH  19  28
ENDBRANCH   1  19
BRANCH   3  29
ATOM     29  C   UNL     1      -6.493   3.270  -0.507  0.00  0.00    +0.233 C 
BRANCH  29  30
ATOM     30  C   UNL     1      -7.066   1.878  -0.583  0.00  0.00    +0.135 A 
ATOM     31  C   UNL     1      -7.242   1.042   0.457  0.00  0.00    +0.047 A 
ATOM     32  C   UNL     1      -7.802  -0.147  -0.065  0.00  0.00    +0.041 A 
ATOM     33  C   UNL     1      -7.934   0.034  -1.391  0.00  0.00    +0.195 A 
ATOM     34  O   UNL     1      -7.492   1.264  -1.698  0.00  0.00    -0.465 OA
ENDBRANCH  29  30
BRANCH  29  35
ATOM     35  C   UNL     1      -7.605   4.279  -0.631  0.00  0.00    +0.242 C 
ATOM     36  O   UNL     1      -7.811   4.826  -1.694  0.00  0.00    -0.273 OA
ATOM     37  N   UNL     1      -8.372   4.572   0.438  0.00  0.00    -0.311 N 
ATOM     38  H   UNL     1      -8.207   4.134   1.287  0.00  0.00    +0.149 HD
BRANCH  37  39
ATOM     39  C   UNL     1      -9.453   5.553   0.316  0.00  0.00    +0.073 C 
ATOM     40  C   UNL     1      -8.913   6.972   0.587  0.00  0.00    +0.022 C 
ATOM     41  C   UNL     1     -10.060   7.676   1.353  0.00  0.00    +0.002 C 
ATOM     42  C   UNL     1     -10.609   6.547   2.260  0.00  0.00    +0.002 C 
ATOM     43  C   UNL     1     -10.532   5.282   1.380  0.00  0.00    +0.022 C 
ENDBRANCH  37  39
ENDBRANCH  29  35
ENDBRANCH   3  29
TORSDOF 9
