REMARK  Name = ZINC02247733
REMARK  10 active torsions:
REMARK  status: ('A' for Active; 'I' for Inactive)
REMARK    1  A    between atoms: C_1  and  C_2
REMARK    2  A    between atoms: C_2  and  N_3
REMARK    3  A    between atoms: N_3  and  C_4
REMARK    4  A    between atoms: N_3  and  C_6
REMARK    5  A    between atoms: C_4  and  C_5
REMARK    6  A    between atoms: C_9  and  N_12
REMARK    7  A    between atoms: C_13  and  N_36
REMARK    8  A    between atoms: C_14  and  C_25
REMARK    9  A    between atoms: N_27  and  C_28
REMARK   10  A    between atoms: C_28  and  C_29
REMARK                            x       y       z     vdW  Elec       q    Type
REMARK                         _______ _______ _______ _____ _____    ______ ____
ROOT
ATOM      1  N   UNL     1       1.886   6.591   5.041  0.00  0.00    -0.280 N 
ATOM      2  C   UNL     1       2.263   6.161   3.804  0.00  0.00    +0.117 A 
ATOM      3  C   UNL     1       1.145   5.878   3.027  0.00  0.00    +0.104 A 
ATOM      4  C   UNL     1      -0.030   6.150   3.869  0.00  0.00    +0.123 A 
ATOM      5  C   UNL     1       0.509   6.606   5.154  0.00  0.00    +0.166 A 
ATOM      6  N   UNL     1      -0.318   6.930   6.124  0.00  0.00    -0.225 NA
ATOM      7  C   UNL     1      -1.640   6.840   5.932  0.00  0.00    +0.092 A 
ATOM      8  C   UNL     1      -2.532   7.184   6.965  0.00  0.00    +0.030 A 
ATOM      9  C   UNL     1      -3.873   7.090   6.761  0.00  0.00    +0.002 A 
ATOM     10  C   UNL     1      -4.384   6.656   5.539  0.00  0.00    +0.002 A 
ATOM     11  C   UNL     1      -3.554   6.314   4.517  0.00  0.00    +0.030 A 
ATOM     12  C   UNL     1      -2.159   6.399   4.690  0.00  0.00    +0.090 A 
ATOM     13  N   UNL     1      -1.333   6.066   3.691  0.00  0.00    -0.241 NA
ENDROOT
BRANCH   1  17
ATOM     14  C   UNL     1       4.528   7.693   8.076  0.00  0.00    +0.030 A 
ATOM     15  C   UNL     1       4.499   6.380   7.623  0.00  0.00    +0.025 A 
ATOM     16  C   UNL     1       3.625   6.016   6.619  0.00  0.00    +0.028 A 
ATOM     17  C   UNL     1       2.774   6.961   6.062  0.00  0.00    +0.050 A 
ATOM     18  C   UNL     1       2.806   8.275   6.511  0.00  0.00    +0.028 A 
ATOM     19  C   UNL     1       3.677   8.639   7.519  0.00  0.00    +0.025 A 
BRANCH  14  20
ATOM     20  N   UNL     1       5.414   8.062   9.094  0.00  0.00    -0.330 N 
BRANCH  20  22
ATOM     21  C   UNL     1       4.453   9.610  10.726  0.00  0.00    +0.024 C 
ATOM     22  C   UNL     1       5.444   9.447   9.572  0.00  0.00    +0.102 C 
ENDBRANCH  20  22
BRANCH  20  23
ATOM     23  C   UNL     1       6.312   7.065   9.681  0.00  0.00    +0.102 C 
ATOM     24  C   UNL     1       7.625   7.037   8.898  0.00  0.00    +0.024 C 
ENDBRANCH  20  23
ENDBRANCH  14  20
ENDBRANCH   1  17
BRANCH   3  25
ATOM     25  C   UNL     1       1.139   5.397   1.647  0.00  0.00    +0.250 C 
ATOM     26  O   UNL     1       1.120   6.193   0.725  0.00  0.00    -0.270 OA
ATOM     27  N   UNL     1       1.156   4.074   1.393  0.00  0.00    -0.307 N 
ATOM     28  H   UNL     1       1.171   3.440   2.127  0.00  0.00    +0.149 HD
BRANCH  27  29
ATOM     29  C   UNL     1       1.150   3.592   0.010  0.00  0.00    +0.139 C 
BRANCH  29  30
ATOM     30  C   UNL     1       1.171   2.086   0.002  0.00  0.00    -0.030 A 
ATOM     31  C   UNL     1      -0.017   1.378   0.010  0.00  0.00    +0.006 A 
ATOM     32  C   UNL     1       0.002  -0.004   0.002  0.00  0.00    +0.020 A 
ATOM     33  C   UNL     1       1.210  -0.679  -0.013  0.00  0.00    +0.041 A 
ATOM     34  C   UNL     1       2.398   0.030  -0.021  0.00  0.00    +0.020 A 
ATOM     35  C   UNL     1       2.378   1.412  -0.013  0.00  0.00    +0.006 A 
ATOM     36 CL   UNL     1       1.234  -2.415  -0.022  0.00  0.00    -0.084 Cl
ENDBRANCH  29  30
ENDBRANCH  27  29
ENDBRANCH   3  25
BRANCH   2  37
ATOM     37  N   UNL     1       3.562   6.029   3.384  0.00  0.00    -0.343 N 
ATOM     38  H   UNL     1       3.752   5.718   2.485  0.00  0.00    +0.144 HD
ATOM     39  H   UNL     1       4.290   6.247   3.986  0.00  0.00    +0.144 HD
ENDBRANCH   2  37
TORSDOF 8
