REMARK  Name = ZINC13097499
REMARK  4 active torsions:
REMARK  status: ('A' for Active; 'I' for Inactive)
REMARK    1  A    between atoms: C_4  and  C_7
REMARK    2  A    between atoms: N_10  and  C_12
REMARK    3  A    between atoms: C_26  and  C_28
REMARK    4  A    between atoms: C_32  and  N_34
REMARK                            x       y       z     vdW  Elec       q    Type
REMARK                         _______ _______ _______ _____ _____    ______ ____
ROOT
ATOM      1  C   UNL     1       3.821  -0.659   0.041  0.00  0.00    +0.100 A 
ATOM      2  C   UNL     1       4.054  -1.872   0.728  0.00  0.00    +0.045 A 
ATOM      3  C   UNL     1       5.331  -2.244   0.484  0.00  0.00    +0.132 A 
ATOM      4  N   UNL     1       5.892  -1.299  -0.330  0.00  0.00    -0.218 N 
ATOM      5  N   UNL     1       4.923  -0.325  -0.594  0.00  0.00    -0.164 NA
ATOM      6  N   UNL     1       6.003  -3.369   0.951  0.00  0.00    -0.298 N 
ATOM      7  C   UNL     1       5.367  -4.618   0.983  0.00  0.00    +0.054 A 
ATOM      8  C   UNL     1       5.891  -5.696   0.289  0.00  0.00    +0.025 A 
ATOM      9  C   UNL     1       5.268  -6.929   0.367  0.00  0.00    +0.002 A 
ATOM     10  C   UNL     1       4.130  -7.081   1.137  0.00  0.00    +0.002 A 
ATOM     11  C   UNL     1       3.596  -6.003   1.819  0.00  0.00    +0.025 A 
ATOM     12  C   UNL     1       4.205  -4.756   1.732  0.00  0.00    +0.049 A 
ATOM     13  N   UNL     1       3.613  -3.655   2.344  0.00  0.00    -0.331 N 
ATOM     14  C   UNL     1       3.018  -2.576   1.568  0.00  0.00    +0.137 C 
ATOM     15  H   UNL     1       6.920  -3.289   1.257  0.00  0.00    +0.154 HD
ATOM     16  H   UNL     1       3.597  -3.604   3.313  0.00  0.00    +0.147 HD
ENDROOT
BRANCH   1  20
ATOM     17  C   UNL     1       0.175   1.529   0.015  0.00  0.00    +0.000 A 
ATOM     18  C   UNL     1       0.657   1.006   1.202  0.00  0.00    +0.001 A 
ATOM     19  C   UNL     1       1.839   0.295   1.216  0.00  0.00    +0.010 A 
ATOM     20  C   UNL     1       2.549   0.104   0.032  0.00  0.00    +0.003 A 
ATOM     21  C   UNL     1       2.059   0.634  -1.161  0.00  0.00    +0.010 A 
ATOM     22  C   UNL     1       0.875   1.343  -1.163  0.00  0.00    +0.001 A 
ENDBRANCH   1  20
BRANCH   4  23
ATOM     23  C   UNL     1       7.205  -1.308  -0.819  0.00  0.00    +0.067 A 
ATOM     24  C   UNL     1       7.773  -2.494  -1.267  0.00  0.00    +0.028 A 
ATOM     25  C   UNL     1       9.067  -2.499  -1.749  0.00  0.00    +0.002 A 
ATOM     26  C   UNL     1       9.798  -1.326  -1.785  0.00  0.00    +0.000 A 
ATOM     27  C   UNL     1       9.236  -0.144  -1.339  0.00  0.00    +0.002 A 
ATOM     28  C   UNL     1       7.940  -0.131  -0.862  0.00  0.00    +0.028 A 
ENDBRANCH   4  23
BRANCH  14  29
ATOM     29  C   UNL     1       1.955  -3.147   0.665  0.00  0.00    -0.021 A 
ATOM     30  C   UNL     1       0.650  -2.700   0.764  0.00  0.00    +0.006 A 
ATOM     31  C   UNL     1      -0.325  -3.224  -0.064  0.00  0.00    +0.003 A 
ATOM     32  C   UNL     1       0.005  -4.194  -0.991  0.00  0.00    +0.033 A 
ATOM     33  C   UNL     1       1.309  -4.641  -1.091  0.00  0.00    +0.127 A 
ATOM     34  C   UNL     1       2.285  -4.114  -0.266  0.00  0.00    +0.038 A 
BRANCH  33  35
ATOM     35  N   UNL     1       1.661  -5.680  -2.084  0.00  0.00    +0.056 N 
ATOM     36  O   UNL     1       0.794  -6.207  -2.742  0.00  0.00    -0.126 OA
ATOM     37  O   UNL     1       2.816  -6.003  -2.238  0.00  0.00    -0.126 OA
ENDBRANCH  33  35
ENDBRANCH  14  29
TORSDOF 4
