REMARK  Name = ZINC14567575
REMARK  6 active torsions:
REMARK  status: ('A' for Active; 'I' for Inactive)
REMARK    1  A    between atoms: C_1  and  C_2
REMARK    2  A    between atoms: C_2  and  C_4
REMARK    3  A    between atoms: C_2  and  N_10
REMARK    4  A    between atoms: C_20  and  S_21
REMARK    5  A    between atoms: S_21  and  C_22
REMARK    6  A    between atoms: C_22  and  C_23
REMARK                            x       y       z     vdW  Elec       q    Type
REMARK                         _______ _______ _______ _____ _____    ______ ____
ROOT
ATOM      1  N   UNL     1      -1.189  -2.047  -0.057  0.00  0.00    -0.280 N 
ATOM      2  C   UNL     1      -1.419  -0.716   0.020  0.00  0.00    +0.263 A 
ATOM      3  O   UNL     1      -2.547  -0.276   0.143  0.00  0.00    -0.267 OA
ATOM      4  C   UNL     1      -0.256   0.179  -0.052  0.00  0.00    +0.065 A 
ATOM      5  C   UNL     1      -0.387   1.565   0.018  0.00  0.00    +0.015 A 
ATOM      6  C   UNL     1       0.729   2.352  -0.054  0.00  0.00    +0.001 A 
ATOM      7  C   UNL     1       1.989   1.785  -0.195  0.00  0.00    +0.002 A 
ATOM      8  C   UNL     1       2.147   0.430  -0.267  0.00  0.00    +0.028 A 
ATOM      9  C   UNL     1       1.025  -0.402  -0.196  0.00  0.00    +0.079 A 
ATOM     10  N   UNL     1       1.135  -1.744  -0.262  0.00  0.00    -0.223 NA
ATOM     11  C   UNL     1       0.083  -2.523  -0.196  0.00  0.00    +0.173 A 
ENDROOT
BRANCH   1  13
ATOM     12  C   UNL     1      -3.259  -2.730  -1.166  0.00  0.00    +0.036 C 
ATOM     13  C   UNL     1      -2.313  -2.984   0.009  0.00  0.00    +0.119 C 
BRANCH  13  14
ATOM     14  C   UNL     1      -3.057  -2.787   1.304  0.00  0.00    -0.025 A 
ATOM     15  C   UNL     1      -2.364  -2.469   2.458  0.00  0.00    +0.005 A 
ATOM     16  C   UNL     1      -3.046  -2.283   3.645  0.00  0.00    +0.000 A 
ATOM     17  C   UNL     1      -4.421  -2.424   3.682  0.00  0.00    +0.000 A 
ATOM     18  C   UNL     1      -5.114  -2.746   2.530  0.00  0.00    +0.000 A 
ATOM     19  C   UNL     1      -4.431  -2.928   1.341  0.00  0.00    +0.005 A 
ENDBRANCH  13  14
ENDBRANCH   1  13
BRANCH  11  20
ATOM     20  S   UNL     1       0.323  -4.266  -0.290  0.00  0.00    -0.080 S 
BRANCH  20  21
ATOM     21  C   UNL     1       2.123  -4.327  -0.461  0.00  0.00    +0.151 C 
BRANCH  21  22
ATOM     22  C   UNL     1       2.570  -5.763  -0.562  0.00  0.00    +0.121 A 
ATOM     23  N   UNL     1       3.897  -6.017  -0.703  0.00  0.00    -0.310 N 
ATOM     24  H   UNL     1       4.527  -5.279  -0.735  0.00  0.00    +0.170 HD
ATOM     25  C   UNL     1       4.350  -7.289  -0.793  0.00  0.00    +0.259 A 
ATOM     26  O   UNL     1       5.536  -7.531  -0.915  0.00  0.00    -0.267 OA
ATOM     27  C   UNL     1       3.351  -8.368  -0.744  0.00  0.00    +0.065 A 
ATOM     28  C   UNL     1       3.712  -9.711  -0.834  0.00  0.00    +0.015 A 
ATOM     29  C   UNL     1       2.735 -10.681  -0.783  0.00  0.00    +0.001 A 
ATOM     30  C   UNL     1       1.398 -10.330  -0.643  0.00  0.00    +0.002 A 
ATOM     31  C   UNL     1       1.021  -9.009  -0.552  0.00  0.00    +0.028 A 
ATOM     32  C   UNL     1       1.993  -8.008  -0.602  0.00  0.00    +0.078 A 
ATOM     33  N   UNL     1       1.666  -6.694  -0.516  0.00  0.00    -0.233 NA
ENDBRANCH  21  22
ENDBRANCH  20  21
ENDBRANCH  11  20
TORSDOF 5
