REMARK  Name = ZINC14720618
REMARK  11 active torsions:
REMARK  status: ('A' for Active; 'I' for Inactive)
REMARK    1  A    between atoms: C_1  and  C_2
REMARK    2  A    between atoms: C_2  and  C_3
REMARK    3  A    between atoms: C_3  and  C_4
REMARK    4  A    between atoms: C_4  and  N_5
REMARK    5  A    between atoms: N_5  and  C_6
REMARK    6  A    between atoms: C_7  and  N_19
REMARK    7  A    between atoms: N_8  and  C_15
REMARK    8  A    between atoms: C_15  and  C_16
REMARK    9  A    between atoms: C_16  and  C_17
REMARK   10  A    between atoms: C_16  and  C_18
REMARK   11  A    between atoms: C_20  and  C_22
REMARK                            x       y       z     vdW  Elec       q    Type
REMARK                         _______ _______ _______ _____ _____    ______ ____
ROOT
ATOM      1  C   UNL     1       1.384   6.824  -0.429  0.00  0.00    +0.140 A 
ATOM      2  C   UNL     1       2.752   7.004  -0.390  0.00  0.00    +0.127 A 
ATOM      3  N   UNL     1       3.278   8.227  -0.736  0.00  0.00    -0.280 N 
ATOM      4  C   UNL     1       2.468   9.239  -1.097  0.00  0.00    +0.331 A 
ATOM      5  O   UNL     1       2.953  10.314  -1.395  0.00  0.00    -0.246 OA
ATOM      6  N   UNL     1       1.133   9.083  -1.136  0.00  0.00    -0.273 N 
ATOM      7  H   UNL     1       0.553   9.851  -1.409  0.00  0.00    +0.173 HD
ATOM      8  C   UNL     1       0.567   7.904  -0.812  0.00  0.00    +0.277 A 
ATOM      9  O   UNL     1      -0.645   7.774  -0.850  0.00  0.00    -0.266 OA
ENDROOT
BRANCH   1  10
ATOM     10  N   UNL     1       0.814   5.580  -0.085  0.00  0.00    -0.258 N 
ATOM     11  C   UNL     1       1.049   4.497  -0.851  0.00  0.00    +0.286 C 
ATOM     12  O   UNL     1       1.809   4.574  -1.799  0.00  0.00    -0.266 OA
BRANCH  11  13
ATOM     13  C   UNL     1       0.390   3.224  -0.542  0.00  0.00    +0.191 A 
ATOM     14  C   UNL     1       0.440   2.090  -1.301  0.00  0.00    +0.056 A 
ATOM     15  C   UNL     1      -0.328   1.123  -0.634  0.00  0.00    +0.058 A 
ATOM     16  C   UNL     1      -0.813   1.705   0.487  0.00  0.00    +0.171 A 
ATOM     17  O   UNL     1      -0.374   2.969   0.541  0.00  0.00    -0.444 OA
ATOM     18 BR   UNL     1      -1.925   0.869   1.768  0.00  0.00    -0.008 Br
ENDBRANCH  11  13
BRANCH  10  19
ATOM     19  C   UNL     1      -0.033   5.467   1.105  0.00  0.00    +0.114 C 
BRANCH  19  20
ATOM     20  C   UNL     1       0.802   4.950   2.278  0.00  0.00    +0.019 C 
BRANCH  20  22
ATOM     21  C   UNL     1       0.752   4.315   4.694  0.00  0.00    +0.004 C 
ATOM     22  C   UNL     1      -0.083   4.832   3.521  0.00  0.00    -0.002 C 
ENDBRANCH  20  22
ENDBRANCH  19  20
ENDBRANCH  10  19
ENDBRANCH   1  10
BRANCH   2  23
ATOM     23  N   UNL     1       3.579   5.972  -0.016  0.00  0.00    -0.343 N 
ATOM     24  H   UNL     1       3.206   5.097   0.176  0.00  0.00    +0.144 HD
ATOM     25  H   UNL     1       4.535   6.118   0.056  0.00  0.00    +0.144 HD
ENDBRANCH   2  23
BRANCH   3  26
ATOM     26  C   UNL     1       4.728   8.431  -0.704  0.00  0.00    +0.131 C 
BRANCH  26  27
ATOM     27  C   UNL     1       5.144   8.923   0.684  0.00  0.00    +0.003 C 
ATOM     28  C   UNL     1       4.866   7.829   1.717  0.00  0.00    +0.009 C 
ATOM     29  C   UNL     1       6.638   9.254   0.681  0.00  0.00    +0.009 C 
ENDBRANCH  26  27
ENDBRANCH   3  26
TORSDOF 8
