REMARK  Name = ZINC01042163
REMARK  4 active torsions:
REMARK  status: ('A' for Active; 'I' for Inactive)
REMARK    1  A    between atoms: C_9  and  N_11
REMARK    2  A    between atoms: N_14  and  S_17
REMARK    3  A    between atoms: S_17  and  C_20
REMARK    4  A    between atoms: C_23  and  C_26
REMARK                            x       y       z     vdW  Elec       q    Type
REMARK                         _______ _______ _______ _____ _____    ______ ____
ROOT
ATOM      1  N   UNL     1       1.183  -2.735  -4.385  0.00  0.00    -0.327 N 
ATOM      2  C   UNL     1       2.400  -2.354  -3.655  0.00  0.00    +0.122 C 
ATOM      3  C   UNL     1       2.468  -3.136  -2.340  0.00  0.00    +0.128 C 
ATOM      4  N   UNL     1       1.211  -2.927  -1.605  0.00  0.00    -0.174 NA
ATOM      5  C   UNL     1      -0.056  -3.163  -2.314  0.00  0.00    +0.128 C 
ATOM      6  C   UNL     1      -0.025  -2.374  -3.632  0.00  0.00    +0.122 C 
ENDROOT
BRANCH   1  15
ATOM      7  C   UNL     1       1.181  -0.228  -7.079  0.00  0.00    +0.004 A 
ATOM      8  C   UNL     1       1.133  -1.022  -8.203  0.00  0.00    +0.026 A 
ATOM      9  C   UNL     1       1.100  -2.409  -8.077  0.00  0.00    +0.048 A 
ATOM     10  C   UNL     1       1.123  -2.987  -6.797  0.00  0.00    +0.021 A 
ATOM     11  C   UNL     1       1.074  -4.436  -7.005  0.00  0.00    +0.029 A 
ATOM     12  C   UNL     1       1.035  -4.641  -8.331  0.00  0.00    +0.083 A 
ATOM     13  N   UNL     1       1.050  -3.440  -8.988  0.00  0.00    -0.361 N 
ATOM     14  H   UNL     1       1.029  -3.332  -9.952  0.00  0.00    +0.165 HD
ATOM     15  C   UNL     1       1.167  -2.168  -5.660  0.00  0.00    +0.039 A 
ATOM     16  C   UNL     1       1.198  -0.793  -5.812  0.00  0.00    +0.024 A 
ENDBRANCH   1  15
BRANCH   4  17
ATOM     17  S   UNL     1       1.222  -2.445  -0.021  0.00  0.00    +0.061 S 
ATOM     18  O   UNL     1       2.476  -2.843   0.516  0.00  0.00    -0.153 OA
ATOM     19  O   UNL     1      -0.014  -2.864   0.540  0.00  0.00    -0.153 OA
BRANCH  17  20
ATOM     20  C   UNL     1       1.208  -0.683  -0.013  0.00  0.00    +0.106 A 
ATOM     21  C   UNL     1       0.002  -0.004   0.002  0.00  0.00    +0.030 A 
ATOM     22  C   UNL     1      -0.017   1.375   0.010  0.00  0.00    +0.021 A 
ATOM     23  C   UNL     1       1.185   2.087   0.002  0.00  0.00    +0.052 A 
ATOM     24  C   UNL     1       2.398   1.395  -0.013  0.00  0.00    +0.021 A 
ATOM     25  C   UNL     1       2.402   0.016  -0.020  0.00  0.00    +0.030 A 
BRANCH  23  26
ATOM     26  C   UNL     1       1.173   3.518   0.009  0.00  0.00    +0.099 C 
ATOM     27  N   UNL     1       1.164   4.654   0.015  0.00  0.00    -0.191 NA
ENDBRANCH  23  26
ENDBRANCH  17  20
ENDBRANCH   4  17
TORSDOF 4
