REMARK  Name = ZINC14473544
REMARK  11 active torsions:
REMARK  status: ('A' for Active; 'I' for Inactive)
REMARK    1  A    between atoms: C_1  and  C_2
REMARK    2  A    between atoms: C_2  and  C_3
REMARK    3  A    between atoms: C_2  and  C_4
REMARK    4  A    between atoms: C_8  and  C_32
REMARK    5  A    between atoms: C_9  and  N_10
REMARK    6  A    between atoms: C_11  and  C_13
REMARK    7  A    between atoms: C_13  and  N_14
REMARK    8  A    between atoms: C_17  and  C_21
REMARK    9  A    between atoms: C_17  and  C_22
REMARK   10  A    between atoms: C_32  and  C_33
REMARK   11  A    between atoms: C_32  and  C_34
REMARK                            x       y       z     vdW  Elec       q    Type
REMARK                         _______ _______ _______ _____ _____    ______ ____
ROOT
ATOM      1  N   UNL     1       4.402   2.590   3.122  0.00  0.00    -0.215 N 
ATOM      2  C   UNL     1       3.534   2.420   2.105  0.00  0.00    +0.251 C 
ATOM      3  O   UNL     1       3.728   2.652   0.931  0.00  0.00    -0.272 OA
ATOM      4  C   UNL     1       2.266   1.878   2.734  0.00  0.00    +0.135 C 
ATOM      5  N   UNL     1       2.597   1.798   4.167  0.00  0.00    -0.281 N 
ATOM      6  C   UNL     1       3.863   2.235   4.294  0.00  0.00    +0.310 C 
ATOM      7  O   UNL     1       4.452   2.299   5.356  0.00  0.00    -0.252 OA
ATOM      8  C   UNL     1       1.937   0.491   2.179  0.00  0.00    +0.047 C 
ATOM      9  H   UNL     1       2.016   1.490   4.880  0.00  0.00    +0.152 HD
ENDROOT
BRANCH   4  10
ATOM     10  C   UNL     1       1.116   2.825   2.507  0.00  0.00    -0.015 A 
ATOM     11  C   UNL     1       1.048   3.551   1.320  0.00  0.00    +0.007 A 
ATOM     12  C   UNL     1       0.022   4.414   1.084  0.00  0.00    +0.009 A 
ATOM     13  C   UNL     1      -0.985   4.577   2.050  0.00  0.00    -0.018 A 
ATOM     14  C   UNL     1      -2.060   5.459   1.843  0.00  0.00    +0.008 A 
ATOM     15  C   UNL     1      -3.017   5.592   2.801  0.00  0.00    +0.001 A 
ATOM     16  C   UNL     1      -2.948   4.867   3.989  0.00  0.00    +0.001 A 
ATOM     17  C   UNL     1      -1.923   4.003   4.224  0.00  0.00    +0.008 A 
ATOM     18  C   UNL     1      -0.919   3.835   3.255  0.00  0.00    -0.018 A 
ATOM     19  C   UNL     1       0.159   2.958   3.466  0.00  0.00    +0.014 A 
ENDBRANCH   4  10
BRANCH   1  20
ATOM     20  C   UNL     1       5.766   3.101   2.965  0.00  0.00    +0.214 C 
BRANCH  20  22
ATOM     21  N   UNL     1       8.025   2.181   2.552  0.00  0.00    -0.284 N 
ATOM     22  C   UNL     1       6.709   1.949   2.727  0.00  0.00    +0.235 C 
ATOM     23  O   UNL     1       6.283   0.814   2.692  0.00  0.00    -0.274 OA
ATOM     24  H   UNL     1       8.355   3.092   2.503  0.00  0.00    +0.155 HD
BRANCH  21  30
ATOM     25  C   UNL     1       8.794   0.209   1.388  0.00  0.00    -0.023 A 
ATOM     26  C   UNL     1       9.678  -0.846   1.278  0.00  0.00    +0.006 A 
ATOM     27  C   UNL     1      10.676  -1.015   2.220  0.00  0.00    +0.001 A 
ATOM     28  C   UNL     1      10.796  -0.126   3.272  0.00  0.00    +0.006 A 
ATOM     29  C   UNL     1       9.919   0.935   3.384  0.00  0.00    -0.023 A 
ATOM     30  C   UNL     1       8.915   1.108   2.440  0.00  0.00    +0.040 A 
BRANCH  25  32
ATOM     31  C   UNL     1       8.217   1.264  -0.781  0.00  0.00    +0.012 C 
ATOM     32  C   UNL     1       7.703   0.390   0.364  0.00  0.00    +0.015 C 
ATOM     33  C   UNL     1       7.288  -0.977  -0.184  0.00  0.00    +0.012 C 
ENDBRANCH  25  32
BRANCH  29  34
ATOM     34  C   UNL     1      10.051   1.904   4.531  0.00  0.00    +0.015 C 
ATOM     35  C   UNL     1       9.894   1.152   5.854  0.00  0.00    +0.012 C 
ATOM     36  C   UNL     1      11.428   2.568   4.482  0.00  0.00    +0.012 C 
ENDBRANCH  29  34
ENDBRANCH  21  30
ENDBRANCH  20  22
ENDBRANCH   1  20
TORSDOF 6
