REMARK  Name = ZINC63399772
REMARK  11 active torsions:
REMARK  status: ('A' for Active; 'I' for Inactive)
REMARK    1  A    between atoms: C_1  and  C_2
REMARK    2  A    between atoms: C_9  and  C_11
REMARK    3  A    between atoms: C_11  and  C_12
REMARK    4  A    between atoms: C_12  and  C_13
REMARK    5  A    between atoms: N_15  and  C_16
REMARK    6  A    between atoms: C_16  and  C_17
REMARK    7  A    between atoms: C_17  and  C_19
REMARK    8  A    between atoms: C_17  and  C_28
REMARK    9  A    between atoms: C_22  and  N_25
REMARK   10  A    between atoms: N_25  and  C_26
REMARK   11  A    between atoms: N_25  and  C_27
REMARK                            x       y       z     vdW  Elec       q    Type
REMARK                         _______ _______ _______ _____ _____    ______ ____
ROOT
ATOM      1  C   UNL     1      -4.906   4.622   5.036  0.00  0.00    +0.064 C 
ENDROOT
BRANCH   1   2
ATOM      2  C   UNL     1      -3.546   5.086   5.489  0.00  0.00    -0.033 C 
ATOM      3  C   UNL     1      -2.944   6.259   5.185  0.00  0.00    -0.000 A 
ATOM      4  C   UNL     1      -3.360   7.409   4.372  0.00  0.00    +0.010 A 
ATOM      5  C   UNL     1      -2.522   8.463   4.250  0.00  0.00    +0.001 A 
ATOM      6  C   UNL     1      -1.270   8.486   4.878  0.00  0.00    +0.002 A 
ATOM      7  C   UNL     1      -0.817   7.467   5.640  0.00  0.00    +0.026 A 
ATOM      8  C   UNL     1      -1.617   6.308   5.838  0.00  0.00    +0.043 A 
ATOM      9  N   UNL     1      -1.405   5.207   6.519  0.00  0.00    -0.380 N 
ATOM     10  C   UNL     1      -2.579   4.338   6.379  0.00  0.00    +0.145 C 
ATOM     11  H   UNL     1      -0.608   5.004   7.032  0.00  0.00    +0.160 HD
ENDBRANCH   1   2
BRANCH   1  12
ATOM     12  C   UNL     1      -5.782   4.385   6.240  0.00  0.00    -0.039 A 
ATOM     13  C   UNL     1      -5.406   3.458   7.195  0.00  0.00    +0.006 A 
ATOM     14  C   UNL     1      -6.207   3.239   8.299  0.00  0.00    +0.023 A 
ATOM     15  C   UNL     1      -7.390   3.951   8.449  0.00  0.00    +0.029 A 
ATOM     16  C   UNL     1      -7.764   4.882   7.488  0.00  0.00    +0.023 A 
ATOM     17  C   UNL     1      -6.956   5.100   6.389  0.00  0.00    +0.006 A 
BRANCH  15  18
ATOM     18  N   UNL     1      -8.202   3.732   9.565  0.00  0.00    -0.336 N 
ATOM     19  C   UNL     1      -7.806   2.750  10.577  0.00  0.00    +0.129 C 
ATOM     20  C   UNL     1      -9.449   4.484   9.722  0.00  0.00    +0.129 C 
ENDBRANCH  15  18
ENDBRANCH   1  12
BRANCH   1  21
ATOM     21  C   UNL     1      -4.763   3.320   4.246  0.00  0.00    +0.116 C 
BRANCH  21  24
ATOM     22  C   UNL     1      -3.763   2.568   2.155  0.00  0.00    +0.213 C 
ATOM     23  O   UNL     1      -4.160   1.449   2.401  0.00  0.00    -0.276 OA
ATOM     24  N   UNL     1      -4.012   3.576   3.014  0.00  0.00    -0.314 N 
ATOM     25  H   UNL     1      -3.694   4.471   2.817  0.00  0.00    +0.149 HD
BRANCH  22  26
ATOM     26  C   UNL     1      -2.990   2.831   0.888  0.00  0.00    +0.100 C 
BRANCH  26  27
ATOM     27  C   UNL     1      -2.848   1.529   0.098  0.00  0.00    +0.051 C 
BRANCH  27  36
ATOM     28  C   UNL     1      -0.013   1.086   0.008  0.00  0.00    +0.064 C 
ATOM     29  C   UNL     1      -0.742   1.585  -1.213  0.00  0.00    +0.026 A 
ATOM     30  N   UNL     1      -0.056   1.825  -2.373  0.00  0.00    -0.311 N 
ATOM     31  C   UNL     1      -0.698   2.270  -3.468  0.00  0.00    +0.327 A 
ATOM     32  O   UNL     1      -0.069   2.476  -4.489  0.00  0.00    -0.247 OA
ATOM     33  N   UNL     1      -2.025   2.490  -3.451  0.00  0.00    -0.275 N 
ATOM     34  C   UNL     1      -2.737   2.266  -2.328  0.00  0.00    +0.257 A 
ATOM     35  O   UNL     1      -3.938   2.465  -2.311  0.00  0.00    -0.267 OA
ATOM     36  C   UNL     1      -2.075   1.793  -1.169  0.00  0.00    +0.036 A 
ATOM     37  H   UNL     1       0.901   1.672  -2.405  0.00  0.00    +0.170 HD
ATOM     38  H   UNL     1      -2.472   2.811  -4.250  0.00  0.00    +0.173 HD
ENDBRANCH  27  36
ENDBRANCH  26  27
ENDBRANCH  22  26
ENDBRANCH  21  24
ENDBRANCH   1  21
TORSDOF 8
