REMARK  Name = ZINC13145619
REMARK  6 active torsions:
REMARK  status: ('A' for Active; 'I' for Inactive)
REMARK    1  A    between atoms: C_1  and  C_2
REMARK    2  A    between atoms: N_11  and  S_12
REMARK    3  A    between atoms: S_12  and  C_15
REMARK    4  A    between atoms: C_19  and  C_21
REMARK    5  A    between atoms: N_23  and  N_24
REMARK    6  A    between atoms: C_25  and  C_27
REMARK                            x       y       z     vdW  Elec       q    Type
REMARK                         _______ _______ _______ _____ _____    ______ ____
ROOT
ATOM      1  C   UNL     1      -0.048   3.850   0.023  0.00  0.00    +0.109 A 
ATOM      2  C   UNL     1       1.155   3.167   0.008  0.00  0.00    +0.029 A 
ATOM      3  C   UNL     1       1.172   1.783   0.000  0.00  0.00    +0.003 A 
ATOM      4  C   UNL     1      -0.013   1.076   0.008  0.00  0.00    +0.013 A 
ATOM      5  C   UNL     1      -1.230   1.759   0.017  0.00  0.00    +0.040 A 
ATOM      6  C   UNL     1      -1.240   3.155   0.030  0.00  0.00    +0.042 A 
ENDROOT
BRANCH   5   7
ATOM      7  C   UNL     1      -2.503   1.007   0.019  0.00  0.00    +0.260 C 
ATOM      8  O   UNL     1      -3.561   1.604   0.028  0.00  0.00    -0.269 OA
ATOM      9  N   UNL     1      -2.490  -0.341   0.012  0.00  0.00    -0.230 N 
ATOM     10  H   UNL     1      -1.645  -0.818   0.005  0.00  0.00    +0.173 HD
BRANCH   9  11
ATOM     11  N   UNL     1      -3.696  -1.053   0.014  0.00  0.00    -0.230 N 
ATOM     12  C   UNL     1      -3.683  -2.401   0.006  0.00  0.00    +0.260 C 
ATOM     13  O   UNL     1      -2.624  -2.998  -0.002  0.00  0.00    -0.269 OA
ATOM     14  H   UNL     1      -4.541  -0.576   0.020  0.00  0.00    +0.173 HD
BRANCH  12  15
ATOM     15  C   UNL     1      -4.956  -3.152   0.008  0.00  0.00    +0.040 A 
ATOM     16  C   UNL     1      -4.946  -4.548   0.001  0.00  0.00    +0.013 A 
ATOM     17  C   UNL     1      -6.137  -5.244   0.003  0.00  0.00    +0.002 A 
ATOM     18  C   UNL     1      -7.340  -4.562   0.013  0.00  0.00    +0.020 A 
ATOM     19  C   UNL     1      -7.358  -3.178   0.021  0.00  0.00    +0.042 A 
ATOM     20  C   UNL     1      -6.173  -2.470   0.024  0.00  0.00    +0.033 A 
ATOM     21 CL   UNL     1      -8.874  -2.331   0.034  0.00  0.00    -0.084 Cl
ENDBRANCH  12  15
ENDBRANCH   9  11
ENDBRANCH   5   7
BRANCH   1  22
ATOM     22  S   UNL     1      -0.059   5.612   0.033  0.00  0.00    +0.075 S 
ATOM     23  O   UNL     1      -1.301   6.008   0.598  0.00  0.00    -0.150 OA
ATOM     24  O   UNL     1       1.189   6.022   0.574  0.00  0.00    -0.150 OA
BRANCH  22  34
ATOM     25  C   UNL     1       1.960   5.107  -2.489  0.00  0.00    +0.030 C 
ATOM     26  C   UNL     1       1.115   6.375  -2.357  0.00  0.00    +0.099 C 
ATOM     27  C   UNL     1       0.579   6.801  -3.733  0.00  0.00    +0.061 C 
ATOM     28  C   UNL     1      -0.925   6.752  -3.587  0.00  0.00    -0.023 A 
ATOM     29  C   UNL     1      -1.933   7.034  -4.489  0.00  0.00    +0.005 A 
ATOM     30  C   UNL     1      -3.257   6.911  -4.112  0.00  0.00    +0.000 A 
ATOM     31  C   UNL     1      -3.572   6.505  -2.827  0.00  0.00    +0.002 A 
ATOM     32  C   UNL     1      -2.570   6.223  -1.924  0.00  0.00    +0.025 A 
ATOM     33  C   UNL     1      -1.230   6.344  -2.298  0.00  0.00    +0.055 A 
ATOM     34  N   UNL     1      -0.077   6.110  -1.546  0.00  0.00    -0.200 N 
ENDBRANCH  22  34
ENDBRANCH   1  22
TORSDOF 5
