REMARK  Name = ZINC64613572
REMARK  4 active torsions:
REMARK  status: ('A' for Active; 'I' for Inactive)
REMARK    1  A    between atoms: C_1  and  C_2
REMARK    2  A    between atoms: C_7  and  C_8
REMARK    3  A    between atoms: C_10  and  C_14
REMARK    4  A    between atoms: C_17  and  C_20
REMARK                            x       y       z     vdW  Elec       q    Type
REMARK                         _______ _______ _______ _____ _____    ______ ____
ROOT
ATOM      1  C   UNL     1      -0.106  -0.132   2.574  0.00  0.00    +0.091 C 
ATOM      2  C   UNL     1      -0.309   1.184   2.776  0.00  0.00    +0.037 C 
ATOM      3  C   UNL     1      -0.289   1.326   4.288  0.00  0.00    +0.215 C 
ATOM      4  N   UNL     1      -0.058  -0.052   4.752  0.00  0.00    -0.174 NA
ATOM      5  N   UNL     1       0.024  -0.780   3.761  0.00  0.00    -0.154 NA
ENDROOT
BRANCH   1  12
ATOM      6  C   UNL     1       2.235  -1.665   1.841  0.00  0.00    +0.044 C 
ATOM      7  C   UNL     1       1.083  -1.524   0.880  0.00  0.00    -0.041 A 
ATOM      8  C   UNL     1       1.136  -2.132  -0.358  0.00  0.00    +0.004 A 
ATOM      9  C   UNL     1       0.079  -2.003  -1.241  0.00  0.00    +0.000 A 
ATOM     10  C   UNL     1      -1.036  -1.264  -0.889  0.00  0.00    +0.001 A 
ATOM     11  C   UNL     1      -1.100  -0.652   0.346  0.00  0.00    +0.010 A 
ATOM     12  C   UNL     1      -0.041  -0.783   1.242  0.00  0.00    +0.005 A 
ENDBRANCH   1  12
BRANCH   3  13
ATOM     13  C   UNL     1       0.850   2.247   4.729  0.00  0.00    +0.322 C 
ATOM     14  N   UNL     1       0.914   2.318   6.197  0.00  0.00    -0.287 N 
ATOM     15  C   UNL     1       0.701   3.641   6.543  0.00  0.00    +0.168 C 
ATOM     16  N   UNL     1       0.518   4.374   5.494  0.00  0.00    -0.067 NA
ATOM     17  O   UNL     1       0.594   3.597   4.311  0.00  0.00    -0.367 OA
ATOM     18  H   UNL     1       1.074   1.580   6.806  0.00  0.00    +0.151 HD
BRANCH  15  19
ATOM     19  C   UNL     1       0.683   4.149   7.933  0.00  0.00    +0.018 A 
ATOM     20  C   UNL     1       0.897   3.278   9.000  0.00  0.00    +0.011 A 
ATOM     21  C   UNL     1       0.879   3.758  10.294  0.00  0.00    +0.001 A 
ATOM     22  C   UNL     1       0.650   5.101  10.533  0.00  0.00    +0.000 A 
ATOM     23  C   UNL     1       0.438   5.971   9.478  0.00  0.00    +0.001 A 
ATOM     24  C   UNL     1       0.460   5.504   8.180  0.00  0.00    +0.011 A 
ENDBRANCH  15  19
ENDBRANCH   3  13
TORSDOF 3
