REMARK  Name = ZINC08627136
REMARK  8 active torsions:
REMARK  status: ('A' for Active; 'I' for Inactive)
REMARK    1  A    between atoms: C_6  and  N_7
REMARK    2  A    between atoms: C_13  and  C_15
REMARK    3  A    between atoms: C_15  and  C_16
REMARK    4  A    between atoms: C_18  and  O_35
REMARK    5  A    between atoms: C_20  and  O_34
REMARK    6  A    between atoms: C_22  and  C_25
REMARK    7  A    between atoms: C_25  and  N_26
REMARK    8  A    between atoms: C_27  and  C_29
REMARK                            x       y       z     vdW  Elec       q    Type
REMARK                         _______ _______ _______ _____ _____    ______ ____
ROOT
ATOM      1  C   UNL     1      -2.040   0.057   4.376  0.00  0.00    +0.159 C 
ATOM      2  C   UNL     1      -2.655   0.587   5.686  0.00  0.00    +0.175 C 
ATOM      3  C   UNL     1      -4.015  -0.146   5.790  0.00  0.00    +0.176 C 
ATOM      4  C   UNL     1      -3.794  -1.372   4.868  0.00  0.00    +0.167 C 
ATOM      5  O   UNL     1      -2.994  -0.842   3.788  0.00  0.00    -0.366 OA
ENDROOT
BRANCH   3   6
ATOM      6  O   UNL     1      -4.270  -0.559   7.134  0.00  0.00    -0.387 OA
ATOM      7  H   UNL     1      -4.326   0.171   7.766  0.00  0.00    +0.210 HD
ENDBRANCH   3   6
BRANCH   2   8
ATOM      8  O   UNL     1      -1.821   0.259   6.799  0.00  0.00    -0.387 OA
ATOM      9  H   UNL     1      -2.160   0.568   7.650  0.00  0.00    +0.210 HD
ENDBRANCH   2   8
BRANCH   1  10
ATOM     10  C   UNL     1      -1.766   1.222   3.422  0.00  0.00    +0.130 C 
BRANCH  10  17
ATOM     11  N   UNL     1      -0.913   3.056  -1.135  0.00  0.00    -0.327 N 
ATOM     12  C   UNL     1      -0.762   1.597  -1.227  0.00  0.00    +0.124 C 
ATOM     13  C   UNL     1      -0.013   1.086   0.008  0.00  0.00    +0.126 C 
ATOM     14  N   UNL     1      -0.709   1.564   1.212  0.00  0.00    -0.298 N 
ATOM     15  C   UNL     1      -1.023   2.998   1.310  0.00  0.00    +0.126 C 
ATOM     16  C   UNL     1      -1.732   3.434   0.024  0.00  0.00    +0.124 C 
ATOM     17  C   UNL     1      -1.054   0.710   2.197  0.00  0.00    +0.218 C 
ATOM     18  O   UNL     1      -0.790  -0.469   2.096  0.00  0.00    -0.276 OA
BRANCH  11  24
ATOM     19  C   UNL     1      -1.747   2.736  -3.378  0.00  0.00    +0.026 A 
ATOM     20  C   UNL     1      -2.277   3.255  -4.543  0.00  0.00    +0.040 A 
ATOM     21  C   UNL     1      -2.498   4.617  -4.657  0.00  0.00    +0.124 A 
ATOM     22  C   UNL     1      -2.192   5.461  -3.603  0.00  0.00    +0.040 A 
ATOM     23  C   UNL     1      -1.667   4.946  -2.434  0.00  0.00    +0.026 A 
ATOM     24  C   UNL     1      -1.445   3.580  -2.317  0.00  0.00    +0.030 A 
ATOM     25  F   UNL     1      -3.011   5.124  -5.800  0.00  0.00    -0.205 F 
ENDBRANCH  11  24
ENDBRANCH  10  17
ENDBRANCH   1  10
BRANCH   4  26
ATOM     26  C   UNL     1      -5.131  -1.899   4.343  0.00  0.00    +0.138 C 
BRANCH  26  27
ATOM     27  N   UNL     1      -4.905  -3.125   3.574  0.00  0.00    -0.313 N 
ATOM     28  C   UNL     1      -5.946  -3.771   3.012  0.00  0.00    +0.216 C 
ATOM     29  O   UNL     1      -7.071  -3.336   3.144  0.00  0.00    -0.276 OA
ATOM     30  H   UNL     1      -4.005  -3.473   3.468  0.00  0.00    +0.149 HD
BRANCH  28  31
ATOM     31  C   UNL     1      -5.713  -5.032   2.220  0.00  0.00    +0.075 C 
ATOM     32  C   UNL     1      -4.822  -4.731   0.998  0.00  0.00    +0.013 C 
ATOM     33  C   UNL     1      -5.398  -5.634  -0.122  0.00  0.00    +0.001 C 
ATOM     34  C   UNL     1      -6.924  -5.568   0.135  0.00  0.00    +0.001 C 
ATOM     35  C   UNL     1      -7.049  -5.564   1.672  0.00  0.00    +0.013 C 
ENDBRANCH  28  31
ENDBRANCH  26  27
ENDBRANCH   4  26
TORSDOF 8
