REMARK  Name = ZINC09785858
REMARK  5 active torsions:
REMARK  status: ('A' for Active; 'I' for Inactive)
REMARK    1  A    between atoms: C_1  and  C_2
REMARK    2  A    between atoms: C_12  and  C_14
REMARK    3  A    between atoms: C_14  and  C_15
REMARK    4  A    between atoms: N_23  and  C_24
REMARK    5  A    between atoms: C_24  and  C_25
REMARK                            x       y       z     vdW  Elec       q    Type
REMARK                         _______ _______ _______ _____ _____    ______ ____
ROOT
ATOM      1  C   UNL     1      -3.531  -6.084   0.005  0.00  0.00    +0.059 A 
ATOM      2  C   UNL     1      -4.148  -6.826  -0.947  0.00  0.00    +0.072 A 
ATOM      3  S   UNL     1      -5.851  -6.682  -0.427  0.00  0.00    -0.060 S 
ATOM      4  C   UNL     1      -5.579  -5.678   0.964  0.00  0.00    +0.166 A 
ATOM      5  N   UNL     1      -4.269  -5.530   0.947  0.00  0.00    -0.229 NA
ATOM      6  N   UNL     1      -6.505  -5.168   1.867  0.00  0.00    -0.248 N 
ATOM      7  C   UNL     1      -7.816  -5.441   1.715  0.00  0.00    +0.306 C 
ATOM      8  O   UNL     1      -8.189  -6.133   0.788  0.00  0.00    -0.252 OA
ATOM      9  N   UNL     1      -8.713  -4.946   2.591  0.00  0.00    -0.292 N 
ATOM     10  H   UNL     1      -6.207  -4.616   2.607  0.00  0.00    +0.158 HD
ATOM     11  H   UNL     1      -8.415  -4.394   3.330  0.00  0.00    +0.151 HD
ENDROOT
BRANCH   1  12
ATOM     12  C   UNL     1      -2.035  -5.902  -0.009  0.00  0.00    +0.152 C 
BRANCH  12  24
ATOM     13  C   UNL     1       3.728  -0.721  -0.037  0.00  0.00    +0.046 C 
ATOM     14  C   UNL     1       2.403  -0.004  -0.021  0.00  0.00    -0.024 A 
ATOM     15  C   UNL     1       2.374   1.367  -0.013  0.00  0.00    +0.005 A 
ATOM     16  C   UNL     1       1.177   2.067   0.002  0.00  0.00    +0.001 A 
ATOM     17  C   UNL     1      -0.017   1.368   0.010  0.00  0.00    +0.017 A 
ATOM     18  C   UNL     1       0.002  -0.004   0.002  0.00  0.00    +0.041 A 
ATOM     19  C   UNL     1       1.202  -0.751  -0.013  0.00  0.00    +0.083 A 
ATOM     20  N   UNL     1       1.056  -2.094  -0.019  0.00  0.00    -0.224 NA
ATOM     21  C   UNL     1      -0.121  -2.675  -0.010  0.00  0.00    +0.165 A 
ATOM     22  S   UNL     1      -1.236  -1.278   0.008  0.00  0.00    -0.052 S 
ATOM     23  N   UNL     1      -0.422  -4.027  -0.015  0.00  0.00    -0.264 N 
ATOM     24  C   UNL     1      -1.707  -4.431  -0.004  0.00  0.00    +0.224 C 
ATOM     25  O   UNL     1      -2.601  -3.611   0.009  0.00  0.00    -0.275 OA
ATOM     26  H   UNL     1       0.293  -4.683  -0.025  0.00  0.00    +0.157 HD
ENDBRANCH  12  24
ENDBRANCH   1  12
BRANCH   9  27
ATOM     27  C   UNL     1     -10.138  -5.242   2.425  0.00  0.00    +0.180 C 
BRANCH  27  28
ATOM     28  C   UNL     1     -10.921  -4.576   3.527  0.00  0.00    +0.122 A 
ATOM     29  C   UNL     1     -11.443  -3.337   3.483  0.00  0.00    +0.046 A 
ATOM     30  C   UNL     1     -12.089  -3.120   4.721  0.00  0.00    +0.041 A 
ATOM     31  C   UNL     1     -11.924  -4.239   5.448  0.00  0.00    +0.195 A 
ATOM     32  O   UNL     1     -11.220  -5.120   4.718  0.00  0.00    -0.466 OA
ENDBRANCH  27  28
ENDBRANCH   9  27
TORSDOF 4
