REMARK  Name = ZINC36550967
REMARK  8 active torsions:
REMARK  status: ('A' for Active; 'I' for Inactive)
REMARK    1  A    between atoms: C_1  and  C_2
REMARK    2  A    between atoms: C_2  and  N_3
REMARK    3  A    between atoms: N_3  and  C_4
REMARK    4  A    between atoms: N_3  and  S_10
REMARK    5  A    between atoms: S_10  and  C_13
REMARK    6  A    between atoms: C_26  and  C_29
REMARK    7  A    between atoms: C_32  and  O_36
REMARK    8  A    between atoms: C_34  and  O_35
REMARK                            x       y       z     vdW  Elec       q    Type
REMARK                         _______ _______ _______ _____ _____    ______ ____
ROOT
ATOM      1  C   UNL     1      -2.753  -1.606   2.127  0.00  0.00    +0.109 A 
ATOM      2  C   UNL     1      -2.761  -0.763   3.223  0.00  0.00    +0.030 A 
ATOM      3  C   UNL     1      -3.883  -0.675   4.021  0.00  0.00    +0.025 A 
ATOM      4  C   UNL     1      -5.014  -1.427   3.728  0.00  0.00    +0.031 A 
ATOM      5  C   UNL     1      -5.003  -2.268   2.609  0.00  0.00    -0.018 A 
ATOM      6  C   UNL     1      -3.876  -2.352   1.821  0.00  0.00    +0.034 A 
ATOM      7  C   UNL     1      -6.240  -3.022   2.310  0.00  0.00    +0.049 C 
ATOM      8  C   UNL     1      -6.213  -4.317   1.582  0.00  0.00    -0.023 C 
ATOM      9  C   UNL     1      -7.222  -5.066   2.012  0.00  0.00    -0.030 C 
ATOM     10  C   UNL     1      -7.994  -4.326   3.106  0.00  0.00    +0.033 C 
ATOM     11  C   UNL     1      -6.901  -3.412   3.666  0.00  0.00    +0.029 C 
ATOM     12  C   UNL     1      -7.365  -2.104   4.281  0.00  0.00    +0.108 C 
ATOM     13  N   UNL     1      -6.133  -1.337   4.564  0.00  0.00    -0.336 N 
ATOM     14  H   UNL     1      -6.100  -0.761   5.344  0.00  0.00    +0.147 HD
ENDROOT
BRANCH  12  15
ATOM     15  C   UNL     1      -8.238  -1.353   3.309  0.00  0.00    +0.015 A 
ATOM     16  C   UNL     1      -7.686  -0.387   2.490  0.00  0.00    +0.012 A 
ATOM     17  C   UNL     1      -8.483   0.303   1.597  0.00  0.00    +0.046 A 
ATOM     18  C   UNL     1      -9.842   0.028   1.522  0.00  0.00    +0.120 A 
ATOM     19  C   UNL     1     -10.398  -0.940   2.343  0.00  0.00    +0.091 A 
ATOM     20  C   UNL     1      -9.595  -1.636   3.234  0.00  0.00    +0.125 A 
BRANCH  20  21
ATOM     21  O   UNL     1     -10.136  -2.590   4.036  0.00  0.00    -0.506 OA
ATOM     22  H   UNL     1     -10.454  -2.256   4.885  0.00  0.00    +0.292 HD
ENDBRANCH  20  21
BRANCH  18  23
ATOM     23  O   UNL     1     -10.626   0.708   0.645  0.00  0.00    -0.507 OA
ATOM     24  H   UNL     1     -10.694   0.292  -0.226  0.00  0.00    +0.292 HD
ENDBRANCH  18  23
ENDBRANCH  12  15
BRANCH   1  25
ATOM     25  S   UNL     1      -1.315  -1.723   1.116  0.00  0.00    +0.075 S 
ATOM     26  O   UNL     1      -1.452  -2.912   0.350  0.00  0.00    -0.150 OA
ATOM     27  O   UNL     1      -0.201  -1.489   1.966  0.00  0.00    -0.150 OA
BRANCH  25  28
ATOM     28  N   UNL     1      -1.365  -0.461   0.044  0.00  0.00    -0.203 N 
BRANCH  28  29
ATOM     29  C   UNL     1      -1.881  -0.655  -1.239  0.00  0.00    +0.051 A 
ATOM     30  C   UNL     1      -3.237  -0.898  -1.415  0.00  0.00    +0.025 A 
ATOM     31  C   UNL     1      -3.744  -1.090  -2.686  0.00  0.00    +0.002 A 
ATOM     32  C   UNL     1      -2.902  -1.039  -3.782  0.00  0.00    +0.000 A 
ATOM     33  C   UNL     1      -1.552  -0.797  -3.611  0.00  0.00    +0.002 A 
ATOM     34  C   UNL     1      -1.040  -0.600  -2.343  0.00  0.00    +0.025 A 
ENDBRANCH  28  29
BRANCH  28  36
ATOM     35  C   UNL     1      -2.037   1.713   0.941  0.00  0.00    +0.026 C 
ATOM     36  C   UNL     1      -0.870   0.859   0.443  0.00  0.00    +0.128 C 
ENDBRANCH  28  36
ENDBRANCH  25  28
ENDBRANCH   1  25
TORSDOF 7
