REMARK  Name = ZINC12498280
REMARK  11 active torsions:
REMARK  status: ('A' for Active; 'I' for Inactive)
REMARK    1  A    between atoms: C_1  and  C_2
REMARK    2  A    between atoms: C_2  and  C_4
REMARK    3  A    between atoms: C_8  and  N_10
REMARK    4  A    between atoms: C_15  and  C_32
REMARK    5  A    between atoms: C_17  and  C_22
REMARK    6  A    between atoms: C_17  and  C_28
REMARK    7  A    between atoms: C_28  and  O_30
REMARK    8  A    between atoms: O_30  and  C_31
REMARK    9  A    between atoms: C_35  and  N_38
REMARK   10  A    between atoms: N_38  and  C_39
REMARK   11  A    between atoms: N_38  and  C_40
REMARK                            x       y       z     vdW  Elec       q    Type
REMARK                         _______ _______ _______ _____ _____    ______ ____
ROOT
ATOM      1  N   UNL     1       2.378   3.879  -0.000  0.00  0.00    -0.210 N 
ATOM      2  C   UNL     1       2.457   5.250   0.000  0.00  0.00    +0.229 C 
ATOM      3  O   UNL     1       1.557   6.038  -0.197  0.00  0.00    -0.275 OA
ATOM      4  C   UNL     1       3.834   5.549   0.287  0.00  0.00    +0.078 C 
ATOM      5  C   UNL     1       4.824   6.632   0.212  0.00  0.00    -0.026 C 
ATOM      6  C   UNL     1       5.923   4.476   0.321  0.00  0.00    +0.070 C 
ATOM      7  C   UNL     1       4.587   4.344  -0.389  0.00  0.00    +0.090 C 
ATOM      8  C   UNL     1       3.606   3.280  -0.015  0.00  0.00    +0.229 C 
ATOM      9  O   UNL     1       3.851   2.117   0.226  0.00  0.00    -0.275 OA
ATOM     10  N   UNL     1       6.093   5.929   0.582  0.00  0.00    +0.398 N 
ATOM     11  H   UNL     1       6.294   6.081   1.578  0.00  0.00    -0.083 HD
ATOM     12  H   UNL     1       6.868   6.295   0.017  0.00  0.00    -0.083 HD
ENDROOT
BRANCH   1  17
ATOM     13  C   UNL     1      -1.238   3.145   0.030  0.00  0.00    +0.019 A 
ATOM     14  C   UNL     1      -1.218   1.746   0.017  0.00  0.00    +0.011 A 
ATOM     15  C   UNL     1      -0.013   1.076   0.008  0.00  0.00    +0.003 A 
ATOM     16  C   UNL     1       1.177   1.781   0.000  0.00  0.00    +0.024 A 
ATOM     17  C   UNL     1       1.168   3.171   0.007  0.00  0.00    +0.045 A 
ATOM     18  C   UNL     1      -0.035   3.856   0.023  0.00  0.00    +0.035 A 
BRANCH  13  20
ATOM     19  C   UNL     1      -3.818   3.095   0.055  0.00  0.00    +0.091 C 
ATOM     20  C   UNL     1      -2.522   3.865   0.046  0.00  0.00    +0.160 C 
ATOM     21  O   UNL     1      -2.537   5.077   0.053  0.00  0.00    -0.292 OA
ENDBRANCH  13  20
ENDBRANCH   1  17
BRANCH   6  22
ATOM     22  C   UNL     1       7.033   3.968  -0.563  0.00  0.00    -0.047 A 
ATOM     23  C   UNL     1       6.784   2.959  -1.475  0.00  0.00    +0.003 A 
ATOM     24  C   UNL     1       7.801   2.497  -2.289  0.00  0.00    +0.000 A 
ATOM     25  C   UNL     1       9.069   3.037  -2.185  0.00  0.00    +0.000 A 
ATOM     26  C   UNL     1       9.320   4.042  -1.270  0.00  0.00    +0.000 A 
ATOM     27  C   UNL     1       8.302   4.508  -0.459  0.00  0.00    +0.003 A 
ENDBRANCH   6  22
BRANCH   5  28
ATOM     28  C   UNL     1       4.907   7.184  -1.188  0.00  0.00    -0.060 A 
ATOM     29  C   UNL     1       5.551   6.463  -2.177  0.00  0.00    +0.004 A 
ATOM     30  C   UNL     1       5.623   6.963  -3.462  0.00  0.00    +0.023 A 
ATOM     31  C   UNL     1       5.059   8.197  -3.759  0.00  0.00    +0.029 A 
ATOM     32  C   UNL     1       4.418   8.922  -2.761  0.00  0.00    +0.023 A 
ATOM     33  C   UNL     1       4.344   8.413  -1.480  0.00  0.00    +0.004 A 
BRANCH  31  34
ATOM     34  N   UNL     1       5.135   8.709  -5.056  0.00  0.00    -0.336 N 
ATOM     35  C   UNL     1       4.539  10.010  -5.367  0.00  0.00    +0.129 C 
ATOM     36  C   UNL     1       5.811   7.943  -6.106  0.00  0.00    +0.129 C 
ENDBRANCH  31  34
ENDBRANCH   5  28
BRANCH   6  37
ATOM     37  C   UNL     1       5.901   3.709   1.618  0.00  0.00    +0.301 C 
ATOM     38  O   UNL     1       5.144   2.776   1.755  0.00  0.00    -0.252 OA
BRANCH  37  39
ATOM     39  O   UNL     1       6.721   4.061   2.620  0.00  0.00    -0.469 OA
ATOM     40  C   UNL     1       6.645   3.278   3.840  0.00  0.00    +0.280 C 
ENDBRANCH  37  39
ENDBRANCH   6  37
TORSDOF 7
