REMARK  Name = ZINC38627212
REMARK  12 active torsions:
REMARK  status: ('A' for Active; 'I' for Inactive)
REMARK    1  A    between atoms: C_1  and  C_2
REMARK    2  A    between atoms: C_2  and  C_4
REMARK    3  A    between atoms: C_2  and  N_23
REMARK    4  A    between atoms: N_6  and  C_7
REMARK    5  A    between atoms: C_11  and  O_21
REMARK    6  A    between atoms: C_15  and  C_17
REMARK    7  A    between atoms: C_17  and  O_19
REMARK    8  A    between atoms: O_19  and  C_20
REMARK    9  A    between atoms: O_21  and  C_22
REMARK   10  A    between atoms: N_26  and  C_29
REMARK   11  A    between atoms: C_34  and  O_35
REMARK   12  A    between atoms: O_35  and  C_36
REMARK                            x       y       z     vdW  Elec       q    Type
REMARK                         _______ _______ _______ _____ _____    ______ ____
ROOT
ATOM      1  C   UNL     1       1.260   0.306  -1.450  0.00  0.00    +0.203 C 
ATOM      2  O   UNL     1       0.571  -0.682  -1.587  0.00  0.00    -0.277 OA
ATOM      3  N   UNL     1       2.352   0.478  -2.222  0.00  0.00    -0.288 N 
ATOM      4  H   UNL     1       2.942   1.232  -2.066  0.00  0.00    +0.155 HD
ENDROOT
BRANCH   3   5
ATOM      5  C   UNL     1       2.626  -0.406  -3.223  0.00  0.00    +0.053 C 
ATOM      6  C   UNL     1       3.746  -0.428  -4.032  0.00  0.00    +0.018 A 
ATOM      7  C   UNL     1       4.897   0.396  -4.090  0.00  0.00    +0.015 A 
ATOM      8  C   UNL     1       5.862   0.139  -5.004  0.00  0.00    +0.046 A 
ATOM      9  C   UNL     1       5.754  -0.931  -5.906  0.00  0.00    +0.122 A 
ATOM     10  C   UNL     1       4.675  -1.762  -5.904  0.00  0.00    +0.071 A 
ATOM     11  C   UNL     1       3.627  -1.554  -4.976  0.00  0.00    +0.048 A 
ATOM     12  N   UNL     1       2.498  -2.205  -4.774  0.00  0.00    -0.367 N 
ATOM     13  C   UNL     1       1.770  -1.569  -3.672  0.00  0.00    +0.234 C 
ATOM     14  H   UNL     1       2.199  -2.982  -5.273  0.00  0.00    +0.161 HD
BRANCH  13  15
ATOM     15  C   UNL     1       0.432  -1.072  -4.156  0.00  0.00    +0.335 C 
ATOM     16  O   UNL     1       0.320  -0.631  -5.275  0.00  0.00    -0.248 OA
BRANCH  15  17
ATOM     17  O   UNL     1      -0.636  -1.119  -3.343  0.00  0.00    -0.466 OA
ATOM     18  C   UNL     1      -1.872  -0.632  -3.867  0.00  0.00    +0.280 C 
ENDBRANCH  15  17
ENDBRANCH  13  15
BRANCH   9  19
ATOM     19  O   UNL     1       6.749  -1.144  -6.802  0.00  0.00    -0.495 OA
ATOM     20  C   UNL     1       7.859  -0.244  -6.764  0.00  0.00    +0.277 C 
ENDBRANCH   9  19
ENDBRANCH   3   5
BRANCH   1  22
ATOM     21  C   UNL     1       0.028   2.423  -1.064  0.00  0.00    -0.004 C 
ATOM     22  C   UNL     1       0.896   1.341  -0.417  0.00  0.00    +0.017 C 
BRANCH  22  23
ATOM     23  N   UNL     1       0.150   0.702   0.674  0.00  0.00    +0.389 N 
ATOM     24  C   UNL     1      -0.287   1.727   1.632  0.00  0.00    -0.059 C 
ATOM     25  C   UNL     1      -1.162   1.078   2.709  0.00  0.00    +0.086 C 
ATOM     26  N   UNL     1      -0.412  -0.035   3.311  0.00  0.00    -0.331 N 
ATOM     27  C   UNL     1       0.202  -1.024   2.412  0.00  0.00    +0.086 C 
ATOM     28  C   UNL     1       1.013  -0.276   1.348  0.00  0.00    -0.059 C 
ATOM     29  H   UNL     1      -0.659   0.232   0.297  0.00  0.00    -0.081 HD
BRANCH  26  30
ATOM     30  C   UNL     1      -0.286  -0.151   4.700  0.00  0.00    +0.072 A 
ATOM     31  C   UNL     1      -1.224  -0.870   5.426  0.00  0.00    +0.027 A 
ATOM     32  C   UNL     1      -1.098  -0.982   6.798  0.00  0.00    +0.002 A 
ATOM     33  C   UNL     1      -0.037  -0.380   7.450  0.00  0.00    +0.004 A 
ATOM     34  C   UNL     1       0.902   0.339   6.733  0.00  0.00    +0.047 A 
ATOM     35  C   UNL     1       0.785   0.452   5.357  0.00  0.00    +0.141 A 
BRANCH  35  36
ATOM     36  O   UNL     1       1.711   1.153   4.650  0.00  0.00    -0.493 OA
ATOM     37  C   UNL     1       2.781   1.744   5.390  0.00  0.00    +0.277 C 
ENDBRANCH  35  36
ENDBRANCH  26  30
ENDBRANCH  22  23
ENDBRANCH   1  22
TORSDOF 8
