REMARK  Name = ZINC05013233
REMARK  2 active torsions:
REMARK  status: ('A' for Active; 'I' for Inactive)
REMARK    1  A    between atoms: C_4  and  C_7
REMARK    2  A    between atoms: C_10  and  C_16
REMARK                            x       y       z     vdW  Elec       q    Type
REMARK                         _______ _______ _______ _____ _____    ______ ____
ROOT
ATOM      1  C   UNL     1       3.329   8.898  -0.367  0.00  0.00    +0.175 A 
ATOM      2  C   UNL     1       2.583   7.718  -0.372  0.00  0.00    +0.050 A 
ATOM      3  C   UNL     1       2.823   6.346  -0.425  0.00  0.00    +0.021 A 
ATOM      4  C   UNL     1       1.755   5.459  -0.410  0.00  0.00    -0.023 A 
ATOM      5  C   UNL     1       0.418   5.909  -0.332  0.00  0.00    +0.010 A 
ATOM      6  C   UNL     1       0.112   7.226  -0.274  0.00  0.00    +0.032 A 
ATOM      7  C   UNL     1       1.189   8.207  -0.291  0.00  0.00    +0.114 A 
ATOM      8  N   UNL     1       1.285   9.513  -0.251  0.00  0.00    -0.078 NA
ATOM      9  O   UNL     1       2.433   9.896  -0.292  0.00  0.00    -0.353 OA
ENDROOT
BRANCH   4  10
ATOM     10  C   UNL     1       2.021   4.019  -0.471  0.00  0.00    +0.028 C 
ATOM     11  C   UNL     1       1.038   3.161  -0.850  0.00  0.00    +0.080 C 
ATOM     12  C   UNL     1       1.021   1.686  -0.839  0.00  0.00    +0.258 C 
ATOM     13  O   UNL     1       1.977   1.039  -0.454  0.00  0.00    -0.269 OA
ATOM     14  N   UNL     1      -0.085   1.102  -1.269  0.00  0.00    -0.243 N 
ATOM     15  C   UNL     1      -1.141   1.823  -1.700  0.00  0.00    +0.283 C 
ATOM     16  O   UNL     1      -2.209   1.421  -2.122  0.00  0.00    -0.262 OA
ATOM     17  S   UNL     1      -0.592   3.510  -1.497  0.00  0.00    -0.026 S 
ATOM     18  H   UNL     1      -0.137   0.134  -1.278  0.00  0.00    +0.159 HD
ENDBRANCH   4  10
BRANCH   1  22
ATOM     19  C   UNL     1       7.553   9.257  -0.552  0.00  0.00    +0.000 A 
ATOM     20  C   UNL     1       6.835  10.028   0.346  0.00  0.00    +0.001 A 
ATOM     21  C   UNL     1       5.463   9.917   0.412  0.00  0.00    +0.011 A 
ATOM     22  C   UNL     1       4.795   9.023  -0.432  0.00  0.00    +0.021 A 
ATOM     23  C   UNL     1       5.528   8.245  -1.333  0.00  0.00    +0.011 A 
ATOM     24  C   UNL     1       6.900   8.371  -1.391  0.00  0.00    +0.001 A 
ENDBRANCH   1  22
TORSDOF 2
