REMARK  Name = ZINC02349298
REMARK  11 active torsions:
REMARK  status: ('A' for Active; 'I' for Inactive)
REMARK    1  A    between atoms: C_1  and  O_2
REMARK    2  A    between atoms: O_2  and  C_3
REMARK    3  A    between atoms: C_7  and  C_11
REMARK    4  A    between atoms: C_8  and  O_9
REMARK    5  A    between atoms: O_9  and  C_10
REMARK    6  A    between atoms: N_12  and  N_13
REMARK    7  A    between atoms: C_14  and  N_37
REMARK    8  A    between atoms: C_15  and  C_26
REMARK    9  A    between atoms: N_28  and  C_29
REMARK   10  A    between atoms: C_29  and  C_30
REMARK   11  A    between atoms: C_30  and  C_31
REMARK                            x       y       z     vdW  Elec       q    Type
REMARK                         _______ _______ _______ _____ _____    ______ ____
ROOT
ATOM      1  N   UNL     1      -4.241  -0.202   0.753  0.00  0.00    -0.198 N 
ATOM      2  C   UNL     1      -3.112   0.461   1.134  0.00  0.00    +0.134 A 
ATOM      3  C   UNL     1      -2.406   0.898   0.018  0.00  0.00    +0.105 A 
ATOM      4  C   UNL     1      -3.168   0.454  -1.160  0.00  0.00    +0.124 A 
ATOM      5  C   UNL     1      -4.338  -0.248  -0.625  0.00  0.00    +0.183 A 
ATOM      6  N   UNL     1      -5.219  -0.765  -1.455  0.00  0.00    -0.224 NA
ATOM      7  C   UNL     1      -5.039  -0.647  -2.777  0.00  0.00    +0.092 A 
ATOM      8  C   UNL     1      -5.975  -1.198  -3.672  0.00  0.00    +0.030 A 
ATOM      9  C   UNL     1      -5.784  -1.072  -5.013  0.00  0.00    +0.002 A 
ATOM     10  C   UNL     1      -4.671  -0.404  -5.519  0.00  0.00    +0.002 A 
ATOM     11  C   UNL     1      -3.744   0.141  -4.686  0.00  0.00    +0.030 A 
ATOM     12  C   UNL     1      -3.907   0.032  -3.292  0.00  0.00    +0.090 A 
ATOM     13  N   UNL     1      -3.001   0.565  -2.463  0.00  0.00    -0.241 NA
ENDROOT
BRANCH   3  14
ATOM     14  C   UNL     1      -1.187   1.624   0.017  0.00  0.00    +0.250 C 
ATOM     15  O   UNL     1      -1.204   2.841   0.023  0.00  0.00    -0.270 OA
ATOM     16  N   UNL     1      -0.011   0.966   0.007  0.00  0.00    -0.311 N 
ATOM     17  H   UNL     1       0.002  -0.004   0.002  0.00  0.00    +0.149 HD
BRANCH  16  18
ATOM     18  C   UNL     1       1.248   1.716  -0.001  0.00  0.00    +0.109 C 
BRANCH  18  19
ATOM     19  C   UNL     1       2.424   0.737  -0.017  0.00  0.00    +0.049 C 
BRANCH  19  20
ATOM     20  C   UNL     1       3.719   1.508  -0.025  0.00  0.00    -0.072 C 
ATOM     21  C   UNL     1       4.302   1.727   1.109  0.00  0.00    -0.028 C 
ATOM     22  C   UNL     1       5.587   2.486   1.261  0.00  0.00    +0.027 C 
ATOM     23  C   UNL     1       6.305   2.582  -0.087  0.00  0.00    +0.004 C 
ATOM     24  C   UNL     1       5.300   3.069  -1.138  0.00  0.00    +0.005 C 
ATOM     25  C   UNL     1       4.254   1.970  -1.349  0.00  0.00    +0.030 C 
ENDBRANCH  19  20
ENDBRANCH  18  19
ENDBRANCH  16  18
ENDBRANCH   3  14
BRANCH   2  26
ATOM     26  N   UNL     1      -2.729   0.670   2.434  0.00  0.00    -0.342 N 
ATOM     27  H   UNL     1      -1.911   1.154   2.627  0.00  0.00    +0.144 HD
ATOM     28  H   UNL     1      -3.276   0.334   3.161  0.00  0.00    +0.144 HD
ENDBRANCH   2  26
BRANCH   1  30
ATOM     29  C   UNL     1      -5.027  -1.990   2.038  0.00  0.00    +0.145 C 
ATOM     30  N   UNL     1      -5.171  -0.764   1.637  0.00  0.00    -0.171 NA
BRANCH  29  35
ATOM     31  C   UNL     1      -8.010  -2.391   4.297  0.00  0.00    +0.162 A 
ATOM     32  C   UNL     1      -7.846  -3.701   4.719  0.00  0.00    +0.049 A 
ATOM     33  C   UNL     1      -6.772  -4.450   4.271  0.00  0.00    +0.004 A 
ATOM     34  C   UNL     1      -5.854  -3.901   3.401  0.00  0.00    +0.013 A 
ATOM     35  C   UNL     1      -6.006  -2.581   2.967  0.00  0.00    +0.040 A 
ATOM     36  C   UNL     1      -7.090  -1.822   3.424  0.00  0.00    +0.170 A 
BRANCH  31  38
ATOM     37  C   UNL     1      -9.971  -2.308   5.639  0.00  0.00    +0.277 C 
ATOM     38  O   UNL     1      -9.068  -1.661   4.740  0.00  0.00    -0.491 OA
ENDBRANCH  31  38
BRANCH  36  39
ATOM     39  O   UNL     1      -7.244  -0.536   3.013  0.00  0.00    -0.491 OA
ATOM     40  C   UNL     1      -8.015  -0.322   1.829  0.00  0.00    +0.277 C 
ENDBRANCH  36  39
ENDBRANCH  29  35
ENDBRANCH   1  30
TORSDOF 9
