REMARK  Name = ZINC64407726
REMARK  5 active torsions:
REMARK  status: ('A' for Active; 'I' for Inactive)
REMARK    1  A    between atoms: C_6  and  C_7
REMARK    2  A    between atoms: C_10  and  N_22
REMARK    3  A    between atoms: N_12  and  C_14
REMARK    4  A    between atoms: N_22  and  S_23
REMARK    5  A    between atoms: S_23  and  C_26
REMARK                            x       y       z     vdW  Elec       q    Type
REMARK                         _______ _______ _______ _____ _____    ______ ____
ROOT
ATOM      1  C   UNL     1      -1.293  -0.775   0.011  0.00  0.00    +0.102 C 
ATOM      2  C   UNL     1      -1.592  -1.322   1.430  0.00  0.00    +0.062 C 
ATOM      3  C   UNL     1      -2.478  -2.551   1.101  0.00  0.00    +0.162 C 
ATOM      4  N   UNL     1      -1.898  -3.075  -0.156  0.00  0.00    -0.219 NA
ATOM      5  N   UNL     1      -1.178  -1.993  -0.822  0.00  0.00    -0.245 NA
ATOM      6  H   UNL     1      -1.540  -1.832  -1.750  0.00  0.00    +0.142 HD
ENDROOT
BRANCH   1  12
ATOM      7  C   UNL     1      -0.017   1.378   0.010  0.00  0.00    +0.006 A 
ATOM      8  C   UNL     1       1.171   2.086   0.002  0.00  0.00    +0.020 A 
ATOM      9  C   UNL     1       2.378   1.410  -0.013  0.00  0.00    +0.041 A 
ATOM     10  C   UNL     1       2.396   0.027  -0.021  0.00  0.00    +0.020 A 
ATOM     11  C   UNL     1       1.208  -0.679  -0.013  0.00  0.00    +0.006 A 
ATOM     12  C   UNL     1       0.002  -0.004   0.002  0.00  0.00    -0.029 A 
ATOM     13 CL   UNL     1       3.870   2.298  -0.023  0.00  0.00    -0.084 Cl
ENDBRANCH   1  12
BRANCH   4  14
ATOM     14  C   UNL     1      -2.943  -3.624  -1.029  0.00  0.00    +0.097 C 
ATOM     15  C   UNL     1      -2.301  -4.242  -2.283  0.00  0.00    +0.044 C 
ATOM     16  C   UNL     1      -3.389  -4.530  -3.345  0.00  0.00    +0.167 C 
ATOM     17  S   UNL     1      -4.668  -3.264  -2.967  0.00  0.00    -0.029 S 
ATOM     18  O   UNL     1      -4.704  -2.313  -4.023  0.00  0.00    -0.174 OA
ATOM     19  O   UNL     1      -5.867  -3.919  -2.576  0.00  0.00    -0.174 OA
ATOM     20  C   UNL     1      -3.898  -2.485  -1.486  0.00  0.00    +0.186 C 
ENDBRANCH   4  14
BRANCH   3  21
ATOM     21  N   UNL     1      -2.389  -3.551   2.168  0.00  0.00    -0.170 NA
ATOM     22  H   UNL     1      -1.698  -4.231   2.140  0.00  0.00    +0.150 HD
BRANCH  21  23
ATOM     23  S   UNL     1      -3.469  -3.519   3.424  0.00  0.00    +0.078 S 
ATOM     24  O   UNL     1      -3.143  -4.615   4.268  0.00  0.00    -0.151 OA
ATOM     25  O   UNL     1      -3.504  -2.179   3.895  0.00  0.00    -0.151 OA
BRANCH  23  26
ATOM     26  C   UNL     1      -5.061  -3.858   2.750  0.00  0.00    +0.211 A 
ATOM     27  H   UNL     1      -7.496  -5.576   1.826  0.00  0.00    +0.166 HD
ATOM     28  C   UNL     1      -5.618  -5.076   2.610  0.00  0.00    +0.133 A 
ATOM     29  N   UNL     1      -6.852  -4.886   2.050  0.00  0.00    -0.349 N 
ATOM     30  C   UNL     1      -7.006  -3.557   1.866  0.00  0.00    +0.198 A 
ATOM     31  N   UNL     1      -5.933  -2.948   2.292  0.00  0.00    -0.217 NA
ENDBRANCH  23  26
ENDBRANCH  21  23
ENDBRANCH   3  21
TORSDOF 5
