REMARK  Name = ZINC34872533
REMARK  9 active torsions:
REMARK  status: ('A' for Active; 'I' for Inactive)
REMARK    1  A    between atoms: C_1  and  C_2
REMARK    2  A    between atoms: N_10  and  C_13
REMARK    3  A    between atoms: C_13  and  C_15
REMARK    4  A    between atoms: C_13  and  C_16
REMARK    5  A    between atoms: N_18  and  C_19
REMARK    6  A    between atoms: C_22  and  S_25
REMARK    7  A    between atoms: S_25  and  N_28
REMARK    8  A    between atoms: C_29  and  C_37
REMARK    9  A    between atoms: C_34  and  C_36
REMARK                            x       y       z     vdW  Elec       q    Type
REMARK                         _______ _______ _______ _____ _____    ______ ____
ROOT
ATOM      1  C   UNL     1       0.843  -8.315   4.384  0.00  0.00    +0.238 C 
ATOM      2  O   UNL     1       1.335  -9.261   4.961  0.00  0.00    -0.273 OA
ATOM      3  N   UNL     1       1.405  -7.850   3.251  0.00  0.00    -0.284 N 
ATOM      4  H   UNL     1       0.974  -7.138   2.752  0.00  0.00    +0.155 HD
ENDROOT
BRANCH   3   5
ATOM      5  C   UNL     1       2.609  -8.396   2.792  0.00  0.00    +0.034 A 
ATOM      6  C   UNL     1       3.551  -7.582   2.176  0.00  0.00    +0.025 A 
ATOM      7  C   UNL     1       4.739  -8.124   1.725  0.00  0.00    +0.030 A 
ATOM      8  C   UNL     1       4.990  -9.474   1.885  0.00  0.00    +0.106 A 
ATOM      9  C   UNL     1       4.054 -10.287   2.497  0.00  0.00    +0.030 A 
ATOM     10  C   UNL     1       2.867  -9.750   2.957  0.00  0.00    +0.025 A 
BRANCH   8  11
ATOM     11  S   UNL     1       6.507 -10.161   1.308  0.00  0.00    +0.061 S 
ATOM     12  O   UNL     1       6.323 -11.569   1.261  0.00  0.00    -0.153 OA
ATOM     13  O   UNL     1       6.887  -9.404   0.167  0.00  0.00    -0.153 OA
BRANCH  11  14
ATOM     14  N   UNL     1       7.650  -9.871   2.470  0.00  0.00    -0.171 NA
ATOM     15  C   UNL     1       7.767 -10.751   3.640  0.00  0.00    +0.077 C 
ATOM     16  C   UNL     1       9.216 -11.236   3.749  0.00  0.00    +0.020 C 
ATOM     17  C   UNL     1      10.154 -10.026   3.776  0.00  0.00    +0.003 C 
ATOM     18  C   UNL     1      10.005  -9.235   2.474  0.00  0.00    +0.020 C 
ATOM     19  C   UNL     1       8.569  -8.731   2.348  0.00  0.00    +0.077 C 
ATOM     20  C   UNL     1       8.285  -7.721   3.462  0.00  0.00    +0.026 C 
ATOM     21  C   UNL     1       6.833 -11.952   3.475  0.00  0.00    +0.026 C 
ENDBRANCH  11  14
ENDBRANCH   8  11
ENDBRANCH   3   5
BRANCH   1  22
ATOM     22  C   UNL     1      -0.396  -7.658   4.935  0.00  0.00    +0.168 C 
ATOM     23  C   UNL     1      -0.101  -6.189   5.244  0.00  0.00    +0.038 C 
BRANCH  22  33
ATOM     24  C   UNL     1      -3.721 -11.416  10.499  0.00  0.00    +0.044 C 
ATOM     25  C   UNL     1      -2.696 -10.637   9.716  0.00  0.00    -0.050 A 
ATOM     26  C   UNL     1      -1.481 -10.326  10.295  0.00  0.00    +0.004 A 
ATOM     27  C   UNL     1      -0.528  -9.609   9.587  0.00  0.00    +0.014 A 
ATOM     28  C   UNL     1      -0.798  -9.203   8.290  0.00  0.00    +0.049 A 
ATOM     29  C   UNL     1      -2.037  -9.521   7.699  0.00  0.00    +0.050 A 
ATOM     30  C   UNL     1      -2.978 -10.243   8.417  0.00  0.00    +0.017 A 
ATOM     31  C   UNL     1      -1.995  -8.948   6.337  0.00  0.00    +0.254 C 
ATOM     32  O   UNL     1      -2.885  -9.013   5.513  0.00  0.00    -0.270 OA
ATOM     33  N   UNL     1      -0.806  -8.342   6.164  0.00  0.00    -0.222 N 
ATOM     34  C   UNL     1      -0.044  -8.448   7.267  0.00  0.00    +0.254 C 
ATOM     35  O   UNL     1       1.076  -7.997   7.401  0.00  0.00    -0.270 OA
ENDBRANCH  22  33
ENDBRANCH   1  22
TORSDOF 5
