REMARK  Name = ZINC33869130
REMARK  11 active torsions:
REMARK  status: ('A' for Active; 'I' for Inactive)
REMARK    1  A    between atoms: C_1  and  C_2
REMARK    2  A    between atoms: C_2  and  C_3
REMARK    3  A    between atoms: C_3  and  O_4
REMARK    4  A    between atoms: O_4  and  C_5
REMARK    5  A    between atoms: C_8  and  C_11
REMARK    6  A    between atoms: N_19  and  C_22
REMARK    7  A    between atoms: C_27  and  C_28
REMARK    8  A    between atoms: C_29  and  C_31
REMARK    9  A    between atoms: C_29  and  C_39
REMARK   10  A    between atoms: C_31  and  C_32
REMARK   11  A    between atoms: C_35  and  O_38
REMARK                            x       y       z     vdW  Elec       q    Type
REMARK                         _______ _______ _______ _____ _____    ______ ____
ROOT
ATOM      1  C   UNL     1      -6.397  -4.588   0.038  0.00  0.00    -0.027 C 
ATOM      2  C   UNL     1      -6.667  -5.186   1.409  0.00  0.00    +0.077 C 
ATOM      3  C   UNL     1      -5.919  -6.560   1.214  0.00  0.00    +0.086 C 
ATOM      4  C   UNL     1      -5.790  -7.018   2.575  0.00  0.00    +0.229 C 
ATOM      5  O   UNL     1      -5.823  -8.162   2.975  0.00  0.00    -0.275 OA
ATOM      6  N   UNL     1      -5.620  -5.877   3.321  0.00  0.00    -0.210 N 
ATOM      7  C   UNL     1      -5.918  -4.729   2.622  0.00  0.00    +0.229 C 
ATOM      8  O   UNL     1      -5.633  -3.588   2.917  0.00  0.00    -0.275 OA
ATOM      9  C   UNL     1      -6.445  -7.013  -0.085  0.00  0.00    +0.052 C 
ATOM     10  N   UNL     1      -6.379  -5.743  -0.909  0.00  0.00    +0.396 N 
ATOM     11  H   UNL     1      -7.179  -5.696  -1.521  0.00  0.00    -0.083 HD
ATOM     12  H   UNL     1      -5.530  -5.725  -1.454  0.00  0.00    -0.083 HD
ENDROOT
BRANCH   6  13
ATOM     13  C   UNL     1      -5.200  -5.879   4.658  0.00  0.00    +0.047 A 
ATOM     14  C   UNL     1      -3.847  -5.809   4.962  0.00  0.00    +0.024 A 
ATOM     15  C   UNL     1      -3.435  -5.811   6.280  0.00  0.00    +0.002 A 
ATOM     16  C   UNL     1      -4.369  -5.883   7.298  0.00  0.00    +0.000 A 
ATOM     17  C   UNL     1      -5.717  -5.953   6.998  0.00  0.00    +0.005 A 
ATOM     18  C   UNL     1      -6.135  -5.945   5.682  0.00  0.00    -0.029 A 
ATOM     19  C   UNL     1      -7.605  -6.016   5.357  0.00  0.00    +0.045 C 
ENDBRANCH   6  13
BRANCH   1  23
ATOM     20  C   UNL     1      -2.616  -2.596   0.012  0.00  0.00    +0.121 A 
ATOM     21  C   UNL     1      -2.681  -3.966  -0.195  0.00  0.00    +0.046 A 
ATOM     22  C   UNL     1      -3.905  -4.608  -0.186  0.00  0.00    +0.005 A 
ATOM     23  C   UNL     1      -5.064  -3.885   0.029  0.00  0.00    -0.060 A 
ATOM     24  C   UNL     1      -5.002  -2.519   0.235  0.00  0.00    +0.005 A 
ATOM     25  C   UNL     1      -3.780  -1.874   0.233  0.00  0.00    +0.046 A 
BRANCH  20  26
ATOM     26  O   UNL     1      -1.414  -1.962   0.004  0.00  0.00    -0.492 OA
BRANCH  26  27
ATOM     27  C   UNL     1      -0.258  -2.769  -0.230  0.00  0.00    +0.229 C 
BRANCH  27  29
ATOM     28  C   UNL     1       2.231  -2.750  -0.453  0.00  0.00    +0.007 C 
ATOM     29  C   UNL     1       0.993  -1.887  -0.203  0.00  0.00    +0.038 C 
ENDBRANCH  27  29
ENDBRANCH  26  27
ENDBRANCH  20  26
ENDBRANCH   1  23
BRANCH   9  30
ATOM     30  C   UNL     1      -7.861  -7.509   0.054  0.00  0.00    +0.347 C 
ATOM     31  O   UNL     1      -8.758  -6.974  -0.574  0.00  0.00    -0.248 OA
ATOM     32  O   UNL     1      -8.109  -8.446   0.795  0.00  0.00    -0.248 OA
ENDBRANCH   9  30
BRANCH   9  33
ATOM     33  C   UNL     1      -5.545  -8.092  -0.689  0.00  0.00    +0.035 C 
BRANCH  33  34
ATOM     34  C   UNL     1      -6.040  -8.445  -2.068  0.00  0.00    -0.048 A 
ATOM     35  C   UNL     1      -6.974  -9.452  -2.229  0.00  0.00    +0.007 A 
ATOM     36  C   UNL     1      -7.430  -9.777  -3.492  0.00  0.00    +0.045 A 
ATOM     37  C   UNL     1      -6.949  -9.093  -4.599  0.00  0.00    +0.117 A 
ATOM     38  C   UNL     1      -6.013  -8.083  -4.435  0.00  0.00    +0.045 A 
ATOM     39  C   UNL     1      -5.564  -7.758  -3.169  0.00  0.00    +0.007 A 
BRANCH  37  40
ATOM     40  O   UNL     1      -7.396  -9.412  -5.843  0.00  0.00    -0.507 OA
ATOM     41  H   UNL     1      -8.176  -8.913  -6.120  0.00  0.00    +0.292 HD
ENDBRANCH  37  40
ENDBRANCH  33  34
ENDBRANCH   9  33
TORSDOF 9
