REMARK  Name = ZINC42391120
REMARK  5 active torsions:
REMARK  status: ('A' for Active; 'I' for Inactive)
REMARK    1  A    between atoms: C_1  and  N_2
REMARK    2  A    between atoms: C_3  and  C_5
REMARK    3  A    between atoms: N_10  and  C_11
REMARK    4  A    between atoms: C_11  and  C_12
REMARK    5  A    between atoms: C_13  and  N_19
REMARK                            x       y       z     vdW  Elec       q    Type
REMARK                         _______ _______ _______ _____ _____    ______ ____
ROOT
ATOM      1  C   UNL     1       0.387  -1.648  -1.739  0.00  0.00    +0.020 C 
ATOM      2  C   UNL     1      -1.099  -2.033  -1.889  0.00  0.00    -0.008 C 
ATOM      3  C   UNL     1      -1.194  -2.492  -3.368  0.00  0.00    -0.020 C 
ATOM      4  C   UNL     1       0.178  -3.181  -3.570  0.00  0.00    -0.077 C 
ATOM      5  N   UNL     1       1.135  -2.359  -2.792  0.00  0.00    +0.390 N 
ATOM      6  H   UNL     1       1.583  -1.691  -3.401  0.00  0.00    -0.080 HD
ENDROOT
BRANCH   1   9
ATOM      7  C   UNL     1       0.103   2.135  -1.224  0.00  0.00    +0.128 C 
ATOM      8  N   UNL     1      -0.056   0.688  -1.057  0.00  0.00    -0.320 N 
ATOM      9  C   UNL     1       0.551  -0.159  -1.911  0.00  0.00    +0.199 C 
ATOM     10  O   UNL     1       1.229   0.275  -2.818  0.00  0.00    -0.278 OA
ATOM     11  H   UNL     1      -0.599   0.341  -0.332  0.00  0.00    +0.148 HD
ENDBRANCH   1   9
BRANCH   5  12
ATOM     12  C   UNL     1       2.151  -3.225  -2.179  0.00  0.00    -0.039 C 
BRANCH  12  13
ATOM     13  C   UNL     1       3.004  -3.840  -3.257  0.00  0.00    -0.029 A 
ATOM     14  C   UNL     1       2.718  -5.115  -3.728  0.00  0.00    +0.027 A 
ATOM     15  C   UNL     1       3.507  -5.679  -4.723  0.00  0.00    +0.023 A 
ATOM     16  C   UNL     1       4.574  -4.970  -5.241  0.00  0.00    +0.003 A 
ATOM     17  C   UNL     1       4.857  -3.702  -4.770  0.00  0.00    +0.015 A 
ATOM     18  C   UNL     1       4.069  -3.135  -3.783  0.00  0.00    +0.021 A 
ATOM     19 BR   UNL     1       4.456  -1.396  -3.149  0.00  0.00    -0.050 Br
BRANCH  14  20
ATOM     20  N   UNL     1       1.639  -5.830  -3.203  0.00  0.00    -0.358 N 
ATOM     21  H   UNL     1       1.146  -5.476  -2.445  0.00  0.00    +0.142 HD
ATOM     22  H   UNL     1       1.382  -6.679  -3.595  0.00  0.00    +0.142 HD
ENDBRANCH  14  20
ENDBRANCH  12  13
ENDBRANCH   5  12
TORSDOF 4
