REMARK  Name = ZINC15514331
REMARK  5 active torsions:
REMARK  status: ('A' for Active; 'I' for Inactive)
REMARK    1  A    between atoms: C_3  and  S_23
REMARK    2  A    between atoms: C_5  and  S_7
REMARK    3  A    between atoms: S_7  and  N_10
REMARK    4  A    between atoms: N_10  and  C_11
REMARK    5  A    between atoms: S_23  and  N_26
REMARK                            x       y       z     vdW  Elec       q    Type
REMARK                         _______ _______ _______ _____ _____    ______ ____
ROOT
ATOM      1  S   UNL     1      -1.286   5.240  -3.815  0.00  0.00    +0.072 S 
ATOM      2  O   UNL     1      -2.430   5.621  -4.567  0.00  0.00    -0.150 OA
ATOM      3  O   UNL     1      -0.756   6.047  -2.773  0.00  0.00    -0.150 OA
ENDROOT
BRANCH   1   8
ATOM      4  C   UNL     1      -2.891   1.622  -3.121  0.00  0.00    +0.004 A 
ATOM      5  C   UNL     1      -2.227   1.210  -1.981  0.00  0.00    +0.028 A 
ATOM      6  C   UNL     1      -1.283   2.032  -1.396  0.00  0.00    +0.107 A 
ATOM      7  C   UNL     1      -0.994   3.262  -1.957  0.00  0.00    +0.057 A 
ATOM      8  C   UNL     1      -1.654   3.672  -3.100  0.00  0.00    +0.110 A 
ATOM      9  C   UNL     1      -2.603   2.852  -3.682  0.00  0.00    +0.029 A 
BRANCH   6  10
ATOM     10  S   UNL     1      -0.441   1.509   0.061  0.00  0.00    +0.056 S 
ATOM     11  O   UNL     1      -0.499   0.089   0.076  0.00  0.00    -0.153 OA
ATOM     12  O   UNL     1       0.788   2.221   0.098  0.00  0.00    -0.153 OA
BRANCH  10  13
ATOM     13  N   UNL     1      -1.331   2.033   1.356  0.00  0.00    -0.204 NA
ATOM     14  H   UNL     1      -1.157   2.905   1.742  0.00  0.00    +0.144 HD
ATOM     15  H   UNL     1      -2.026   1.467   1.728  0.00  0.00    +0.144 HD
ENDBRANCH  10  13
ENDBRANCH   6  10
ENDBRANCH   1   8
BRANCH   1  16
ATOM     16  N   UNL     1      -0.060   5.006  -4.903  0.00  0.00    -0.215 N 
ATOM     17  H   UNL     1       0.786   5.465  -4.787  0.00  0.00    +0.174 HD
BRANCH  16  18
ATOM     18  C   UNL     1      -0.245   4.144  -5.991  0.00  0.00    +0.070 A 
ATOM     19  C   UNL     1      -1.486   4.064  -6.610  0.00  0.00    +0.075 A 
ATOM     20  C   UNL     1      -1.660   3.214  -7.689  0.00  0.00    +0.164 A 
ATOM     21  C   UNL     1      -0.604   2.437  -8.142  0.00  0.00    +0.163 A 
ATOM     22  C   UNL     1       0.632   2.513  -7.522  0.00  0.00    +0.071 A 
ATOM     23  C   UNL     1       0.811   3.366  -6.447  0.00  0.00    +0.067 A 
ATOM     24 CL   UNL     1       2.360   3.464  -5.668  0.00  0.00    -0.081 Cl
ATOM     25  O   UNL     1      -0.791   1.597  -9.203  0.00  0.00    -0.488 OA
ATOM     26  C   UNL     1      -1.008   2.226 -10.467  0.00  0.00    +0.232 C 
ATOM     27  C   UNL     1      -2.473   2.593 -10.643  0.00  0.00    +0.082 C 
ATOM     28  C   UNL     1      -2.931   3.642  -9.642  0.00  0.00    +0.232 C 
ATOM     29  O   UNL     1      -2.873   3.130  -8.309  0.00  0.00    -0.488 OA
ENDBRANCH  16  18
ENDBRANCH   1  16
TORSDOF 5
