REMARK  Name = ZINC10723368
REMARK  8 active torsions:
REMARK  status: ('A' for Active; 'I' for Inactive)
REMARK    1  A    between atoms: C_1  and  C_2
REMARK    2  A    between atoms: C_2  and  C_4
REMARK    3  A    between atoms: C_2  and  O_15
REMARK    4  A    between atoms: N_6  and  C_7
REMARK    5  A    between atoms: C_8  and  C_12
REMARK    6  A    between atoms: O_15  and  C_16
REMARK    7  A    between atoms: C_16  and  C_18
REMARK    8  A    between atoms: C_18  and  N_19
REMARK                            x       y       z     vdW  Elec       q    Type
REMARK                         _______ _______ _______ _____ _____    ______ ____
ROOT
ATOM      1  C   UNL     1      -1.899  -0.716   1.212  0.00  0.00    +0.328 C 
ATOM      2  O   UNL     1      -1.272  -0.494   2.221  0.00  0.00    -0.249 OA
ENDROOT
BRANCH   1   3
ATOM      3  O   UNL     1      -1.339  -0.499   0.012  0.00  0.00    -0.451 OA
BRANCH   3   5
ATOM      4  C   UNL     1      -0.019   1.526   0.010  0.00  0.00    +0.062 C 
ATOM      5  C   UNL     1       0.002  -0.004   0.002  0.00  0.00    +0.259 C 
BRANCH   5   6
ATOM      6  C   UNL     1       0.707  -0.490  -1.238  0.00  0.00    +0.258 C 
ATOM      7  O   UNL     1       0.095  -1.114  -2.078  0.00  0.00    -0.271 OA
ATOM      8  N   UNL     1       2.018  -0.231  -1.413  0.00  0.00    -0.276 N 
ATOM      9  H   UNL     1       2.508   0.269  -0.741  0.00  0.00    +0.155 HD
BRANCH   8  10
ATOM     10  C   UNL     1       2.667  -0.678  -2.554  0.00  0.00    +0.084 A 
ATOM     11  C   UNL     1       4.001  -0.511  -2.897  0.00  0.00    +0.065 A 
ATOM     12  C   UNL     1       4.421  -1.083  -4.156  0.00  0.00    +0.022 A 
ATOM     13  C   UNL     1       3.465  -1.718  -4.859  0.00  0.00    +0.048 A 
ATOM     14  S   UNL     1       2.022  -1.551  -3.832  0.00  0.00    -0.081 S 
BRANCH  11  15
ATOM     15  C   UNL     1       4.937   0.209  -2.027  0.00  0.00    +0.244 C 
ATOM     16  O   UNL     1       4.549   0.679  -0.973  0.00  0.00    -0.270 OA
ATOM     17  N   UNL     1       6.226   0.351  -2.395  0.00  0.00    -0.325 N 
ATOM     18  H   UNL     1       6.534  -0.024  -3.235  0.00  0.00    +0.145 HD
ATOM     19  H   UNL     1       6.844   0.827  -1.819  0.00  0.00    +0.145 HD
ENDBRANCH  11  15
ENDBRANCH   8  10
ENDBRANCH   5   6
ENDBRANCH   3   5
ENDBRANCH   1   3
BRANCH   1  20
ATOM     20  C   UNL     1      -3.310  -1.237   1.302  0.00  0.00    +0.242 C 
BRANCH  20  21
ATOM     21  N   UNL     1      -3.686  -1.389   2.710  0.00  0.00    -0.329 N 
ATOM     22  C   UNL     1      -3.444  -2.582   3.365  0.00  0.00    +0.054 A 
ATOM     23  C   UNL     1      -3.360  -3.781   2.668  0.00  0.00    +0.026 A 
ATOM     24  C   UNL     1      -3.109  -4.953   3.350  0.00  0.00    +0.002 A 
ATOM     25  C   UNL     1      -2.939  -4.951   4.727  0.00  0.00    +0.001 A 
ATOM     26  C   UNL     1      -3.022  -3.778   5.437  0.00  0.00    +0.014 A 
ATOM     27  C   UNL     1      -3.277  -2.586   4.764  0.00  0.00    +0.046 A 
ATOM     28  C   UNL     1      -3.386  -1.297   5.480  0.00  0.00    +0.197 A 
ATOM     29  O   UNL     1      -2.877  -1.115   6.571  0.00  0.00    -0.287 OA
ATOM     30  C   UNL     1      -4.155  -0.245   4.782  0.00  0.00    +0.046 A 
ATOM     31  C   UNL     1      -4.278  -0.336   3.384  0.00  0.00    +0.054 A 
ATOM     32  C   UNL     1      -5.000   0.638   2.704  0.00  0.00    +0.026 A 
ATOM     33  C   UNL     1      -5.571   1.680   3.404  0.00  0.00    +0.002 A 
ATOM     34  C   UNL     1      -5.436   1.768   4.783  0.00  0.00    +0.001 A 
ATOM     35  C   UNL     1      -4.741   0.813   5.472  0.00  0.00    +0.014 A 
ENDBRANCH  20  21
ENDBRANCH   1  20
TORSDOF 7
