REMARK  Name = ZINC63567247
REMARK  5 active torsions:
REMARK  status: ('A' for Active; 'I' for Inactive)
REMARK    1  A    between atoms: C_6  and  C_10
REMARK    2  A    between atoms: C_13  and  N_16
REMARK    3  A    between atoms: N_16  and  S_17
REMARK    4  A    between atoms: S_17  and  C_20
REMARK    5  A    between atoms: C_23  and  N_26
REMARK                            x       y       z     vdW  Elec       q    Type
REMARK                         _______ _______ _______ _____ _____    ______ ____
ROOT
ATOM      1  C   UNL     1       3.445  -2.767  -1.326  0.00  0.00    -0.005 A 
ATOM      2  C   UNL     1       4.624  -2.368  -1.928  0.00  0.00    +0.009 A 
ATOM      3  C   UNL     1       5.082  -3.023  -3.055  0.00  0.00    +0.025 A 
ATOM      4  C   UNL     1       4.356  -4.084  -3.583  0.00  0.00    +0.048 A 
ATOM      5  C   UNL     1       3.172  -4.482  -2.975  0.00  0.00    +0.025 A 
ATOM      6  C   UNL     1       2.723  -3.826  -1.846  0.00  0.00    +0.009 A 
ENDROOT
BRANCH   1  12
ATOM      7  C   UNL     1      -0.311   1.191  -0.114  0.00  0.00    +0.002 A 
ATOM      8  C   UNL     1       0.821   2.025  -0.143  0.00  0.00    +0.002 A 
ATOM      9  C   UNL     1       2.079   1.541  -0.150  0.00  0.00    +0.027 A 
ATOM     10  C   UNL     1       2.298   0.088  -0.127  0.00  0.00    +0.060 A 
ATOM     11  N   UNL     1       3.373  -0.645  -0.127  0.00  0.00    -0.360 N 
ATOM     12  C   UNL     1       2.949  -2.050  -0.097  0.00  0.00    +0.206 C 
ATOM     13  N   UNL     1       1.480  -2.039  -0.079  0.00  0.00    -0.360 N 
ATOM     14  C   UNL     1       1.099  -0.794  -0.096  0.00  0.00    +0.060 A 
ATOM     15  C   UNL     1      -0.223  -0.154  -0.092  0.00  0.00    +0.027 A 
ATOM     16  H   UNL     1       4.288  -0.323  -0.144  0.00  0.00    +0.162 HD
ATOM     17  H   UNL     1       0.900  -2.816  -0.059  0.00  0.00    +0.162 HD
ENDBRANCH   1  12
BRANCH   4  18
ATOM     18  N   UNL     1       4.816  -4.748  -4.722  0.00  0.00    -0.216 N 
ATOM     19  H   UNL     1       5.128  -4.240  -5.487  0.00  0.00    +0.174 HD
BRANCH  18  20
ATOM     20  S   UNL     1       4.830  -6.403  -4.767  0.00  0.00    +0.072 S 
ATOM     21  O   UNL     1       3.522  -6.830  -4.408  0.00  0.00    -0.150 OA
ATOM     22  O   UNL     1       5.441  -6.772  -5.995  0.00  0.00    -0.150 OA
BRANCH  20  23
ATOM     23  C   UNL     1       5.907  -6.951  -3.485  0.00  0.00    +0.109 A 
ATOM     24  C   UNL     1       7.269  -7.030  -3.714  0.00  0.00    +0.031 A 
ATOM     25  C   UNL     1       8.116  -7.459  -2.711  0.00  0.00    +0.030 A 
ATOM     26  C   UNL     1       7.599  -7.811  -1.471  0.00  0.00    +0.065 A 
ATOM     27  C   UNL     1       6.232  -7.730  -1.244  0.00  0.00    +0.030 A 
ATOM     28  C   UNL     1       5.390  -7.295  -2.249  0.00  0.00    +0.031 A 
BRANCH  26  29
ATOM     29  N   UNL     1       8.456  -8.247  -0.452  0.00  0.00    -0.240 N 
ATOM     30  C   UNL     1       8.085  -8.623   0.793  0.00  0.00    +0.114 A 
ATOM     31  C   UNL     1       9.205  -8.973   1.468  0.00  0.00    +0.041 A 
ATOM     32  C   UNL     1      10.296  -8.806   0.609  0.00  0.00    +0.135 A 
ATOM     33  N   UNL     1       9.848  -8.376  -0.543  0.00  0.00    -0.175 NA
ENDBRANCH  26  29
ENDBRANCH  20  23
ENDBRANCH  18  20
ENDBRANCH   4  18
TORSDOF 5
