REMARK  Name = ZINC60343259
REMARK  11 active torsions:
REMARK  status: ('A' for Active; 'I' for Inactive)
REMARK    1  A    between atoms: C_1  and  C_2
REMARK    2  A    between atoms: C_2  and  C_3
REMARK    3  A    between atoms: C_3  and  N_4
REMARK    4  A    between atoms: N_4  and  C_5
REMARK    5  A    between atoms: N_4  and  C_23
REMARK    6  A    between atoms: C_5  and  C_6
REMARK    7  A    between atoms: C_12  and  S_19
REMARK    8  A    between atoms: C_16  and  C_18
REMARK    9  A    between atoms: S_19  and  N_22
REMARK   10  A    between atoms: N_28  and  C_30
REMARK   11  A    between atoms: C_30  and  C_31
REMARK                            x       y       z     vdW  Elec       q    Type
REMARK                         _______ _______ _______ _____ _____    ______ ____
ROOT
ATOM      1  C   UNL     1      -2.754  -2.549   0.253  0.00  0.00    +0.181 C 
ENDROOT
BRANCH   1   2
ATOM      2  C   UNL     1      -3.186  -2.204   1.655  0.00  0.00    +0.234 C 
ATOM      3  O   UNL     1      -2.449  -1.566   2.377  0.00  0.00    -0.274 OA
ATOM      4  N   UNL     1      -4.391  -2.604   2.107  0.00  0.00    -0.267 N 
ATOM      5  C   UNL     1      -5.317  -3.347   1.369  0.00  0.00    +0.040 A 
ATOM      6  C   UNL     1      -5.227  -3.826   0.060  0.00  0.00    +0.026 A 
ATOM      7  C   UNL     1      -6.265  -4.547  -0.489  0.00  0.00    +0.030 A 
ATOM      8  C   UNL     1      -7.405  -4.801   0.252  0.00  0.00    +0.105 A 
ATOM      9  C   UNL     1      -7.502  -4.330   1.547  0.00  0.00    +0.034 A 
ATOM     10  C   UNL     1      -6.464  -3.607   2.103  0.00  0.00    -0.022 A 
ATOM     11  C   UNL     1      -6.310  -2.985   3.472  0.00  0.00    +0.059 C 
ATOM     12  C   UNL     1      -4.919  -2.330   3.446  0.00  0.00    +0.083 C 
ATOM     13  C   UNL     1      -4.015  -2.955   4.511  0.00  0.00    +0.029 C 
BRANCH   8  14
ATOM     14  S   UNL     1      -8.730  -5.722  -0.455  0.00  0.00    +0.056 S 
ATOM     15  O   UNL     1      -9.905  -5.355   0.256  0.00  0.00    -0.153 OA
ATOM     16  O   UNL     1      -8.617  -5.581  -1.864  0.00  0.00    -0.153 OA
BRANCH  14  17
ATOM     17  N   UNL     1      -8.452  -7.319  -0.116  0.00  0.00    -0.204 NA
ATOM     18  H   UNL     1      -9.198  -7.930  -0.011  0.00  0.00    +0.144 HD
ATOM     19  H   UNL     1      -7.543  -7.644  -0.023  0.00  0.00    +0.144 HD
ENDBRANCH  14  17
ENDBRANCH   8  14
ENDBRANCH   1   2
BRANCH   1  20
ATOM     20  N   UNL     1      -1.413  -2.002   0.005  0.00  0.00    -0.293 NA
BRANCH  20  21
ATOM     21  C   UNL     1      -0.862  -2.515  -1.257  0.00  0.00    +0.041 C 
ATOM     22  C   UNL     1      -1.792  -2.136  -2.413  0.00  0.00    +0.015 C 
ATOM     23  C   UNL     1      -1.249  -2.741  -3.711  0.00  0.00    -0.017 C 
ATOM     24  C   UNL     1      -1.117  -4.257  -3.545  0.00  0.00    -0.078 C 
ATOM     25  N   UNL     1      -0.195  -4.553  -2.442  0.00  0.00    +0.383 N 
ATOM     26  C   UNL     1      -0.743  -4.038  -1.181  0.00  0.00    -0.059 C 
ATOM     27  H   UNL     1       0.696  -4.115  -2.623  0.00  0.00    -0.081 HD
BRANCH  25  28
ATOM     28  C   UNL     1      -0.011  -6.007  -2.337  0.00  0.00    -0.043 C 
BRANCH  28  29
ATOM     29  C   UNL     1       0.674  -6.517  -3.578  0.00  0.00    -0.064 A 
ATOM     30  C   UNL     1      -0.077  -6.919  -4.667  0.00  0.00    +0.002 A 
ATOM     31  C   UNL     1       0.551  -7.387  -5.805  0.00  0.00    +0.000 A 
ATOM     32  C   UNL     1       1.931  -7.454  -5.856  0.00  0.00    +0.000 A 
ATOM     33  C   UNL     1       2.683  -7.052  -4.768  0.00  0.00    +0.000 A 
ATOM     34  C   UNL     1       2.054  -6.579  -3.630  0.00  0.00    +0.002 A 
ENDBRANCH  28  29
ENDBRANCH  25  28
ENDBRANCH  20  21
BRANCH  20  35
ATOM     35  C   UNL     1      -1.433  -0.534   0.013  0.00  0.00    +0.085 C 
BRANCH  35  37
ATOM     36  C   UNL     1      -0.019   1.526   0.010  0.00  0.00    +0.005 C 
ATOM     37  C   UNL     1       0.002  -0.004   0.002  0.00  0.00    +0.012 C 
ENDBRANCH  35  37
ENDBRANCH  20  35
ENDBRANCH   1  20
TORSDOF 9
