REMARK  Name = ZINC36558026
REMARK  8 active torsions:
REMARK  status: ('A' for Active; 'I' for Inactive)
REMARK    1  A    between atoms: C_1  and  C_2
REMARK    2  A    between atoms: C_2  and  O_3
REMARK    3  A    between atoms: O_3  and  C_4
REMARK    4  A    between atoms: C_9  and  C_10
REMARK    5  A    between atoms: C_21  and  S_26
REMARK    6  A    between atoms: S_26  and  N_29
REMARK    7  A    between atoms: N_29  and  C_30
REMARK    8  A    between atoms: N_29  and  C_31
REMARK                            x       y       z     vdW  Elec       q    Type
REMARK                         _______ _______ _______ _____ _____    ______ ____
ROOT
ATOM      1  C   UNL     1       3.203  -1.192  -2.955  0.00  0.00    +0.108 C 
ATOM      2  C   UNL     1       1.961  -0.744  -3.704  0.00  0.00    +0.029 C 
ATOM      3  C   UNL     1       0.997   0.194  -2.965  0.00  0.00    +0.033 C 
ATOM      4  C   UNL     1       0.386   0.983  -4.124  0.00  0.00    -0.030 C 
ATOM      5  C   UNL     1       1.226   1.006  -5.151  0.00  0.00    -0.023 C 
ATOM      6  C   UNL     1       2.467   0.256  -4.787  0.00  0.00    +0.049 C 
ATOM      7  C   UNL     1       3.264  -0.509  -5.771  0.00  0.00    -0.018 A 
ATOM      8  C   UNL     1       3.273  -0.202  -7.115  0.00  0.00    +0.034 A 
ATOM      9  C   UNL     1       4.045  -0.939  -7.994  0.00  0.00    +0.109 A 
ATOM     10  C   UNL     1       4.816  -1.987  -7.525  0.00  0.00    +0.030 A 
ATOM     11  C   UNL     1       4.810  -2.305  -6.182  0.00  0.00    +0.025 A 
ATOM     12  C   UNL     1       4.031  -1.576  -5.292  0.00  0.00    +0.031 A 
ATOM     13  N   UNL     1       4.017  -1.939  -3.938  0.00  0.00    -0.336 N 
ATOM     14  H   UNL     1       4.548  -2.695  -3.640  0.00  0.00    +0.147 HD
ENDROOT
BRANCH   1  20
ATOM     15  C   UNL     1       2.396  -1.536  -0.606  0.00  0.00    +0.125 A 
ATOM     16  C   UNL     1       2.042  -2.364   0.449  0.00  0.00    +0.046 A 
ATOM     17  C   UNL     1       2.119  -3.735   0.306  0.00  0.00    +0.004 A 
ATOM     18  C   UNL     1       2.549  -4.283  -0.889  0.00  0.00    +0.001 A 
ATOM     19  C   UNL     1       2.904  -3.460  -1.942  0.00  0.00    +0.009 A 
ATOM     20  C   UNL     1       2.823  -2.088  -1.805  0.00  0.00    +0.015 A 
BRANCH  15  21
ATOM     21  O   UNL     1       2.321  -0.186  -0.467  0.00  0.00    -0.492 OA
BRANCH  21  23
ATOM     22  C   UNL     1       1.854   1.842   0.762  0.00  0.00    +0.048 C 
ATOM     23  C   UNL     1       1.873   0.312   0.796  0.00  0.00    +0.225 C 
ENDBRANCH  21  23
ENDBRANCH  15  21
ENDBRANCH   1  20
BRANCH   9  24
ATOM     24  S   UNL     1       4.049  -0.541  -9.710  0.00  0.00    +0.074 S 
ATOM     25  O   UNL     1       4.431  -1.724 -10.400  0.00  0.00    -0.150 OA
ATOM     26  O   UNL     1       2.826   0.133  -9.973  0.00  0.00    -0.150 OA
BRANCH  24  27
ATOM     27  N   UNL     1       5.260   0.562  -9.955  0.00  0.00    -0.206 N 
ATOM     28  C   UNL     1       6.636   0.105 -10.160  0.00  0.00    +0.157 C 
BRANCH  27  29
ATOM     29  C   UNL     1       4.968   1.928  -9.967  0.00  0.00    +0.051 A 
ATOM     30  C   UNL     1       5.572   2.776  -9.047  0.00  0.00    +0.025 A 
ATOM     31  C   UNL     1       5.281   4.126  -9.062  0.00  0.00    +0.002 A 
ATOM     32  C   UNL     1       4.391   4.634  -9.990  0.00  0.00    +0.000 A 
ATOM     33  C   UNL     1       3.788   3.792 -10.907  0.00  0.00    +0.002 A 
ATOM     34  C   UNL     1       4.078   2.442 -10.902  0.00  0.00    +0.025 A 
ENDBRANCH  27  29
ENDBRANCH  24  27
ENDBRANCH   9  24
TORSDOF 6
