REMARK  Name = ZINC03593204
REMARK  6 active torsions:
REMARK  status: ('A' for Active; 'I' for Inactive)
REMARK    1  A    between atoms: C_1  and  C_2
REMARK    2  A    between atoms: C_2  and  C_22
REMARK    3  A    between atoms: N_5  and  C_9
REMARK    4  A    between atoms: C_9  and  C_10
REMARK    5  A    between atoms: N_15  and  C_16
REMARK    6  A    between atoms: C_16  and  C_17
REMARK                            x       y       z     vdW  Elec       q    Type
REMARK                         _______ _______ _______ _____ _____    ______ ____
ROOT
ATOM      1  C   UNL     1       3.166  10.034  -1.086  0.00  0.00    +0.047 C 
ATOM      2  C   UNL     1       4.436   9.317  -0.624  0.00  0.00    +0.135 C 
ATOM      3  C   UNL     1       4.455   7.882  -1.113  0.00  0.00    +0.251 C 
ATOM      4  O   UNL     1       4.455   7.501  -2.264  0.00  0.00    -0.272 OA
ATOM      5  N   UNL     1       4.471   7.119  -0.002  0.00  0.00    -0.215 N 
ATOM      6  C   UNL     1       4.472   7.865   1.109  0.00  0.00    +0.310 C 
ATOM      7  O   UNL     1       4.489   7.403   2.232  0.00  0.00    -0.252 OA
ATOM      8  N   UNL     1       4.452   9.184   0.843  0.00  0.00    -0.281 N 
ATOM      9  H   UNL     1       4.449   9.905   1.490  0.00  0.00    +0.152 HD
ENDROOT
BRANCH   2  10
ATOM     10  C   UNL     1       5.662  10.052  -1.103  0.00  0.00    -0.014 A 
ATOM     11  C   UNL     1       6.242  11.021  -0.305  0.00  0.00    +0.006 A 
ATOM     12  C   UNL     1       7.367  11.695  -0.743  0.00  0.00    +0.001 A 
ATOM     13  C   UNL     1       7.911  11.401  -1.980  0.00  0.00    +0.015 A 
ATOM     14  C   UNL     1       7.330  10.433  -2.778  0.00  0.00    +0.018 A 
ATOM     15  C   UNL     1       6.208   9.755  -2.337  0.00  0.00    +0.021 A 
ATOM     16 BR   UNL     1       8.074  10.031  -4.470  0.00  0.00    -0.050 Br
ENDBRANCH   2  10
BRANCH   5  17
ATOM     17  C   UNL     1       4.491   5.654  -0.011  0.00  0.00    +0.214 C 
BRANCH  17  18
ATOM     18  C   UNL     1       3.077   5.133   0.000  0.00  0.00    +0.238 C 
ATOM     19  O   UNL     1       2.145   5.908   0.013  0.00  0.00    -0.274 OA
ATOM     20  N   UNL     1       2.849   3.805  -0.005  0.00  0.00    -0.239 N 
ATOM     21  C   UNL     1       1.584   3.338   0.005  0.00  0.00    +0.306 C 
ATOM     22  O   UNL     1       0.650   4.115   0.018  0.00  0.00    -0.252 OA
ATOM     23  N   UNL     1       1.356   2.010  -0.000  0.00  0.00    -0.292 N 
ATOM     24  H   UNL     1       3.595   3.184  -0.015  0.00  0.00    +0.159 HD
ATOM     25  H   UNL     1       2.102   1.390  -0.011  0.00  0.00    +0.151 HD
BRANCH  23  26
ATOM     26  C   UNL     1      -0.018   1.503   0.010  0.00  0.00    +0.180 C 
BRANCH  26  27
ATOM     27  C   UNL     1       0.002  -0.004   0.002  0.00  0.00    +0.122 A 
ATOM     28  C   UNL     1       0.023  -0.796   1.089  0.00  0.00    +0.046 A 
ATOM     29  C   UNL     1       0.037  -2.131   0.622  0.00  0.00    +0.041 A 
ATOM     30  C   UNL     1       0.023  -2.074  -0.722  0.00  0.00    +0.195 A 
ATOM     31  O   UNL     1      -0.004  -0.784  -1.092  0.00  0.00    -0.466 OA
ENDBRANCH  26  27
ENDBRANCH  23  26
ENDBRANCH  17  18
ENDBRANCH   5  17
TORSDOF 5
