REMARK  Name = ZINC03358217
REMARK  9 active torsions:
REMARK  status: ('A' for Active; 'I' for Inactive)
REMARK    1  A    between atoms: C_8  and  C_10
REMARK    2  A    between atoms: C_11  and  N_35
REMARK    3  A    between atoms: N_12  and  C_16
REMARK    4  A    between atoms: C_19  and  C_22
REMARK    5  A    between atoms: C_22  and  O_24
REMARK    6  A    between atoms: O_24  and  C_25
REMARK    7  A    between atoms: C_25  and  C_26
REMARK    8  A    between atoms: N_28  and  C_29
REMARK    9  A    between atoms: C_29  and  C_30
REMARK                            x       y       z     vdW  Elec       q    Type
REMARK                         _______ _______ _______ _____ _____    ______ ____
ROOT
ATOM      1  C   UNL     1      10.637  -1.612  -4.571  0.00  0.00    +0.035 A 
ATOM      2  C   UNL     1       9.924  -1.314  -5.728  0.00  0.00    +0.024 A 
ATOM      3  C   UNL     1       8.630  -0.853  -5.642  0.00  0.00    +0.017 A 
ATOM      4  C   UNL     1       8.032  -0.684  -4.389  0.00  0.00    +0.059 A 
ATOM      5  C   UNL     1       8.753  -0.980  -3.228  0.00  0.00    +0.017 A 
ATOM      6  C   UNL     1      10.045  -1.446  -3.322  0.00  0.00    +0.024 A 
ENDROOT
BRANCH   1   9
ATOM      7  C   UNL     1      13.717  -3.434  -5.122  0.00  0.00    +0.087 C 
ATOM      8  C   UNL     1      12.335  -3.278  -5.176  0.00  0.00    +0.102 C 
ATOM      9  N   UNL     1      11.947  -2.079  -4.662  0.00  0.00    -0.281 N 
ATOM     10  C   UNL     1      13.151  -1.365  -4.214  0.00  0.00    +0.191 C 
ATOM     11  C   UNL     1      14.300  -2.296  -4.536  0.00  0.00    +0.186 C 
ATOM     12  O   UNL     1      15.482  -2.100  -4.332  0.00  0.00    -0.290 OA
BRANCH   7  20
ATOM     13  C   UNL     1      15.372  -8.875  -7.495  0.00  0.00    +0.002 A 
ATOM     14  C   UNL     1      16.721  -8.650  -7.261  0.00  0.00    +0.001 A 
ATOM     15  C   UNL     1      17.119  -7.464  -6.672  0.00  0.00    +0.017 A 
ATOM     16  C   UNL     1      16.175  -6.529  -6.327  0.00  0.00    +0.040 A 
ATOM     17  C   UNL     1      14.792  -6.723  -6.550  0.00  0.00    +0.079 A 
ATOM     18  C   UNL     1      14.422  -7.947  -7.154  0.00  0.00    +0.029 A 
ATOM     19  N   UNL     1      13.988  -5.715  -6.152  0.00  0.00    -0.239 NA
ATOM     20  C   UNL     1      14.457  -4.614  -5.601  0.00  0.00    +0.116 A 
ATOM     21  S   UNL     1      16.217  -4.920  -5.575  0.00  0.00    -0.067 S 
ENDBRANCH   7  20
BRANCH   8  22
ATOM     22  N   UNL     1      11.477  -4.209  -5.684  0.00  0.00    -0.346 N 
ATOM     23  H   UNL     1      10.532  -4.006  -5.763  0.00  0.00    +0.143 HD
ATOM     24  H   UNL     1      11.812  -5.074  -5.966  0.00  0.00    +0.143 HD
ENDBRANCH   8  22
ENDBRANCH   1   9
BRANCH   4  25
ATOM     25  C   UNL     1       6.646  -0.191  -4.293  0.00  0.00    +0.340 C 
ATOM     26  O   UNL     1       6.023   0.070  -5.302  0.00  0.00    -0.245 OA
BRANCH  25  27
ATOM     27  O   UNL     1       6.071  -0.028  -3.085  0.00  0.00    -0.452 OA
BRANCH  27  28
ATOM     28  C   UNL     1       4.705   0.462  -3.066  0.00  0.00    +0.328 C 
BRANCH  28  29
ATOM     29  C   UNL     1       4.233   0.579  -1.639  0.00  0.00    +0.251 C 
ATOM     30  O   UNL     1       4.975   0.279  -0.728  0.00  0.00    -0.272 OA
ATOM     31  N   UNL     1       2.986   1.017  -1.376  0.00  0.00    -0.308 N 
ATOM     32  H   UNL     1       2.392   1.257  -2.104  0.00  0.00    +0.149 HD
BRANCH  31  33
ATOM     33  C   UNL     1       2.527   1.131   0.011  0.00  0.00    +0.146 C 
BRANCH  33  34
ATOM     34  C   UNL     1       1.109   1.639   0.031  0.00  0.00    +0.007 A 
ATOM     35  C   UNL     1      -0.050   0.937   0.006  0.00  0.00    +0.013 A 
ATOM     36  C   UNL     1      -1.250   1.623   0.026  0.00  0.00    +0.008 A 
ATOM     37  C   UNL     1      -1.232   2.977   0.083  0.00  0.00    +0.045 A 
ATOM     38  S   UNL     1       0.519   3.323   0.094  0.00  0.00    -0.100 S 
ENDBRANCH  33  34
ENDBRANCH  31  33
ENDBRANCH  28  29
ENDBRANCH  27  28
ENDBRANCH  25  27
ENDBRANCH   4  25
TORSDOF 9
