REMARK  Name = ZINC64985937
REMARK  6 active torsions:
REMARK  status: ('A' for Active; 'I' for Inactive)
REMARK    1  A    between atoms: C_1  and  C_2
REMARK    2  A    between atoms: C_5  and  S_8
REMARK    3  A    between atoms: S_8  and  N_11
REMARK    4  A    between atoms: C_13  and  C_23
REMARK    5  A    between atoms: C_20  and  C_22
REMARK    6  A    between atoms: N_25  and  C_26
REMARK                            x       y       z     vdW  Elec       q    Type
REMARK                         _______ _______ _______ _____ _____    ______ ____
ROOT
ATOM      1  N   UNL     1       1.651  -4.999  -0.034  0.00  0.00    -0.195 N 
ATOM      2  C   UNL     1       2.376  -5.202  -1.300  0.00  0.00    +0.186 C 
ATOM      3  C   UNL     1       3.222  -6.476  -1.151  0.00  0.00    +0.277 C 
ATOM      4  O   UNL     1       4.107  -6.313  -0.040  0.00  0.00    -0.476 OA
ATOM      5  C   UNL     1       3.578  -5.879   1.134  0.00  0.00    +0.144 A 
ATOM      6  C   UNL     1       2.354  -5.212   1.162  0.00  0.00    +0.093 A 
ATOM      7  C   UNL     1       1.830  -4.765   2.364  0.00  0.00    +0.029 A 
ATOM      8  C   UNL     1       2.525  -4.979   3.541  0.00  0.00    +0.005 A 
ATOM      9  C   UNL     1       3.740  -5.637   3.517  0.00  0.00    -0.047 A 
ATOM     10  C   UNL     1       4.265  -6.095   2.318  0.00  0.00    +0.051 A 
ATOM     11  C   UNL     1       4.493  -5.868   4.802  0.00  0.00    +0.044 C 
ENDROOT
BRANCH   3  12
ATOM     12  C   UNL     1       4.020  -6.702  -2.408  0.00  0.00    +0.255 C 
ATOM     13  O   UNL     1       5.231  -6.644  -2.377  0.00  0.00    -0.272 OA
ATOM     14  N   UNL     1       3.389  -6.970  -3.569  0.00  0.00    -0.315 N 
ATOM     15  C   UNL     1       4.165  -7.190  -4.791  0.00  0.00    +0.128 C 
ATOM     16  H   UNL     1       2.420  -7.016  -3.594  0.00  0.00    +0.148 HD
ENDBRANCH   3  12
BRANCH   1  17
ATOM     17  S   UNL     1       0.063  -4.530  -0.023  0.00  0.00    +0.075 S 
ATOM     18  O   UNL     1      -0.476  -4.950   1.223  0.00  0.00    -0.150 OA
ATOM     19  O   UNL     1      -0.490  -4.937  -1.267  0.00  0.00    -0.150 OA
BRANCH  17  24
ATOM     20  C   UNL     1      -0.018   1.503   0.010  0.00  0.00    +0.044 C 
ATOM     21  C   UNL     1       0.002  -0.004   0.002  0.00  0.00    -0.050 A 
ATOM     22  C   UNL     1       0.006  -0.689  -1.199  0.00  0.00    +0.005 A 
ATOM     23  C   UNL     1       0.025  -2.071  -1.206  0.00  0.00    +0.029 A 
ATOM     24  C   UNL     1       0.040  -2.768  -0.013  0.00  0.00    +0.109 A 
ATOM     25  C   UNL     1       0.037  -2.084   1.188  0.00  0.00    +0.029 A 
ATOM     26  C   UNL     1       0.023  -0.702   1.195  0.00  0.00    +0.005 A 
ENDBRANCH  17  24
ENDBRANCH   1  17
TORSDOF 3
