REMARK  Name = ZINC22764368
REMARK  9 active torsions:
REMARK  status: ('A' for Active; 'I' for Inactive)
REMARK    1  A    between atoms: C_1  and  C_2
REMARK    2  A    between atoms: C_5  and  N_9
REMARK    3  A    between atoms: C_6  and  C_8
REMARK    4  A    between atoms: C_13  and  C_15
REMARK    5  A    between atoms: C_15  and  C_17
REMARK    6  A    between atoms: C_15  and  S_18
REMARK    7  A    between atoms: S_18  and  C_19
REMARK    8  A    between atoms: N_24  and  C_25
REMARK    9  A    between atoms: C_25  and  C_26
REMARK                            x       y       z     vdW  Elec       q    Type
REMARK                         _______ _______ _______ _____ _____    ______ ____
ROOT
ATOM      1  C   UNL     1      -6.028   2.108  -0.377  0.00  0.00    +0.136 C 
ATOM      2  C   UNL     1      -6.290   2.478  -1.838  0.00  0.00    +0.029 C 
ENDROOT
BRANCH   1   7
ATOM      3  N   UNL     1      -1.237   2.069   0.019  0.00  0.00    -0.269 N 
ATOM      4  C   UNL     1      -2.394   1.385  -0.081  0.00  0.00    +0.310 C 
ATOM      5  O   UNL     1      -2.383   0.170  -0.088  0.00  0.00    -0.252 OA
ATOM      6  N   UNL     1      -3.563   2.049  -0.173  0.00  0.00    -0.239 N 
ATOM      7  C   UNL     1      -4.721   1.365  -0.273  0.00  0.00    +0.233 C 
ATOM      8  O   UNL     1      -4.710   0.153  -0.280  0.00  0.00    -0.274 OA
ATOM      9  H   UNL     1      -1.252   3.166   0.100  0.00  0.00    +0.156 HD
ATOM     10  H   UNL     1      -3.574   3.149  -0.167  0.00  0.00    +0.159 HD
BRANCH   3  15
ATOM     11  C   UNL     1       3.704  -0.718   0.008  0.00  0.00    +0.044 C 
ATOM     12  C   UNL     1       2.392   0.023   0.013  0.00  0.00    -0.050 A 
ATOM     13  C   UNL     1       1.282  -0.542   0.613  0.00  0.00    +0.005 A 
ATOM     14  C   UNL     1       0.078   0.134   0.619  0.00  0.00    +0.024 A 
ATOM     15  C   UNL     1      -0.017   1.384   0.020  0.00  0.00    +0.038 A 
ATOM     16  C   UNL     1       1.099   1.949  -0.581  0.00  0.00    -0.029 A 
ATOM     17  C   UNL     1       2.300   1.267  -0.584  0.00  0.00    +0.008 A 
ATOM     18  C   UNL     1       1.000   3.305  -1.232  0.00  0.00    +0.045 C 
ENDBRANCH   3  15
ENDBRANCH   1   7
BRANCH   1  19
ATOM     19  S   UNL     1      -7.372   1.052   0.231  0.00  0.00    -0.084 S 
BRANCH  19  20
ATOM     20  C   UNL     1      -8.790   2.098   0.186  0.00  0.00    +0.161 A 
ATOM     21  N   UNL     1      -8.886   3.359  -0.189  0.00  0.00    -0.133 NA
ATOM     22  N   UNL     1     -10.106   3.994  -0.150  0.00  0.00    -0.125 NA
ATOM     23  C   UNL     1     -11.171   3.341   0.273  0.00  0.00    +0.183 A 
ATOM     24  S   UNL     1     -10.478   1.737   0.642  0.00  0.00    -0.025 S 
ATOM     25  N   UNL     1     -12.483   3.784   0.398  0.00  0.00    -0.318 N 
ATOM     26  H   UNL     1     -13.261   3.102   0.772  0.00  0.00    +0.148 HD
BRANCH  25  27
ATOM     27  C   UNL     1     -12.830   5.159   0.032  0.00  0.00    +0.138 C 
BRANCH  27  28
ATOM     28  C   UNL     1     -14.303   5.383   0.259  0.00  0.00    -0.030 A 
ATOM     29  C   UNL     1     -15.204   5.136  -0.760  0.00  0.00    +0.008 A 
ATOM     30  C   UNL     1     -16.556   5.336  -0.551  0.00  0.00    +0.038 A 
ATOM     31  C   UNL     1     -17.006   5.795   0.675  0.00  0.00    +0.123 A 
ATOM     32  C   UNL     1     -16.102   6.048   1.693  0.00  0.00    +0.038 A 
ATOM     33  C   UNL     1     -14.751   5.842   1.484  0.00  0.00    +0.008 A 
ATOM     34  F   UNL     1     -18.326   5.996   0.879  0.00  0.00    -0.205 F 
ENDBRANCH  27  28
ENDBRANCH  25  27
ENDBRANCH  19  20
ENDBRANCH   1  19
TORSDOF 6
