REMARK  Name = ZINC12318057
REMARK  8 active torsions:
REMARK  status: ('A' for Active; 'I' for Inactive)
REMARK    1  A    between atoms: C_1  and  C_2
REMARK    2  A    between atoms: C_4  and  O_35
REMARK    3  A    between atoms: C_14  and  C_20
REMARK    4  A    between atoms: C_16  and  C_18
REMARK    5  A    between atoms: C_16  and  C_19
REMARK    6  A    between atoms: C_20  and  C_22
REMARK    7  A    between atoms: C_22  and  O_23
REMARK    8  A    between atoms: C_32  and  C_33
REMARK                            x       y       z     vdW  Elec       q    Type
REMARK                         _______ _______ _______ _____ _____    ______ ____
ROOT
ATOM      1  C   UNL     1      -0.072   1.560   0.056  0.00  0.00    +0.015 C 
ATOM      2  C   UNL     1      -0.013   0.031   0.022  0.00  0.00    +0.012 C 
ATOM      3  C   UNL     1       0.625  -0.502  -1.262  0.00  0.00    +0.044 C 
ATOM      4  C   UNL     1       2.117  -0.197  -1.301  0.00  0.00    +0.154 C 
ATOM      5  C   UNL     1       2.841  -0.846  -0.130  0.00  0.00    +0.153 C 
ATOM      6  C   UNL     1       2.217  -0.355   1.167  0.00  0.00    +0.034 C 
ATOM      7  C   UNL     1       0.729  -0.553   1.245  0.00  0.00    +0.007 C 
ATOM      8  C   UNL     1       0.273  -2.013   1.298  0.00  0.00    +0.039 C 
ATOM      9  C   UNL     1      -1.149  -2.035   0.700  0.00  0.00    +0.162 C 
ATOM     10  C   UNL     1      -1.424  -0.606   0.168  0.00  0.00    +0.164 C 
ATOM     11  O   UNL     1      -2.089   0.049   1.265  0.00  0.00    -0.332 OA
ATOM     12  C   UNL     1      -2.657  -0.965   2.096  0.00  0.00    +0.166 C 
ATOM     13  O   UNL     1      -2.107  -2.236   1.745  0.00  0.00    -0.343 OA
ATOM     14  C   UNL     1      -4.176  -0.997   1.910  0.00  0.00    +0.074 C 
ATOM     15  C   UNL     1      -2.340  -0.661   3.563  0.00  0.00    +0.074 C 
ATOM     16  C   UNL     1       2.972  -0.898   2.371  0.00  0.00    +0.011 C 
ATOM     17  C   UNL     1       2.945  -2.413   2.431  0.00  0.00    +0.032 C 
ATOM     18  C   UNL     1       2.893  -3.070   1.082  0.00  0.00    -0.053 C 
ATOM     19  C   UNL     1       2.792  -4.414   1.081  0.00  0.00    +0.051 C 
ATOM     20  C   UNL     1       2.656  -5.125  -0.207  0.00  0.00    +0.179 C 
ATOM     21  O   UNL     1       2.921  -6.316  -0.319  0.00  0.00    -0.288 OA
ATOM     22  C   UNL     1       2.139  -4.343  -1.353  0.00  0.00    +0.047 C 
ATOM     23  C   UNL     1       2.263  -3.006  -1.333  0.00  0.00    -0.009 C 
ATOM     24  C   UNL     1       2.984  -2.336  -0.211  0.00  0.00    +0.044 C 
ATOM     25  C   UNL     1       4.468  -2.512  -0.597  0.00  0.00    +0.023 C 
ATOM     26  F   UNL     1       4.159  -0.331  -0.147  0.00  0.00    -0.238 F 
ENDROOT
BRANCH  10  27
ATOM     27  C   UNL     1      -2.235  -0.581  -1.103  0.00  0.00    +0.193 C 
ATOM     28  O   UNL     1      -2.190  -1.515  -1.867  0.00  0.00    -0.292 OA
BRANCH  27  29
ATOM     29  C   UNL     1      -3.102   0.611  -1.421  0.00  0.00    +0.233 C 
BRANCH  29  30
ATOM     30  O   UNL     1      -3.858   0.348  -2.604  0.00  0.00    -0.387 OA
ATOM     31  H   UNL     1      -4.439   1.074  -2.869  0.00  0.00    +0.210 HD
ENDBRANCH  29  30
ENDBRANCH  27  29
ENDBRANCH  10  27
BRANCH   4  32
ATOM     32  O   UNL     1       2.689  -0.578  -2.550  0.00  0.00    -0.389 OA
ATOM     33  H   UNL     1       2.301  -0.129  -3.313  0.00  0.00    +0.210 HD
ENDBRANCH   4  32
TORSDOF 4
