REMARK  Name = ZINC09347422
REMARK  7 active torsions:
REMARK  status: ('A' for Active; 'I' for Inactive)
REMARK    1  A    between atoms: C_1  and  C_2
REMARK    2  A    between atoms: C_2  and  S_3
REMARK    3  A    between atoms: S_3  and  C_6
REMARK    4  A    between atoms: C_10  and  C_12
REMARK    5  A    between atoms: N_14  and  C_15
REMARK    6  A    between atoms: C_16  and  C_24
REMARK    7  A    between atoms: C_23  and  N_56
REMARK                            x       y       z     vdW  Elec       q    Type
REMARK                         _______ _______ _______ _____ _____    ______ ____
ROOT
ATOM      1  C   UNL     1       4.768   2.257   6.546  0.00  0.00    +0.082 A 
ATOM      2  C   UNL     1       5.620   1.925   7.588  0.00  0.00    +0.039 A 
ATOM      3  C   UNL     1       6.651   2.877   7.950  0.00  0.00    -0.029 A 
ATOM      4  C   UNL     1       6.690   4.022   7.228  0.00  0.00    -0.021 A 
ATOM      5  S   UNL     1       5.375   3.861   6.053  0.00  0.00    -0.079 S 
ATOM      6  C   UNL     1       7.651   5.156   7.405  0.00  0.00    -0.036 C 
ATOM      7  C   UNL     1       8.827   3.623   8.865  0.00  0.00    -0.074 C 
ATOM      8  C   UNL     1       7.662   2.652   9.071  0.00  0.00    +0.018 C 
ATOM      9  C   UNL     1       9.401   5.976   8.871  0.00  0.00    -0.096 C 
ATOM     10  N   UNL     1       8.302   4.997   8.727  0.00  0.00    +0.381 N 
ATOM     11  H   UNL     1       7.607   5.165   9.464  0.00  0.00    -0.082 HD
ENDROOT
BRANCH   2  12
ATOM     12  C   UNL     1       5.481   0.646   8.305  0.00  0.00    +0.112 A 
ATOM     13  N   UNL     1       6.201   0.175   9.303  0.00  0.00    -0.239 NA
ATOM     14  C   UNL     1       5.954  -1.023   9.870  0.00  0.00    +0.079 A 
ATOM     15  C   UNL     1       6.643  -1.639  10.942  0.00  0.00    +0.029 A 
ATOM     16  C   UNL     1       6.264  -2.874  11.399  0.00  0.00    +0.002 A 
ATOM     17  C   UNL     1       5.202  -3.563  10.832  0.00  0.00    +0.001 A 
ATOM     18  C   UNL     1       4.506  -2.991   9.782  0.00  0.00    +0.017 A 
ATOM     19  C   UNL     1       4.877  -1.754   9.318  0.00  0.00    +0.040 A 
ATOM     20  S   UNL     1       4.298  -0.667   8.037  0.00  0.00    -0.067 S 
ENDBRANCH   2  12
BRANCH   1  23
ATOM     21  C   UNL     1       2.995   2.023   4.990  0.00  0.00    +0.249 C 
ATOM     22  O   UNL     1       3.269   3.114   4.529  0.00  0.00    -0.270 OA
ATOM     23  N   UNL     1       3.714   1.524   6.015  0.00  0.00    -0.275 N 
ATOM     24  H   UNL     1       3.495   0.654   6.383  0.00  0.00    +0.156 HD
BRANCH  21  29
ATOM     25  C   UNL     1       0.082   1.024   2.841  0.00  0.00    +0.089 A 
ATOM     26  C   UNL     1      -0.231  -0.215   3.371  0.00  0.00    +0.027 A 
ATOM     27  C   UNL     1       0.508  -0.732   4.420  0.00  0.00    +0.003 A 
ATOM     28  C   UNL     1       1.556  -0.010   4.952  0.00  0.00    +0.013 A 
ATOM     29  C   UNL     1       1.873   1.244   4.425  0.00  0.00    +0.039 A 
ATOM     30  C   UNL     1       1.127   1.757   3.363  0.00  0.00    +0.040 A 
BRANCH  25  31
ATOM     31  S   UNL     1      -0.862   1.671   1.500  0.00  0.00    -0.003 S 
ATOM     32  O   UNL     1      -0.735   3.082   1.615  0.00  0.00    -0.169 OA
ATOM     33  O   UNL     1      -2.133   1.046   1.617  0.00  0.00    -0.169 OA
BRANCH  31  35
ATOM     34  C   UNL     1      -0.753   1.593  -1.232  0.00  0.00    +0.028 C 
ATOM     35  C   UNL     1      -0.013   1.086   0.008  0.00  0.00    +0.168 C 
ENDBRANCH  31  35
ENDBRANCH  25  31
ENDBRANCH  21  29
ENDBRANCH   1  23
TORSDOF 5
