REMARK  Name = ZINC50255833
REMARK  4 active torsions:
REMARK  status: ('A' for Active; 'I' for Inactive)
REMARK    1  A    between atoms: N_11  and  C_12
REMARK    2  A    between atoms: C_12  and  C_14
REMARK    3  A    between atoms: C_17  and  S_20
REMARK    4  A    between atoms: S_20  and  C_23
REMARK                            x       y       z     vdW  Elec       q    Type
REMARK                         _______ _______ _______ _____ _____    ______ ____
ROOT
ATOM      1  C   UNL     1       4.923  -3.247  -0.165  0.00  0.00    +0.270 C 
ATOM      2  O   UNL     1       5.516  -2.182  -0.165  0.00  0.00    -0.268 OA
ENDROOT
BRANCH   1  13
ATOM      3  C   UNL     1      -0.018   1.375  -0.018  0.00  0.00    +0.002 A 
ATOM      4  C   UNL     1       1.167   2.090  -0.015  0.00  0.00    +0.002 A 
ATOM      5  C   UNL     1       2.379   1.429  -0.021  0.00  0.00    +0.028 A 
ATOM      6  C   UNL     1       2.410   0.041  -0.029  0.00  0.00    +0.065 A 
ATOM      7  C   UNL     1       1.214  -0.680  -0.032  0.00  0.00    +0.065 A 
ATOM      8  C   UNL     1       0.001  -0.005  -0.026  0.00  0.00    +0.028 A 
ATOM      9  N   UNL     1       1.549  -2.030  -0.040  0.00  0.00    -0.326 N 
ATOM     10  H   UNL     1       0.923  -2.771  -0.044  0.00  0.00    +0.169 HD
ATOM     11  C   UNL     1       2.905  -2.133  -0.043  0.00  0.00    +0.199 A 
ATOM     12  N   UNL     1       3.447  -0.885  -0.036  0.00  0.00    -0.326 N 
ATOM     13  N   UNL     1       3.591  -3.270  -0.051  0.00  0.00    -0.143 NA
ATOM     14  H   UNL     1       4.395  -0.677  -0.036  0.00  0.00    +0.169 HD
ENDBRANCH   1  13
BRANCH   1  15
ATOM     15  C   UNL     1       5.678  -4.515  -0.291  0.00  0.00    +0.039 A 
ATOM     16  C   UNL     1       5.001  -5.735  -0.296  0.00  0.00    +0.015 A 
ATOM     17  C   UNL     1       5.710  -6.913  -0.415  0.00  0.00    +0.028 A 
ATOM     18  C   UNL     1       7.088  -6.886  -0.527  0.00  0.00    +0.089 A 
ATOM     19  C   UNL     1       7.765  -5.679  -0.522  0.00  0.00    +0.028 A 
ATOM     20  C   UNL     1       7.067  -4.494  -0.410  0.00  0.00    +0.015 A 
BRANCH  18  21
ATOM     21  S   UNL     1       7.986  -8.395  -0.677  0.00  0.00    -0.000 S 
ATOM     22  O   UNL     1       9.278  -8.100  -0.163  0.00  0.00    -0.169 OA
ATOM     23  O   UNL     1       7.163  -9.370  -0.052  0.00  0.00    -0.169 OA
BRANCH  21  24
ATOM     24  C   UNL     1       8.079  -8.706  -2.462  0.00  0.00    +0.136 C 
ATOM     25  C   UNL     1       6.660  -8.779  -3.060  0.00  0.00    +0.026 C 
ATOM     26  C   UNL     1       6.758  -9.888  -4.137  0.00  0.00    +0.002 C 
ATOM     27  C   UNL     1       7.696 -10.927  -3.474  0.00  0.00    +0.002 C 
ATOM     28  C   UNL     1       8.738 -10.072  -2.724  0.00  0.00    +0.026 C 
ENDBRANCH  21  24
ENDBRANCH  18  21
ENDBRANCH   1  15
TORSDOF 4
