REMARK  Name = ZINC11472662
REMARK  8 active torsions:
REMARK  status: ('A' for Active; 'I' for Inactive)
REMARK    1  A    between atoms: C_1  and  C_2
REMARK    2  A    between atoms: C_9  and  C_11
REMARK    3  A    between atoms: C_14  and  N_17
REMARK    4  A    between atoms: C_18  and  C_20
REMARK    5  A    between atoms: C_20  and  C_22
REMARK    6  A    between atoms: C_20  and  S_23
REMARK    7  A    between atoms: S_23  and  C_24
REMARK    8  A    between atoms: C_28  and  C_30
REMARK                            x       y       z     vdW  Elec       q    Type
REMARK                         _______ _______ _______ _____ _____    ______ ____
ROOT
ATOM      1  C   UNL     1       0.114  -6.201   1.553  0.00  0.00    +0.007 A 
ATOM      2  C   UNL     1       0.109  -6.629   2.882  0.00  0.00    +0.012 A 
ATOM      3  C   UNL     1       0.122  -7.977   3.170  0.00  0.00    +0.024 A 
ATOM      4  C   UNL     1       0.140  -8.909   2.139  0.00  0.00    +0.033 A 
ATOM      5  C   UNL     1       0.144  -8.486   0.814  0.00  0.00    +0.024 A 
ATOM      6  C   UNL     1       0.125  -7.140   0.520  0.00  0.00    +0.012 A 
ENDROOT
BRANCH   1  15
ATOM      7  C   UNL     1       0.041   1.495  -0.031  0.00  0.00    +0.044 C 
ATOM      8  C   UNL     1       0.056  -0.012  -0.034  0.00  0.00    -0.049 A 
ATOM      9  C   UNL     1       0.066  -0.710  -1.233  0.00  0.00    +0.005 A 
ATOM     10  C   UNL     1       0.079  -2.069  -1.268  0.00  0.00    +0.029 A 
ATOM     11  C   UNL     1       0.084  -2.826  -0.072  0.00  0.00    +0.079 A 
ATOM     12  C   UNL     1       0.074  -2.086   1.134  0.00  0.00    +0.040 A 
ATOM     13  C   UNL     1       0.067  -0.712   1.158  0.00  0.00    +0.020 A 
ATOM     14  S   UNL     1       0.084  -3.366   2.365  0.00  0.00    -0.067 S 
ATOM     15  C   UNL     1       0.100  -4.756   1.241  0.00  0.00    +0.109 A 
ATOM     16  N   UNL     1       0.097  -4.166   0.066  0.00  0.00    -0.239 NA
ENDBRANCH   1  15
BRANCH   4  17
ATOM     17  N   UNL     1       0.153 -10.274   2.434  0.00  0.00    -0.285 N 
ATOM     18  C   UNL     1      -0.503 -11.142   1.639  0.00  0.00    +0.230 C 
ATOM     19  O   UNL     1      -1.036 -10.750   0.622  0.00  0.00    -0.274 OA
ATOM     20  H   UNL     1       0.635 -10.598   3.211  0.00  0.00    +0.155 HD
BRANCH  18  21
ATOM     21  C   UNL     1      -0.577 -12.600   2.013  0.00  0.00    +0.137 C 
ATOM     22  C   UNL     1      -1.746 -12.822   2.973  0.00  0.00    +0.029 C 
BRANCH  21  23
ATOM     23  S   UNL     1      -0.824 -13.597   0.517  0.00  0.00    -0.074 S 
BRANCH  23  24
ATOM     24  C   UNL     1      -0.740 -15.259   1.094  0.00  0.00    +0.185 A 
ATOM     25  N   UNL     1      -0.863 -16.371   0.337  0.00  0.00    -0.254 N 
ATOM     26  H   UNL     1      -1.013 -16.409  -0.621  0.00  0.00    +0.191 HD
ATOM     27  N   UNL     1      -0.730 -17.461   1.212  0.00  0.00    -0.157 NA
ATOM     28  C   UNL     1      -0.541 -16.971   2.407  0.00  0.00    +0.155 A 
ATOM     29  N   UNL     1      -0.540 -15.639   2.338  0.00  0.00    -0.205 NA
BRANCH  28  30
ATOM     30  C   UNL     1      -0.347 -17.781   3.663  0.00  0.00    +0.059 C 
ATOM     31  C   UNL     1      -0.170 -19.293   3.509  0.00  0.00    +0.012 C 
ATOM     32  C   UNL     1      -1.475 -18.729   4.074  0.00  0.00    +0.012 C 
ENDBRANCH  28  30
ENDBRANCH  23  24
ENDBRANCH  21  23
ENDBRANCH  18  21
ENDBRANCH   4  17
TORSDOF 6
