REMARK  Name = ZINC44742775
REMARK  7 active torsions:
REMARK  status: ('A' for Active; 'I' for Inactive)
REMARK    1  A    between atoms: C_1  and  C_2
REMARK    2  A    between atoms: C_3  and  C_9
REMARK    3  A    between atoms: C_4  and  C_8
REMARK    4  A    between atoms: N_5  and  C_7
REMARK    5  A    between atoms: C_10  and  C_11
REMARK    6  A    between atoms: C_22  and  C_24
REMARK    7  A    between atoms: C_22  and  C_25
REMARK                            x       y       z     vdW  Elec       q    Type
REMARK                         _______ _______ _______ _____ _____    ______ ____
ROOT
ATOM      1  C   UNL     1      -0.929   0.969  -4.301  0.00  0.00    +0.243 C 
ATOM      2  O   UNL     1      -0.119   0.522  -5.093  0.00  0.00    -0.270 OA
ATOM      3  N   UNL     1      -1.838   1.877  -4.708  0.00  0.00    -0.261 N 
ATOM      4  C   UNL     1      -1.850   2.301  -6.022  0.00  0.00    +0.165 A 
ATOM      5  N   UNL     1      -2.659   3.182  -6.589  0.00  0.00    -0.229 NA
ATOM      6  C   UNL     1      -2.564   3.501  -7.857  0.00  0.00    +0.062 A 
ATOM      7  C   UNL     1      -1.542   2.834  -8.545  0.00  0.00    +0.079 A 
ATOM      8  S   UNL     1      -0.834   1.825  -7.280  0.00  0.00    -0.049 S 
ATOM      9  C   UNL     1      -1.233   3.002  -9.890  0.00  0.00    +0.172 C 
ATOM     10  O   UNL     1      -0.342   2.368 -10.420  0.00  0.00    -0.291 OA
ATOM     11  C   UNL     1      -2.058   4.010 -10.669  0.00  0.00    +0.087 C 
ATOM     12  C   UNL     1      -3.470   4.071 -10.085  0.00  0.00    -0.022 C 
ATOM     13  C   UNL     1      -3.440   4.490  -8.613  0.00  0.00    +0.063 C 
ATOM     14  C   UNL     1      -4.121   2.691 -10.201  0.00  0.00    +0.011 C 
ATOM     15  C   UNL     1      -4.298   5.083 -10.879  0.00  0.00    +0.011 C 
ATOM     16  H   UNL     1      -2.483   2.233  -4.077  0.00  0.00    +0.157 HD
ENDROOT
BRANCH   1  18
ATOM     17  C   UNL     1      -0.005  -0.378  -2.546  0.00  0.00    +0.016 C 
ATOM     18  C   UNL     1      -0.916   0.533  -2.953  0.00  0.00    +0.068 C 
BRANCH  17  21
ATOM     19  C   UNL     1      -0.018   1.503   0.010  0.00  0.00    +0.068 C 
ATOM     20  C   UNL     1       0.002  -0.004   0.002  0.00  0.00    +0.067 A 
ATOM     21  C   UNL     1       0.008  -0.829  -1.147  0.00  0.00    +0.018 A 
ATOM     22  C   UNL     1       0.028  -2.140  -0.707  0.00  0.00    +0.043 A 
ATOM     23  N   UNL     1       0.034  -2.112   0.637  0.00  0.00    -0.271 N 
ATOM     24  N   UNL     1       0.023  -0.776   1.053  0.00  0.00    -0.176 NA
ATOM     25  C   UNL     1       0.054  -3.283   1.517  0.00  0.00    +0.172 C 
ATOM     26  C   UNL     1       0.042  -3.372  -1.574  0.00  0.00    +0.066 C 
ENDBRANCH  17  21
ENDBRANCH   1  18
TORSDOF 2
