REMARK  Name = ZINC21082946
REMARK  7 active torsions:
REMARK  status: ('A' for Active; 'I' for Inactive)
REMARK    1  A    between atoms: C_1  and  C_2
REMARK    2  A    between atoms: C_2  and  C_31
REMARK    3  A    between atoms: N_3  and  N_4
REMARK    4  A    between atoms: C_7  and  S_10
REMARK    5  A    between atoms: S_10  and  C_11
REMARK    6  A    between atoms: C_11  and  C_12
REMARK    7  A    between atoms: N_14  and  C_15
REMARK                            x       y       z     vdW  Elec       q    Type
REMARK                         _______ _______ _______ _____ _____    ______ ____
ROOT
ATOM      1  C   UNL     1      -0.741   1.586  -1.213  0.00  0.00    +0.228 C 
ATOM      2  O   UNL     1      -1.730   2.277  -1.089  0.00  0.00    -0.275 OA
ATOM      3  N   UNL     1      -0.288   1.272  -2.443  0.00  0.00    -0.284 N 
ATOM      4  H   UNL     1       0.657   0.722  -2.558  0.00  0.00    +0.155 HD
ENDROOT
BRANCH   3   5
ATOM      5  C   UNL     1      -1.017   1.644  -3.568  0.00  0.00    +0.045 A 
ATOM      6  C   UNL     1      -2.393   1.852  -3.475  0.00  0.00    +0.024 A 
ATOM      7  C   UNL     1      -3.119   2.221  -4.588  0.00  0.00    +0.003 A 
ATOM      8  C   UNL     1      -2.494   2.391  -5.814  0.00  0.00    +0.012 A 
ATOM      9  C   UNL     1      -1.124   2.189  -5.930  0.00  0.00    +0.035 A 
ATOM     10  C   UNL     1      -0.374   1.818  -4.797  0.00  0.00    +0.054 A 
ATOM     11  C   UNL     1       1.081   1.609  -4.919  0.00  0.00    +0.196 C 
ATOM     12  O   UNL     1       1.777   1.532  -3.925  0.00  0.00    -0.287 OA
ATOM     13  C   UNL     1       1.684   1.496  -6.266  0.00  0.00    +0.033 A 
ATOM     14  C   UNL     1       2.982   1.022  -6.422  0.00  0.00    +0.012 A 
ATOM     15  C   UNL     1       3.530   0.920  -7.689  0.00  0.00    +0.001 A 
ATOM     16  C   UNL     1       2.796   1.289  -8.802  0.00  0.00    +0.001 A 
ATOM     17  C   UNL     1       1.503   1.764  -8.664  0.00  0.00    +0.012 A 
ATOM     18  C   UNL     1       0.938   1.871  -7.397  0.00  0.00    +0.033 A 
ATOM     19  C   UNL     1      -0.445   2.363  -7.232  0.00  0.00    +0.195 C 
ATOM     20  O   UNL     1      -1.012   2.919  -8.152  0.00  0.00    -0.287 OA
ENDBRANCH   3   5
BRANCH   1  21
ATOM     21  C   UNL     1      -0.019   1.078   0.008  0.00  0.00    +0.173 C 
BRANCH  21  22
ATOM     22  S   UNL     1      -0.865   1.667   1.500  0.00  0.00    -0.075 S 
BRANCH  22  26
ATOM     23  N   UNL     1       0.908   0.414   6.234  0.00  0.00    -0.205 N 
ATOM     24  C   UNL     1       0.804   0.490   4.853  0.00  0.00    +0.232 A 
ATOM     25  N   UNL     1      -0.159   1.166   4.156  0.00  0.00    -0.186 NA
ATOM     26  C   UNL     1       0.087   0.997   2.823  0.00  0.00    +0.211 A 
ATOM     27  N   UNL     1       1.154   0.244   2.700  0.00  0.00    -0.144 NA
ATOM     28  N   UNL     1       1.611  -0.073   3.987  0.00  0.00    -0.245 N 
ATOM     29  H   UNL     1       0.172   0.927   6.870  0.00  0.00    +0.177 HD
ATOM     30  H   UNL     1       2.466  -0.668   4.338  0.00  0.00    +0.192 HD
BRANCH  23  33
ATOM     31  C   UNL     1       1.040   0.313   8.985  0.00  0.00    +0.068 C 
ATOM     32  C   UNL     1       2.048  -0.390   8.113  0.00  0.00    +0.070 C 
ATOM     33  N   UNL     1       1.950  -0.318   6.818  0.00  0.00    -0.184 NA
BRANCH  32  34
ATOM     34  C   UNL     1       3.139  -1.156   8.725  0.00  0.00    +0.035 A 
ATOM     35  C   UNL     1       4.157  -1.866   8.113  0.00  0.00    +0.017 A 
ATOM     36  C   UNL     1       5.075  -2.511   8.909  0.00  0.00    +0.008 A 
ATOM     37  C   UNL     1       4.956  -2.431  10.260  0.00  0.00    +0.046 A 
ATOM     38  S   UNL     1       3.506  -1.408  10.454  0.00  0.00    -0.095 S 
ENDBRANCH  32  34
ENDBRANCH  23  33
ENDBRANCH  22  26
ENDBRANCH  21  22
ENDBRANCH   1  21
TORSDOF 6
