REMARK  Name = ZINC39695866
REMARK  8 active torsions:
REMARK  status: ('A' for Active; 'I' for Inactive)
REMARK    1  A    between atoms: C_1  and  C_2
REMARK    2  A    between atoms: C_7  and  C_12
REMARK    3  A    between atoms: C_12  and  C_14
REMARK    4  A    between atoms: C_12  and  N_15
REMARK    5  A    between atoms: C_16  and  C_18
REMARK    6  A    between atoms: C_29  and  C_31
REMARK    7  A    between atoms: C_34  and  C_38
REMARK    8  A    between atoms: N_35  and  C_37
REMARK                            x       y       z     vdW  Elec       q    Type
REMARK                         _______ _______ _______ _____ _____    ______ ____
ROOT
ATOM      1  C   UNL     1      -6.149   2.823  -8.279  0.00  0.00    +0.100 C 
ATOM      2  C   UNL     1      -5.622   4.112  -8.947  0.00  0.00    +0.121 C 
ATOM      3  N   UNL     1      -6.321   4.169 -10.253  0.00  0.00    -0.299 N 
ATOM      4  C   UNL     1      -7.698   3.710  -9.954  0.00  0.00    +0.115 C 
ATOM      5  C   UNL     1      -7.512   2.563  -8.941  0.00  0.00    -0.004 C 
ATOM      6  C   UNL     1      -8.623   2.597  -7.896  0.00  0.00    -0.010 C 
ATOM      7  C   UNL     1      -9.961   2.278  -8.569  0.00  0.00    -0.082 C 
ATOM      8  N   UNL     1      -9.892   0.953  -9.196  0.00  0.00    +0.379 N 
ATOM      9  C   UNL     1      -8.885   0.956 -10.264  0.00  0.00    -0.082 C 
ATOM     10  C   UNL     1      -7.501   1.218  -9.662  0.00  0.00    -0.010 C 
ATOM     11  C   UNL     1      -5.817   4.552 -11.443  0.00  0.00    +0.238 C 
ATOM     12  O   UNL     1      -6.522   4.544 -12.430  0.00  0.00    -0.273 OA
ATOM     13  H   UNL     1      -9.641   0.266  -8.501  0.00  0.00    -0.086 HD
ATOM     14  H   UNL     1     -10.793   0.719  -9.586  0.00  0.00    -0.086 HD
ENDROOT
BRANCH  11  15
ATOM     15  C   UNL     1      -4.379   4.989 -11.548  0.00  0.00    +0.183 C 
ATOM     16  C   UNL     1      -4.143   6.234 -10.721  0.00  0.00    +0.022 C 
ATOM     17  C   UNL     1      -3.756   7.178 -11.555  0.00  0.00    +0.017 C 
ATOM     18  N   UNL     1      -3.701   6.719 -12.856  0.00  0.00    -0.274 N 
ATOM     19  N   UNL     1      -4.064   5.401 -12.930  0.00  0.00    -0.225 NA
ATOM     20  C   UNL     1      -3.307   7.535 -14.007  0.00  0.00    +0.149 C 
ATOM     21  C   UNL     1      -3.415   8.586 -11.140  0.00  0.00    +0.061 C 
ATOM     22  H   UNL     1      -3.318   4.840 -13.314  0.00  0.00    +0.146 HD
ENDBRANCH  11  15
BRANCH   1  24
ATOM     23  N   UNL     1      -6.200   1.989  -5.950  0.00  0.00    -0.305 N 
ATOM     24  C   UNL     1      -6.318   3.032  -6.796  0.00  0.00    +0.219 C 
ATOM     25  O   UNL     1      -6.560   4.139  -6.363  0.00  0.00    -0.275 OA
ATOM     26  H   UNL     1      -6.006   1.104  -6.296  0.00  0.00    +0.149 HD
BRANCH  23  27
ATOM     27  C   UNL     1      -6.364   2.193  -4.509  0.00  0.00    +0.136 C 
ATOM     28  C   UNL     1      -5.034   2.646  -3.903  0.00  0.00    +0.036 C 
BRANCH  27  35
ATOM     29  C   UNL     1      -9.015  -3.405  -0.383  0.00  0.00    +0.044 C 
ATOM     30  C   UNL     1      -8.337  -2.629  -1.483  0.00  0.00    -0.048 A 
ATOM     31  C   UNL     1      -7.742  -3.307  -2.538  0.00  0.00    +0.005 A 
ATOM     32  C   UNL     1      -7.122  -2.622  -3.544  0.00  0.00    +0.030 A 
ATOM     33  C   UNL     1      -7.084  -1.226  -3.516  0.00  0.00    +0.089 A 
ATOM     34  N   UNL     1      -6.559  -0.286  -4.344  0.00  0.00    -0.231 NA
ATOM     35  C   UNL     1      -6.795   0.900  -3.865  0.00  0.00    +0.128 A 
ATOM     36  H   UNL     1      -7.785   1.542  -2.143  0.00  0.00    +0.167 HD
ATOM     37  N   UNL     1      -7.487   0.804  -2.698  0.00  0.00    -0.340 N 
ATOM     38  C   UNL     1      -7.687  -0.539  -2.448  0.00  0.00    +0.067 A 
ATOM     39  C   UNL     1      -8.316  -1.252  -1.437  0.00  0.00    +0.031 A 
ENDBRANCH  27  35
ENDBRANCH  23  27
ENDBRANCH   1  24
TORSDOF 4
