REMARK  Name = ZINC39850486
REMARK  5 active torsions:
REMARK  status: ('A' for Active; 'I' for Inactive)
REMARK    1  A    between atoms: C_1  and  C_2
REMARK    2  A    between atoms: C_7  and  C_8
REMARK    3  A    between atoms: C_7  and  C_9
REMARK    4  A    between atoms: N_12  and  O_13
REMARK    5  A    between atoms: N_15  and  O_16
REMARK                            x       y       z     vdW  Elec       q    Type
REMARK                         _______ _______ _______ _____ _____    ______ ____
ROOT
ATOM      1  C   UNL     1      -0.019   1.526   0.010  0.00  0.00    +0.018 C 
ATOM      2  C   UNL     1       0.002  -0.004   0.002  0.00  0.00    +0.022 C 
ATOM      3  C   UNL     1       0.740  -0.672  -1.199  0.00  0.00    +0.014 C 
ATOM      4  C   UNL     1       1.032  -2.112  -0.716  0.00  0.00    +0.011 C 
ATOM      5  C   UNL     1       0.439  -2.164   0.726  0.00  0.00    +0.051 C 
ATOM      6  C   UNL     1       0.727  -0.698   1.210  0.00  0.00    -0.003 C 
ATOM      7  C   UNL     1       0.060  -0.372   2.548  0.00  0.00    +0.013 C 
ATOM      8  C   UNL     1      -1.081  -2.114   0.515  0.00  0.00    +0.108 C 
ATOM      9  N   UNL     1      -1.928  -3.074   0.708  0.00  0.00    -0.090 NA
ATOM     10  C   UNL     1      -1.366  -0.697   0.066  0.00  0.00    +0.111 C 
ATOM     11  N   UNL     1      -2.517  -0.182  -0.230  0.00  0.00    -0.090 NA
ENDROOT
BRANCH   6  12
ATOM     12  C   UNL     1       2.227  -0.399   1.232  0.00  0.00    +0.088 C 
ATOM     13 BR   UNL     1       3.052  -1.303   2.771  0.00  0.00    -0.091 Br
ENDBRANCH   6  12
BRANCH   9  14
ATOM     14  O   UNL     1      -1.476  -4.337   1.163  0.00  0.00    -0.409 OA
ATOM     15  H   UNL     1      -2.180  -4.989   1.277  0.00  0.00    +0.328 HD
ENDBRANCH   9  14
BRANCH  11  16
ATOM     16  O   UNL     1      -3.693  -0.964  -0.116  0.00  0.00    -0.409 OA
ATOM     17  H   UNL     1      -4.502  -0.494  -0.358  0.00  0.00    +0.328 HD
ENDBRANCH  11  16
TORSDOF 3
