REMARK  Name = ZINC11114721
REMARK  8 active torsions:
REMARK  status: ('A' for Active; 'I' for Inactive)
REMARK    1  A    between atoms: C_1  and  C_2
REMARK    2  A    between atoms: C_6  and  N_9
REMARK    3  A    between atoms: C_7  and  C_8
REMARK    4  A    between atoms: C_12  and  C_15
REMARK    5  A    between atoms: C_15  and  O_16
REMARK    6  A    between atoms: O_16  and  C_17
REMARK    7  A    between atoms: C_22  and  C_23
REMARK    8  A    between atoms: C_27  and  C_29
REMARK                            x       y       z     vdW  Elec       q    Type
REMARK                         _______ _______ _______ _____ _____    ______ ____
ROOT
ATOM      1  N   UNL     1      -1.110   2.174   0.016  0.00  0.00    -0.219 N 
ATOM      2  C   UNL     1      -0.016   1.315   0.003  0.00  0.00    +0.172 A 
ATOM      3  N   UNL     1       0.002  -0.004  -0.003  0.00  0.00    -0.226 NA
ATOM      4  C   UNL     1       1.139  -0.672  -0.021  0.00  0.00    +0.088 A 
ATOM      5  C   UNL     1       2.300   0.028  -0.032  0.00  0.00    +0.075 A 
ATOM      6  S   UNL     1       1.677   1.703  -0.017  0.00  0.00    -0.060 S 
ATOM      7  C   UNL     1      -2.359   1.676  -0.079  0.00  0.00    +0.223 C 
ATOM      8  O   UNL     1      -2.535   0.476  -0.082  0.00  0.00    -0.275 OA
ATOM      9  C   UNL     1      -3.536   2.611  -0.181  0.00  0.00    +0.110 C 
ENDROOT
BRANCH   1  15
ATOM     10  C   UNL     1      -0.632   6.167   2.846  0.00  0.00    +0.044 C 
ATOM     11  C   UNL     1      -0.677   5.517   1.487  0.00  0.00    -0.046 A 
ATOM     12  C   UNL     1      -0.525   6.287   0.348  0.00  0.00    +0.004 A 
ATOM     13  C   UNL     1      -0.567   5.694  -0.901  0.00  0.00    +0.002 A 
ATOM     14  C   UNL     1      -0.754   4.331  -1.014  0.00  0.00    +0.024 A 
ATOM     15  C   UNL     1      -0.913   3.556   0.128  0.00  0.00    +0.046 A 
ATOM     16  C   UNL     1      -0.871   4.154   1.380  0.00  0.00    -0.026 A 
ATOM     17  C   UNL     1      -1.037   3.317   2.622  0.00  0.00    +0.046 C 
ENDBRANCH   1  15
BRANCH   4  18
ATOM     18  C   UNL     1       1.147  -2.179  -0.028  0.00  0.00    +0.285 C 
BRANCH  18  19
ATOM     19  O   UNL     1       2.497  -2.647  -0.048  0.00  0.00    -0.485 OA
BRANCH  19  20
ATOM     20  C   UNL     1       2.683  -3.991  -0.057  0.00  0.00    +0.133 A 
ATOM     21  C   UNL     1       1.590  -4.845  -0.046  0.00  0.00    +0.048 A 
ATOM     22  C   UNL     1       1.779  -6.213  -0.056  0.00  0.00    +0.023 A 
ATOM     23  C   UNL     1       3.060  -6.743  -0.075  0.00  0.00    +0.042 A 
ATOM     24  C   UNL     1       4.158  -5.908  -0.085  0.00  0.00    +0.036 A 
ATOM     25  C   UNL     1       3.979  -4.523  -0.082  0.00  0.00    +0.079 A 
ATOM     26 CL   UNL     1       3.283  -8.464  -0.087  0.00  0.00    -0.084 Cl
BRANCH  25  27
ATOM     27  C   UNL     1       5.149  -3.624  -0.099  0.00  0.00    +0.245 C 
ATOM     28  O   UNL     1       4.989  -2.418  -0.092  0.00  0.00    -0.270 OA
ATOM     29  N   UNL     1       6.394  -4.139  -0.123  0.00  0.00    -0.325 N 
ATOM     30  H   UNL     1       6.521  -5.100  -0.129  0.00  0.00    +0.145 HD
ATOM     31  H   UNL     1       7.163  -3.548  -0.135  0.00  0.00    +0.145 HD
ENDBRANCH  25  27
ENDBRANCH  19  20
ENDBRANCH  18  19
ENDBRANCH   4  18
TORSDOF 5
