REMARK  Name = ZINC41506458
REMARK  4 active torsions:
REMARK  status: ('A' for Active; 'I' for Inactive)
REMARK    1  A    between atoms: C_8  and  C_11
REMARK    2  A    between atoms: C_11  and  C_13
REMARK    3  A    between atoms: C_13  and  C_15
REMARK    4  A    between atoms: C_13  and  C_17
REMARK                            x       y       z     vdW  Elec       q    Type
REMARK                         _______ _______ _______ _____ _____    ______ ____
ROOT
ATOM      1  C   UNL     1      -1.077  -3.460  -0.006  0.00  0.00    +0.203 C 
ATOM      2  O   UNL     1      -2.291  -3.499   0.006  0.00  0.00    -0.289 OA
ENDROOT
BRANCH   1  10
ATOM      3  C   UNL     1      -0.017   1.397   0.010  0.00  0.00    +0.011 A 
ATOM      4  C   UNL     1       1.157   2.092   0.002  0.00  0.00    +0.016 A 
ATOM      5  C   UNL     1       2.376   1.423  -0.013  0.00  0.00    +0.020 A 
ATOM      6  C   UNL     1       2.421   0.046  -0.021  0.00  0.00    +0.041 A 
ATOM      7  C   UNL     1       1.236  -0.685  -0.013  0.00  0.00    +0.048 A 
ATOM      8  C   UNL     1       0.002  -0.004   0.002  0.00  0.00    +0.000 A 
ATOM      9  C   UNL     1      -1.014  -0.988   0.006  0.00  0.00    +0.039 A 
ATOM     10  C   UNL     1      -0.408  -2.209  -0.006  0.00  0.00    +0.085 A 
ATOM     11  N   UNL     1       0.964  -2.033  -0.018  0.00  0.00    -0.352 N 
ATOM     12  H   UNL     1       1.625  -2.743  -0.029  0.00  0.00    +0.166 HD
ATOM     13 BR   UNL     1       3.987   2.413  -0.025  0.00  0.00    -0.050 Br
ENDBRANCH   1  10
BRANCH   1  14
ATOM     14  C   UNL     1      -0.282  -4.740  -0.020  0.00  0.00    +0.231 C 
BRANCH  14  15
ATOM     15  C   UNL     1      -1.105  -5.849   0.583  0.00  0.00    +0.158 A 
ATOM     16  N   UNL     1      -2.257  -6.286   0.146  0.00  0.00    -0.133 NA
ATOM     17  N   UNL     1      -2.669  -7.247   0.898  0.00  0.00    -0.134 NA
ATOM     18  C   UNL     1      -1.799  -7.466   1.842  0.00  0.00    +0.133 A 
ATOM     19  N   UNL     1      -0.787  -6.583   1.672  0.00  0.00    -0.313 N 
ATOM     20  C   UNL     1       0.400  -6.445   2.517  0.00  0.00    +0.125 C 
ATOM     21  C   UNL     1       0.725  -7.796   3.160  0.00  0.00    +0.022 C 
ATOM     22  C   UNL     1      -0.018  -7.925   4.490  0.00  0.00    +0.002 C 
ATOM     23  C   UNL     1      -1.526  -7.868   4.267  0.00  0.00    +0.008 C 
ATOM     24  C   UNL     1      -1.874  -8.510   2.926  0.00  0.00    +0.076 C 
ENDBRANCH  14  15
BRANCH  14  25
ATOM     25  C   UNL     1       0.066  -5.086  -1.408  0.00  0.00    +0.082 C 
ATOM     26  N   UNL     1       0.335  -5.353  -2.479  0.00  0.00    -0.195 NA
ENDBRANCH  14  25
ENDBRANCH   1  14
TORSDOF 4
