REMARK  Name = ZINC35427055
REMARK  8 active torsions:
REMARK  status: ('A' for Active; 'I' for Inactive)
REMARK    1  A    between atoms: C_1  and  C_2
REMARK    2  A    between atoms: C_2  and  O_3
REMARK    3  A    between atoms: O_3  and  C_4
REMARK    4  A    between atoms: C_4  and  C_5
REMARK    5  A    between atoms: C_5  and  C_6
REMARK    6  A    between atoms: C_6  and  N_7
REMARK    7  A    between atoms: C_22  and  C_24
REMARK    8  A    between atoms: N_32  and  C_35
REMARK                            x       y       z     vdW  Elec       q    Type
REMARK                         _______ _______ _______ _____ _____    ______ ____
ROOT
ATOM      1  N   UNL     1       2.119  -4.514   3.485  0.00  0.00    -0.299 N 
ATOM      2  C   UNL     1       2.429  -5.752   3.919  0.00  0.00    +0.303 C 
ATOM      3  O   UNL     1       2.127  -6.723   3.253  0.00  0.00    -0.253 OA
ATOM      4  N   UNL     1       3.072  -5.912   5.093  0.00  0.00    -0.269 N 
ATOM      5  C   UNL     1       3.449  -4.760   5.931  0.00  0.00    +0.148 C 
ATOM      6  C   UNL     1       3.250  -5.021   7.408  0.00  0.00    +0.004 A 
ATOM      7  C   UNL     1       2.257  -4.385   8.175  0.00  0.00    -0.034 A 
ATOM      8  C   UNL     1       2.190  -4.684   9.501  0.00  0.00    -0.021 A 
ATOM      9  S   UNL     1       3.492  -5.865   9.734  0.00  0.00    -0.077 S 
ATOM     10  C   UNL     1       4.051  -5.908   8.059  0.00  0.00    +0.090 A 
ATOM     11  N   UNL     1       5.049  -6.654   7.444  0.00  0.00    -0.312 N 
ATOM     12  C   UNL     1       6.329  -6.908   7.803  0.00  0.00    +0.092 A 
ATOM     13  C   UNL     1       6.903  -7.635   6.819  0.00  0.00    +0.020 A 
ATOM     14  C   UNL     1       5.925  -7.851   5.824  0.00  0.00    +0.025 A 
ATOM     15  C   UNL     1       4.793  -7.264   6.238  0.00  0.00    +0.049 A 
ATOM     16  C   UNL     1       3.430  -7.257   5.605  0.00  0.00    +0.155 C 
ATOM     17  C   UNL     1       1.230  -4.126  10.499  0.00  0.00    -0.036 C 
ATOM     18  N   UNL     1       0.595  -2.930   9.913  0.00  0.00    +0.381 N 
ATOM     19  C   UNL     1       0.095  -3.251   8.570  0.00  0.00    -0.074 C 
ATOM     20  C   UNL     1       1.261  -3.388   7.587  0.00  0.00    +0.018 C 
ATOM     21  C   UNL     1      -0.523  -2.503  10.764  0.00  0.00    -0.096 C 
ATOM     22  H   UNL     1       2.359  -3.739   4.016  0.00  0.00    +0.150 HD
ATOM     23  H   UNL     1       1.274  -2.186   9.851  0.00  0.00    -0.082 HD
ENDROOT
BRANCH  16  24
ATOM     24  C   UNL     1       2.407  -7.682   6.627  0.00  0.00    -0.021 A 
ATOM     25  C   UNL     1       1.152  -7.103   6.628  0.00  0.00    +0.008 A 
ATOM     26  C   UNL     1       0.212  -7.492   7.564  0.00  0.00    +0.038 A 
ATOM     27  C   UNL     1       0.529  -8.461   8.501  0.00  0.00    +0.123 A 
ATOM     28  C   UNL     1       1.786  -9.040   8.498  0.00  0.00    +0.038 A 
ATOM     29  C   UNL     1       2.723  -8.653   7.558  0.00  0.00    +0.008 A 
ATOM     30  F   UNL     1      -0.389  -8.842   9.416  0.00  0.00    -0.205 F 
ENDBRANCH  16  24
BRANCH   1  31
ATOM     31  C   UNL     1       1.419  -4.340   2.209  0.00  0.00    +0.108 C 
BRANCH  31  32
ATOM     32  C   UNL     1       1.191  -2.849   1.953  0.00  0.00    +0.047 C 
BRANCH  32  33
ATOM     33  C   UNL     1       0.460  -2.667   0.621  0.00  0.00    +0.161 C 
BRANCH  33  34
ATOM     34  O   UNL     1       0.247  -1.274   0.381  0.00  0.00    -0.380 OA
BRANCH  34  36
ATOM     35  C   UNL     1      -0.606   0.520  -0.996  0.00  0.00    +0.034 C 
ATOM     36  C   UNL     1      -0.432  -0.993  -0.844  0.00  0.00    +0.156 C 
ENDBRANCH  34  36
ENDBRANCH  33  34
ENDBRANCH  32  33
ENDBRANCH  31  32
ENDBRANCH   1  31
TORSDOF 6
