REMARK  Name = ZINC09670453
REMARK  8 active torsions:
REMARK  status: ('A' for Active; 'I' for Inactive)
REMARK    1  A    between atoms: C_1  and  O_2
REMARK    2  A    between atoms: O_2  and  C_3
REMARK    3  A    between atoms: C_6  and  N_9
REMARK    4  A    between atoms: C_12  and  C_15
REMARK    5  A    between atoms: C_15  and  S_16
REMARK    6  A    between atoms: S_16  and  C_17
REMARK    7  A    between atoms: C_20  and  C_23
REMARK    8  A    between atoms: N_21  and  N_22
REMARK                            x       y       z     vdW  Elec       q    Type
REMARK                         _______ _______ _______ _____ _____    ______ ____
ROOT
ATOM      1  N   UNL     1       8.189   3.782  -2.282  0.00  0.00    -0.294 N 
ATOM      2  C   UNL     1       7.371   3.537  -1.190  0.00  0.00    +0.163 A 
ATOM      3  N   UNL     1       6.156   3.024  -1.163  0.00  0.00    -0.229 NA
ATOM      4  C   UNL     1       5.510   2.858  -0.024  0.00  0.00    +0.061 A 
ATOM      5  C   UNL     1       6.121   3.232   1.125  0.00  0.00    +0.072 A 
ATOM      6  S   UNL     1       7.683   3.828   0.493  0.00  0.00    -0.060 S 
ATOM      7  H   UNL     1       7.850   3.652  -3.182  0.00  0.00    +0.154 HD
ENDROOT
BRANCH   1  11
ATOM      8  C   UNL     1      12.109   5.077  -1.702  0.00  0.00    +0.120 A 
ATOM      9  C   UNL     1      11.525   4.207  -0.793  0.00  0.00    +0.047 A 
ATOM     10  C   UNL     1      10.226   3.778  -0.985  0.00  0.00    +0.027 A 
ATOM     11  C   UNL     1       9.505   4.217  -2.087  0.00  0.00    +0.033 A 
ATOM     12  C   UNL     1      10.093   5.084  -3.000  0.00  0.00    +0.027 A 
ATOM     13  C   UNL     1      11.390   5.517  -2.804  0.00  0.00    +0.047 A 
BRANCH   8  15
ATOM     14  C   UNL     1      13.926   6.395  -2.489  0.00  0.00    +0.277 C 
ATOM     15  O   UNL     1      13.388   5.500  -1.514  0.00  0.00    -0.495 OA
ENDBRANCH   8  15
ENDBRANCH   1  11
BRANCH   4  16
ATOM     16  C   UNL     1       4.122   2.271  -0.004  0.00  0.00    +0.133 C 
BRANCH  16  17
ATOM     17  S   UNL     1       4.231   0.471   0.153  0.00  0.00    -0.078 S 
BRANCH  17  18
ATOM     18  C   UNL     1       2.518   0.059   0.151  0.00  0.00    +0.209 A 
ATOM     19  N   UNL     1       1.514   0.902   0.058  0.00  0.00    -0.121 NA
ATOM     20  N   UNL     1       0.398   0.267   0.089  0.00  0.00    -0.126 NA
ATOM     21  C   UNL     1       0.619  -1.024   0.204  0.00  0.00    +0.188 A 
ATOM     22  N   UNL     1       1.985  -1.196   0.247  0.00  0.00    -0.223 N 
BRANCH  21  23
ATOM     23  C   UNL     1      -0.399  -2.084   0.272  0.00  0.00    +0.058 A 
ATOM     24  C   UNL     1      -1.736  -2.021  -0.033  0.00  0.00    +0.019 A 
ATOM     25  C   UNL     1      -2.500  -3.157   0.107  0.00  0.00    +0.008 A 
ATOM     26  C   UNL     1      -1.914  -4.299   0.551  0.00  0.00    +0.046 A 
ATOM     27  S   UNL     1      -0.220  -3.786   0.782  0.00  0.00    -0.093 S 
ENDBRANCH  21  23
BRANCH  22  28
ATOM     28  N   UNL     1       2.666  -2.375   0.363  0.00  0.00    -0.295 N 
ATOM     29  H   UNL     1       2.865  -2.768  -0.544  0.00  0.00    +0.163 HD
ATOM     30  H   UNL     1       3.512  -2.253   0.899  0.00  0.00    +0.163 HD
ENDBRANCH  22  28
ENDBRANCH  17  18
ENDBRANCH  16  17
ENDBRANCH   4  16
TORSDOF 7
