REMARK  Name = ZINC10315584
REMARK  7 active torsions:
REMARK  status: ('A' for Active; 'I' for Inactive)
REMARK    1  A    between atoms: C_1  and  C_2
REMARK    2  A    between atoms: C_3  and  C_20
REMARK    3  A    between atoms: N_10  and  C_11
REMARK    4  A    between atoms: C_11  and  C_12
REMARK    5  A    between atoms: C_20  and  N_52
REMARK    6  A    between atoms: C_21  and  C_22
REMARK    7  A    between atoms: C_21  and  N_52
REMARK                            x       y       z     vdW  Elec       q    Type
REMARK                         _______ _______ _______ _____ _____    ______ ____
ROOT
ATOM      1  C   UNL     1       3.332   4.672  -0.024  0.00  0.00    +0.064 C 
ATOM      2  C   UNL     1       2.697   3.306   0.001  0.00  0.00    +0.018 A 
ATOM      3  C   UNL     1       1.379   3.070   0.098  0.00  0.00    -0.036 A 
ATOM      4  C   UNL     1       1.202   1.616   0.085  0.00  0.00    +0.001 A 
ATOM      5  C   UNL     1       0.091   0.773   0.156  0.00  0.00    +0.010 A 
ATOM      6  C   UNL     1       0.264  -0.581   0.118  0.00  0.00    +0.001 A 
ATOM      7  C   UNL     1       1.536  -1.127   0.010  0.00  0.00    +0.002 A 
ATOM      8  C   UNL     1       2.646  -0.314  -0.061  0.00  0.00    +0.026 A 
ATOM      9  C   UNL     1       2.493   1.069  -0.025  0.00  0.00    +0.050 A 
ATOM     10  N   UNL     1       3.378   2.122  -0.074  0.00  0.00    -0.339 N 
ENDROOT
BRANCH  10  11
ATOM     11  C   UNL     1       4.833   1.994  -0.188  0.00  0.00    +0.158 C 
BRANCH  11  12
ATOM     12  C   UNL     1       5.211   1.827  -1.637  0.00  0.00    -0.009 A 
ATOM     13  C   UNL     1       5.136   0.581  -2.232  0.00  0.00    +0.008 A 
ATOM     14  C   UNL     1       5.477   0.428  -3.562  0.00  0.00    +0.020 A 
ATOM     15  C   UNL     1       5.904   1.520  -4.297  0.00  0.00    +0.042 A 
ATOM     16  C   UNL     1       5.984   2.766  -3.702  0.00  0.00    +0.040 A 
ATOM     17  C   UNL     1       5.637   2.919  -2.371  0.00  0.00    +0.047 A 
ATOM     18 CL   UNL     1       5.737   4.482  -1.622  0.00  0.00    -0.083 Cl
ATOM     19 CL   UNL     1       6.339   1.327  -5.967  0.00  0.00    -0.083 Cl
ENDBRANCH  11  12
ENDBRANCH  10  11
BRANCH   3  20
ATOM     20  C   UNL     1       0.289   4.105   0.201  0.00  0.00    -0.044 C 
BRANCH  20  21
ATOM     21  N   UNL     1      -0.168   4.463  -1.155  0.00  0.00    +0.384 N 
ATOM     22  H   UNL     1      -0.528   3.623  -1.624  0.00  0.00    -0.085 HD
ATOM     23  H   UNL     1       0.622   4.841  -1.690  0.00  0.00    -0.085 HD
BRANCH  21  24
ATOM     24  C   UNL     1      -1.238   5.476  -1.085  0.00  0.00    -0.046 C 
BRANCH  24  25
ATOM     25  C   UNL     1      -1.684   5.821  -2.482  0.00  0.00    -0.061 A 
ATOM     26  C   UNL     1      -1.070   6.854  -3.167  0.00  0.00    +0.005 A 
ATOM     27  C   UNL     1      -1.472   7.170  -4.452  0.00  0.00    +0.050 A 
ATOM     28  C   UNL     1      -2.500   6.461  -5.051  0.00  0.00    +0.166 A 
ATOM     29  C   UNL     1      -3.122   5.425  -4.359  0.00  0.00    +0.166 A 
ATOM     30  C   UNL     1      -2.710   5.109  -3.075  0.00  0.00    +0.051 A 
ATOM     31  O   UNL     1      -4.092   4.888  -5.156  0.00  0.00    -0.453 OA
ATOM     32  C   UNL     1      -4.332   5.869  -6.183  0.00  0.00    +0.466 C 
ATOM     33  O   UNL     1      -3.080   6.574  -6.282  0.00  0.00    -0.453 OA
ENDBRANCH  24  25
ENDBRANCH  21  24
ENDBRANCH  20  21
ENDBRANCH   3  20
TORSDOF 6
