REMARK  Name = ZINC13116083
REMARK  8 active torsions:
REMARK  status: ('A' for Active; 'I' for Inactive)
REMARK    1  A    between atoms: C_1  and  C_2
REMARK    2  A    between atoms: C_2  and  C_27
REMARK    3  A    between atoms: C_6  and  N_18
REMARK    4  A    between atoms: C_10  and  N_17
REMARK    5  A    between atoms: C_11  and  C_13
REMARK    6  A    between atoms: C_13  and  O_15
REMARK    7  A    between atoms: O_15  and  C_16
REMARK    8  A    between atoms: N_25  and  C_26
REMARK                            x       y       z     vdW  Elec       q    Type
REMARK                         _______ _______ _______ _____ _____    ______ ____
ROOT
ATOM      1  C   UNL     1       0.322   0.709   0.242  0.00  0.00    +0.028 C 
ATOM      2  C   UNL     1       0.068  -0.799   0.192  0.00  0.00    +0.020 C 
ATOM      3  C   UNL     1      -1.438  -1.066   0.158  0.00  0.00    +0.058 C 
ATOM      4  C   UNL     1      -2.050  -0.721   1.489  0.00  0.00    -0.027 A 
ATOM      5  C   UNL     1      -1.305  -0.567   2.612  0.00  0.00    +0.009 A 
ATOM      6  C   UNL     1      -1.930  -0.253   3.828  0.00  0.00    +0.104 A 
ATOM      7  N   UNL     1      -3.242  -0.101   3.892  0.00  0.00    -0.337 N 
ATOM      8  C   UNL     1      -3.998  -0.240   2.823  0.00  0.00    +0.089 A 
ATOM      9  C   UNL     1      -3.461  -0.556   1.556  0.00  0.00    +0.031 A 
ATOM     10  C   UNL     1      -4.436  -0.671   0.483  0.00  0.00    +0.055 A 
ATOM     11  C   UNL     1      -5.767  -0.468   0.784  0.00  0.00    +0.119 A 
ATOM     12  S   UNL     1      -5.744  -0.114   2.531  0.00  0.00    -0.062 S 
ATOM     13  C   UNL     1       0.194  -0.717   2.598  0.00  0.00    +0.123 C 
ATOM     14  N   UNL     1       0.626  -1.436   1.395  0.00  0.00    -0.296 NA
ATOM     15  C   UNL     1       2.092  -1.506   1.321  0.00  0.00    +0.105 C 
ATOM     16  C   UNL     1       0.725  -1.390  -1.057  0.00  0.00    +0.028 C 
ATOM     17  H   UNL     1      -3.656   0.116   4.742  0.00  0.00    +0.168 HD
ENDROOT
BRANCH   6  18
ATOM     18  N   UNL     1      -1.164  -0.100   4.974  0.00  0.00    -0.316 N 
ATOM     19  C   UNL     1      -0.574   1.203   5.311  0.00  0.00    +0.106 C 
ATOM     20  C   UNL     1      -0.988   1.576   6.738  0.00  0.00    +0.019 C 
ATOM     21  C   UNL     1      -0.599   0.444   7.691  0.00  0.00    +0.003 C 
ATOM     22  C   UNL     1      -1.337  -0.836   7.294  0.00  0.00    +0.019 C 
ATOM     23  C   UNL     1      -0.932  -1.236   5.876  0.00  0.00    +0.106 C 
ENDBRANCH   6  18
BRANCH  10  24
ATOM     24  N   UNL     1      -4.038  -0.977  -0.810  0.00  0.00    -0.356 N 
ATOM     25  H   UNL     1      -3.216  -1.470  -0.960  0.00  0.00    +0.142 HD
ATOM     26  H   UNL     1      -4.581  -0.698  -1.563  0.00  0.00    +0.142 HD
ENDBRANCH  10  24
BRANCH  11  27
ATOM     27  C   UNL     1      -6.880  -0.526  -0.083  0.00  0.00    +0.348 C 
ATOM     28  O   UNL     1      -6.720  -0.784  -1.262  0.00  0.00    -0.244 OA
BRANCH  27  29
ATOM     29  O   UNL     1      -8.121  -0.296   0.395  0.00  0.00    -0.464 OA
ATOM     30  C   UNL     1      -9.201  -0.372  -0.538  0.00  0.00    +0.280 C 
ENDBRANCH  27  29
ENDBRANCH  11  27
TORSDOF 4
