REMARK  Name = ZINC00523087
REMARK  4 active torsions:
REMARK  status: ('A' for Active; 'I' for Inactive)
REMARK    1  A    between atoms: C_1  and  C_2
REMARK    2  A    between atoms: N_15  and  C_16
REMARK    3  A    between atoms: C_16  and  C_17
REMARK    4  A    between atoms: C_17  and  O_18
REMARK                            x       y       z     vdW  Elec       q    Type
REMARK                         _______ _______ _______ _____ _____    ______ ____
ROOT
ATOM      1  C   UNL     1      -0.019   1.526   0.010  0.00  0.00    +0.030 C 
ATOM      2  C   UNL     1       0.002  -0.004   0.002  0.00  0.00    +0.093 C 
ATOM      3  C   UNL     1      -1.428  -0.561   0.092  0.00  0.00    +0.150 C 
ATOM      4  N   UNL     1      -1.445  -1.340   1.342  0.00  0.00    -0.279 N 
ATOM      5  C   UNL     1      -2.457  -2.038   1.900  0.00  0.00    +0.264 A 
ATOM      6  O   UNL     1      -3.547  -2.084   1.356  0.00  0.00    -0.267 OA
ATOM      7  C   UNL     1      -2.238  -2.724   3.134  0.00  0.00    +0.076 A 
ATOM      8  C   UNL     1      -3.192  -3.535   3.907  0.00  0.00    -0.023 A 
ATOM      9  C   UNL     1      -2.741  -4.080   5.048  0.00  0.00    -0.004 A 
ATOM     10  S   UNL     1      -1.044  -3.563   5.165  0.00  0.00    -0.073 S 
ATOM     11  C   UNL     1      -0.949  -2.608   3.674  0.00  0.00    +0.117 A 
ATOM     12  N   UNL     1       0.003  -1.905   3.076  0.00  0.00    -0.208 NA
ATOM     13  C   UNL     1      -0.219  -1.274   1.930  0.00  0.00    +0.202 A 
ATOM     14  N   UNL     1       0.671  -0.514   1.203  0.00  0.00    -0.294 N 
ATOM     15  C   UNL     1      -3.802  -4.881   5.755  0.00  0.00    +0.043 C 
ATOM     16  C   UNL     1      -5.129  -4.414   5.116  0.00  0.00    +0.010 C 
ATOM     17  C   UNL     1      -4.658  -3.941   3.727  0.00  0.00    +0.037 C 
ENDROOT
BRANCH  14  18
ATOM     18  C   UNL     1       2.065  -0.255   1.571  0.00  0.00    +0.136 C 
BRANCH  18  19
ATOM     19  C   UNL     1       2.140   1.012   2.426  0.00  0.00    +0.174 C 
BRANCH  19  20
ATOM     20  O   UNL     1       1.458   0.792   3.663  0.00  0.00    -0.393 OA
ATOM     21  H   UNL     1       1.465   1.555   4.256  0.00  0.00    +0.209 HD
ENDBRANCH  19  20
ENDBRANCH  18  19
ENDBRANCH  14  18
TORSDOF 3
