REMARK  Name = ZINC38811056
REMARK  6 active torsions:
REMARK  status: ('A' for Active; 'I' for Inactive)
REMARK    1  A    between atoms: C_1  and  C_2
REMARK    2  A    between atoms: C_2  and  C_4
REMARK    3  A    between atoms: C_2  and  N_16
REMARK    4  A    between atoms: N_6  and  N_7
REMARK    5  A    between atoms: C_8  and  C_9
REMARK    6  A    between atoms: N_16  and  C_17
REMARK                            x       y       z     vdW  Elec       q    Type
REMARK                         _______ _______ _______ _____ _____    ______ ____
ROOT
ATOM      1  C   UNL     1      -0.019   1.526   0.010  0.00  0.00    +0.034 C 
ATOM      2  C   UNL     1       0.002  -0.004   0.002  0.00  0.00    +0.141 C 
ENDROOT
BRANCH   2   3
ATOM      3  C   UNL     1       0.731  -0.503   1.223  0.00  0.00    +0.249 C 
ATOM      4  O   UNL     1       0.159  -1.213   2.023  0.00  0.00    -0.272 OA
ATOM      5  N   UNL     1       2.019  -0.161   1.426  0.00  0.00    -0.206 N 
ATOM      6  H   UNL     1       2.476   0.406   0.786  0.00  0.00    +0.177 HD
BRANCH   5   7
ATOM      7  N   UNL     1       2.696  -0.625   2.561  0.00  0.00    -0.188 NA
ATOM      8  C   UNL     1       3.936  -0.296   2.756  0.00  0.00    +0.139 C 
BRANCH   8   9
ATOM      9  C   UNL     1       4.649  -0.785   3.951  0.00  0.00    +0.008 A 
ATOM     10  C   UNL     1       5.983  -0.428   4.167  0.00  0.00    +0.010 A 
ATOM     11  C   UNL     1       6.643  -0.888   5.287  0.00  0.00    +0.001 A 
ATOM     12  C   UNL     1       5.989  -1.703   6.195  0.00  0.00    +0.001 A 
ATOM     13  C   UNL     1       4.670  -2.061   5.987  0.00  0.00    +0.015 A 
ATOM     14  C   UNL     1       3.993  -1.602   4.875  0.00  0.00    +0.022 A 
ATOM     15  I   UNL     1       1.992  -2.138   4.567  0.00  0.00    -0.043 I 
ENDBRANCH   8   9
ENDBRANCH   5   7
ENDBRANCH   2   3
BRANCH   2  16
ATOM     16  N   UNL     1      -1.376  -0.512   0.012  0.00  0.00    -0.276 NA
ATOM     17  H   UNL     1      -1.426  -1.413   0.464  0.00  0.00    +0.125 HD
BRANCH  16  18
ATOM     18  C   UNL     1      -1.924  -0.575  -1.349  0.00  0.00    +0.280 C 
ATOM     19  C   UNL     1      -3.296   0.074  -1.333  0.00  0.00    +0.261 C 
ATOM     20  O   UNL     1      -3.455   1.222  -0.979  0.00  0.00    -0.271 OA
ATOM     21  N   UNL     1      -4.333  -0.699  -1.737  0.00  0.00    -0.234 N 
ATOM     22  C   UNL     1      -4.113  -1.966  -2.122  0.00  0.00    +0.347 C 
ATOM     23  O   UNL     1      -5.067  -2.628  -2.477  0.00  0.00    -0.249 OA
ATOM     24  N   UNL     1      -2.909  -2.544  -2.138  0.00  0.00    -0.065 NA
ATOM     25  N   UNL     1      -1.865  -1.976  -1.800  0.00  0.00    -0.165 NA
ATOM     26  H   UNL     1      -5.233  -0.337  -1.748  0.00  0.00    +0.159 HD
ENDBRANCH  16  18
ENDBRANCH   2  16
TORSDOF 5
