REMARK  Name = ZINC26917438
REMARK  3 active torsions:
REMARK  status: ('A' for Active; 'I' for Inactive)
REMARK    1  A    between atoms: N_11  and  C_15
REMARK    2  A    between atoms: C_15  and  C_16
REMARK    3  A    between atoms: N_18  and  C_19
REMARK                            x       y       z     vdW  Elec       q    Type
REMARK                         _______ _______ _______ _____ _____    ______ ____
ROOT
ATOM      1  C   UNL     1       1.142   7.433   0.246  0.00  0.00    +0.227 C 
ENDROOT
BRANCH   1  12
ATOM      2  C   UNL     1       3.880   7.834   3.833  0.00  0.00    +0.002 A 
ATOM      3  C   UNL     1       5.140   8.317   3.636  0.00  0.00    +0.009 A 
ATOM      4  C   UNL     1       5.535   8.670   2.335  0.00  0.00    -0.014 A 
ATOM      5  C   UNL     1       6.809   9.176   2.028  0.00  0.00    +0.009 A 
ATOM      6  C   UNL     1       7.118   9.497   0.739  0.00  0.00    +0.003 A 
ATOM      7  C   UNL     1       6.187   9.332  -0.295  0.00  0.00    +0.029 A 
ATOM      8  C   UNL     1       4.961   8.849  -0.023  0.00  0.00    +0.118 A 
ATOM      9  C   UNL     1       4.605   8.508   1.287  0.00  0.00    +0.031 A 
ATOM     10  C   UNL     1       3.316   8.019   1.488  0.00  0.00    +0.061 A 
ATOM     11  C   UNL     1       2.972   7.677   2.794  0.00  0.00    +0.025 A 
ATOM     12  N   UNL     1       2.523   7.915   0.333  0.00  0.00    -0.194 N 
ATOM     13  S   UNL     1       3.486   8.466  -0.924  0.00  0.00    +0.076 S 
ATOM     14  O   UNL     1       3.769   7.361  -1.770  0.00  0.00    -0.150 OA
ATOM     15  O   UNL     1       2.934   9.690  -1.390  0.00  0.00    -0.150 OA
ENDBRANCH   1  12
BRANCH   1  16
ATOM     16  C   UNL     1       1.141   5.931   0.124  0.00  0.00    +0.236 C 
ATOM     17  O   UNL     1       2.190   5.323   0.112  0.00  0.00    -0.274 OA
ATOM     18  N   UNL     1      -0.026   5.264   0.030  0.00  0.00    -0.282 N 
ATOM     19  H   UNL     1      -0.972   5.819  -0.051  0.00  0.00    +0.155 HD
BRANCH  18  20
ATOM     20  C   UNL     1      -0.034   3.864   0.033  0.00  0.00    +0.059 A 
ATOM     21  C   UNL     1       1.002   3.164   0.625  0.00  0.00    +0.025 A 
ATOM     22  C   UNL     1       1.000   1.776   0.633  0.00  0.00    +0.003 A 
ATOM     23  C   UNL     1      -0.020   1.076   0.058  0.00  0.00    +0.011 A 
ATOM     24  C   UNL     1      -1.081   1.759  -0.553  0.00  0.00    +0.021 A 
ATOM     25  C   UNL     1      -1.089   3.165  -0.560  0.00  0.00    +0.087 A 
ATOM     26  N   UNL     1      -2.234   3.548  -1.212  0.00  0.00    -0.275 N 
ATOM     27  H   UNL     1      -2.459   4.616  -1.346  0.00  0.00    +0.189 HD
ATOM     28  N   UNL     1      -2.923   2.391  -1.595  0.00  0.00    -0.181 NA
ATOM     29  C   UNL     1      -2.261   1.337  -1.213  0.00  0.00    +0.142 A 
ENDBRANCH  18  20
ENDBRANCH   1  16
TORSDOF 3
