REMARK  Name = ZINC36378877
REMARK  11 active torsions:
REMARK  status: ('A' for Active; 'I' for Inactive)
REMARK    1  A    between atoms: C_1  and  C_2
REMARK    2  A    between atoms: C_2  and  C_3
REMARK    3  A    between atoms: C_2  and  C_4
REMARK    4  A    between atoms: C_9  and  O_10
REMARK    5  A    between atoms: C_11  and  C_28
REMARK    6  A    between atoms: C_13  and  O_27
REMARK    7  A    between atoms: C_16  and  C_21
REMARK    8  A    between atoms: C_16  and  C_22
REMARK    9  A    between atoms: C_22  and  O_23
REMARK   10  A    between atoms: O_23  and  C_24
REMARK   11  A    between atoms: C_24  and  C_26
REMARK                            x       y       z     vdW  Elec       q    Type
REMARK                         _______ _______ _______ _____ _____    ______ ____
ROOT
ATOM      1  C   UNL     1       0.671  -0.771  -1.110  0.00  0.00    -0.003 A 
ATOM      2  C   UNL     1       0.206  -0.460  -2.369  0.00  0.00    +0.011 A 
ATOM      3  C   UNL     1       0.850  -0.943  -3.502  0.00  0.00    -0.043 A 
ATOM      4  C   UNL     1       1.962  -1.743  -3.362  0.00  0.00    -0.034 A 
ATOM      5  C   UNL     1       2.437  -2.054  -2.097  0.00  0.00    +0.050 A 
ATOM      6  C   UNL     1       1.798  -1.567  -0.969  0.00  0.00    +0.121 A 
ATOM      7  C   UNL     1       2.697  -2.320  -4.549  0.00  0.00    -0.001 C 
ATOM      8  C   UNL     1       2.255  -3.775  -4.729  0.00  0.00    +0.043 C 
ATOM      9  C   UNL     1       2.939  -4.378  -5.957  0.00  0.00    +0.116 C 
ATOM     10  C   UNL     1       2.533  -3.582  -7.200  0.00  0.00    +0.041 C 
ATOM     11  C   UNL     1       2.997  -2.134  -7.039  0.00  0.00    +0.008 C 
ATOM     12  C   UNL     1       2.361  -1.515  -5.801  0.00  0.00    +0.009 C 
ATOM     13  C   UNL     1       0.840  -1.452  -5.948  0.00  0.00    +0.009 C 
ATOM     14  C   UNL     1       0.289  -0.550  -4.844  0.00  0.00    +0.036 C 
ATOM     15  C   UNL     1       4.520  -2.102  -6.897  0.00  0.00    +0.015 C 
ATOM     16  C   UNL     1       4.205  -2.264  -4.294  0.00  0.00    +0.016 C 
ENDROOT
BRANCH   1  18
ATOM     17  C   UNL     1      -0.038   1.286   0.079  0.00  0.00    +0.012 C 
ATOM     18  C   UNL     1      -0.039  -0.243   0.110  0.00  0.00    +0.016 C 
ATOM     19  C   UNL     1      -1.482  -0.752   0.120  0.00  0.00    +0.012 C 
ENDBRANCH   1  18
BRANCH   6  20
ATOM     20  O   UNL     1       2.269  -1.872   0.269  0.00  0.00    -0.506 OA
ATOM     21  H   UNL     1       1.894  -2.681   0.644  0.00  0.00    +0.292 HD
ENDBRANCH   6  20
BRANCH   9  22
ATOM     22  O   UNL     1       2.535  -5.740  -6.107  0.00  0.00    -0.392 OA
ATOM     23  H   UNL     1       2.932  -6.186  -6.867  0.00  0.00    +0.210 HD
ENDBRANCH   9  22
BRANCH  11  24
ATOM     24  C   UNL     1       2.588  -1.330  -8.275  0.00  0.00    +0.239 C 
BRANCH  24  25
ATOM     25  O   UNL     1       3.195  -1.899  -9.436  0.00  0.00    -0.464 OA
BRANCH  25  26
ATOM     26  C   UNL     1       2.936  -1.307 -10.612  0.00  0.00    +0.304 C 
ATOM     27  O   UNL     1       2.216  -0.337 -10.655  0.00  0.00    -0.251 OA
ATOM     28  C   UNL     1       3.541  -1.852 -11.880  0.00  0.00    +0.136 C 
ENDBRANCH  25  26
ENDBRANCH  24  25
ENDBRANCH  11  24
TORSDOF 6
