REMARK  Name = ZINC36014193
REMARK  11 active torsions:
REMARK  status: ('A' for Active; 'I' for Inactive)
REMARK    1  A    between atoms: C_1  and  C_2
REMARK    2  A    between atoms: C_2  and  C_3
REMARK    3  A    between atoms: C_2  and  C_4
REMARK    4  A    between atoms: C_4  and  N_5
REMARK    5  A    between atoms: C_8  and  C_24
REMARK    6  A    between atoms: N_19  and  C_20
REMARK    7  A    between atoms: C_20  and  C_21
REMARK    8  A    between atoms: C_20  and  C_22
REMARK    9  A    between atoms: C_20  and  C_23
REMARK   10  A    between atoms: C_24  and  C_25
REMARK   11  A    between atoms: C_24  and  C_26
REMARK                            x       y       z     vdW  Elec       q    Type
REMARK                         _______ _______ _______ _____ _____    ______ ____
ROOT
ATOM      1  N   UNL     1       2.159  -0.209  -1.212  0.00  0.00    -0.313 N 
ATOM      2  C   UNL     1       2.738   0.933  -1.636  0.00  0.00    +0.201 C 
ATOM      3  O   UNL     1       2.159   1.889  -2.109  0.00  0.00    -0.277 OA
ATOM      4  C   UNL     1       4.232   0.822  -1.423  0.00  0.00    +0.022 C 
ATOM      5  N   UNL     1       4.479  -0.627  -1.226  0.00  0.00    +0.401 N 
ATOM      6  C   UNL     1       3.187  -1.116  -0.695  0.00  0.00    +0.006 C 
ATOM      7  C   UNL     1       2.933  -2.539  -1.189  0.00  0.00    +0.025 C 
ATOM      8  C   UNL     1       1.575  -3.023  -0.671  0.00  0.00    +0.109 C 
ATOM      9  N   UNL     1       1.544  -2.867   0.790  0.00  0.00    -0.286 N 
ATOM     10  C   UNL     1       1.849  -1.551   1.367  0.00  0.00    +0.109 C 
ATOM     11  C   UNL     1       3.205  -1.080   0.832  0.00  0.00    +0.025 C 
ATOM     12  C   UNL     1       1.242  -3.912   1.585  0.00  0.00    +0.303 C 
ATOM     13  O   UNL     1       1.084  -5.017   1.103  0.00  0.00    -0.253 OA
ATOM     14  N   UNL     1       1.117  -3.733   2.915  0.00  0.00    -0.294 N 
ATOM     15  H   UNL     1       4.700  -1.074  -2.103  0.00  0.00    -0.082 HD
ATOM     16  H   UNL     1       1.313  -2.869   3.309  0.00  0.00    +0.151 HD
ATOM     17  H   UNL     1       5.217  -0.775  -0.553  0.00  0.00    -0.082 HD
ENDROOT
BRANCH  14  18
ATOM     18  C   UNL     1       0.684  -4.844   3.766  0.00  0.00    +0.028 C 
ATOM     19  C   UNL     1       1.678  -6.000   3.642  0.00  0.00    +0.031 C 
ATOM     20  C   UNL     1       0.624  -4.378   5.222  0.00  0.00    +0.031 C 
ATOM     21  C   UNL     1      -0.703  -5.315   3.324  0.00  0.00    +0.031 C 
ENDBRANCH  14  18
BRANCH   4  22
ATOM     22  C   UNL     1       4.986   1.330  -2.654  0.00  0.00    -0.023 C 
ATOM     23  C   UNL     1       4.654   2.806  -2.881  0.00  0.00    +0.006 C 
ATOM     24  C   UNL     1       6.491   1.174  -2.430  0.00  0.00    +0.006 C 
ENDBRANCH   4  22
BRANCH   1  25
ATOM     25  C   UNL     1       0.723  -0.495  -1.254  0.00  0.00    +0.109 C 
BRANCH  25  27
ATOM     26  C   UNL     1       1.265  -1.901  -3.248  0.00  0.00    +0.009 C 
ATOM     27  C   UNL     1       0.314  -0.841  -2.688  0.00  0.00    +0.000 C 
ATOM     28  C   UNL     1      -1.116  -1.384  -2.693  0.00  0.00    +0.009 C 
ENDBRANCH  25  27
ENDBRANCH   1  25
TORSDOF 4
