REMARK  Name = ZINC60722786
REMARK  5 active torsions:
REMARK  status: ('A' for Active; 'I' for Inactive)
REMARK    1  A    between atoms: C_1  and  C_2
REMARK    2  A    between atoms: C_4  and  C_8
REMARK    3  A    between atoms: C_13  and  N_14
REMARK    4  A    between atoms: C_15  and  C_17
REMARK    5  A    between atoms: C_18  and  C_19
REMARK                            x       y       z     vdW  Elec       q    Type
REMARK                         _______ _______ _______ _____ _____    ______ ____
ROOT
ATOM      1  N   UNL     1      -0.171  -1.665  -3.457  0.00  0.00    -0.281 N 
ATOM      2  C   UNL     1      -0.377  -1.429  -4.768  0.00  0.00    +0.241 C 
ATOM      3  O   UNL     1      -0.558  -2.359  -5.532  0.00  0.00    -0.270 OA
ATOM      4  H   UNL     1      -0.093  -0.923  -2.837  0.00  0.00    +0.155 HD
ENDROOT
BRANCH   1  10
ATOM      5  C   UNL     1       0.746  -3.272  -1.891  0.00  0.00    +0.040 A 
ATOM      6  C   UNL     1       0.834  -4.585  -1.431  0.00  0.00    +0.013 A 
ATOM      7  C   UNL     1       0.124  -5.585  -2.063  0.00  0.00    +0.001 A 
ATOM      8  C   UNL     1      -0.677  -5.291  -3.154  0.00  0.00    +0.002 A 
ATOM      9  C   UNL     1      -0.773  -3.995  -3.620  0.00  0.00    +0.024 A 
ATOM     10  C   UNL     1      -0.071  -2.976  -2.991  0.00  0.00    +0.044 A 
BRANCH   5  14
ATOM     11  C   UNL     1       2.685   1.210  -0.884  0.00  0.00    +0.090 C 
ATOM     12  C   UNL     1       2.354  -0.255  -0.768  0.00  0.00    +0.148 A 
ATOM     13  N   UNL     1       1.588  -0.941  -1.613  0.00  0.00    -0.212 NA
ATOM     14  C   UNL     1       1.504  -2.196  -1.218  0.00  0.00    +0.158 A 
ATOM     15  N   UNL     1       2.236  -2.324  -0.087  0.00  0.00    -0.258 N 
ATOM     16  H   UNL     1       2.364  -3.131   0.435  0.00  0.00    +0.191 HD
ATOM     17  N   UNL     1       2.777  -1.055   0.176  0.00  0.00    -0.157 NA
ENDBRANCH   5  14
ENDBRANCH   1  10
BRANCH   2  18
ATOM     18  C   UNL     1      -0.383  -0.052  -5.273  0.00  0.00    +0.069 C 
ATOM     19  C   UNL     1      -0.588   0.183  -6.583  0.00  0.00    +0.033 C 
BRANCH  19  20
ATOM     20  C   UNL     1      -0.594   1.567  -7.091  0.00  0.00    +0.065 A 
ATOM     21  C   UNL     1      -0.816   1.796  -8.461  0.00  0.00    +0.028 A 
ATOM     22  C   UNL     1      -0.824   3.071  -8.942  0.00  0.00    +0.012 A 
ATOM     23  C   UNL     1      -0.607   4.128  -8.037  0.00  0.00    +0.001 A 
ATOM     24  C   UNL     1      -0.603   5.465  -8.466  0.00  0.00    +0.011 A 
ATOM     25  C   UNL     1      -0.390   6.462  -7.564  0.00  0.00    +0.021 A 
ATOM     26  C   UNL     1      -0.174   6.175  -6.216  0.00  0.00    +0.043 A 
ATOM     27  C   UNL     1      -0.171   4.890  -5.764  0.00  0.00    +0.048 A 
ATOM     28  C   UNL     1      -0.388   3.832  -6.666  0.00  0.00    +0.073 A 
ATOM     29  N   UNL     1      -0.396   2.566  -6.248  0.00  0.00    -0.247 NA
ATOM     30 CL   UNL     1       0.094   7.474  -5.097  0.00  0.00    -0.083 Cl
ENDBRANCH  19  20
ENDBRANCH   2  18
TORSDOF 4
