REMARK  Name = ZINC04965596
REMARK  4 active torsions:
REMARK  status: ('A' for Active; 'I' for Inactive)
REMARK    1  A    between atoms: C_1  and  C_2
REMARK    2  A    between atoms: C_8  and  N_10
REMARK    3  A    between atoms: C_11  and  C_13
REMARK    4  A    between atoms: N_22  and  C_23
REMARK                            x       y       z     vdW  Elec       q    Type
REMARK                         _______ _______ _______ _____ _____    ______ ____
ROOT
ATOM      1  C   UNL     1       0.198   1.632   5.287  0.00  0.00    +0.092 C 
ATOM      2  C   UNL     1       1.121   1.043   6.356  0.00  0.00    +0.016 C 
ATOM      3  C   UNL     1       0.379   0.980   7.694  0.00  0.00    +0.020 C 
ATOM      4  C   UNL     1      -0.844   0.067   7.552  0.00  0.00    +0.109 C 
ATOM      5  N   UNL     1      -1.663   0.544   6.429  0.00  0.00    -0.285 N 
ATOM      6  C   UNL     1      -1.026   0.727   5.118  0.00  0.00    +0.122 C 
ATOM      7  C   UNL     1      -2.973   0.807   6.599  0.00  0.00    +0.306 C 
ATOM      8  O   UNL     1      -3.618   1.295   5.691  0.00  0.00    -0.252 OA
ATOM      9  N   UNL     1      -3.570   0.531   7.776  0.00  0.00    -0.269 N 
ATOM     10  H   UNL     1      -3.037   0.246   8.535  0.00  0.00    +0.156 HD
ENDROOT
BRANCH   9  11
ATOM     11  C   UNL     1      -4.959   0.654   7.903  0.00  0.00    +0.035 A 
ATOM     12  C   UNL     1      -5.782   0.391   6.817  0.00  0.00    +0.026 A 
ATOM     13  C   UNL     1      -7.153   0.507   6.946  0.00  0.00    +0.040 A 
ATOM     14  C   UNL     1      -7.705   0.897   8.154  0.00  0.00    +0.124 A 
ATOM     15  C   UNL     1      -6.885   1.166   9.237  0.00  0.00    +0.040 A 
ATOM     16  C   UNL     1      -5.514   1.045   9.114  0.00  0.00    +0.026 A 
ATOM     17  F   UNL     1      -9.045   1.015   8.277  0.00  0.00    -0.205 F 
ENDBRANCH   9  11
BRANCH   1  19
ATOM     18  N   UNL     1       0.321   2.214   2.886  0.00  0.00    -0.312 N 
ATOM     19  C   UNL     1       0.940   1.724   3.978  0.00  0.00    +0.218 C 
ATOM     20  O   UNL     1       2.094   1.357   3.908  0.00  0.00    -0.275 OA
ATOM     21  H   UNL     1      -0.601   2.508   2.942  0.00  0.00    +0.149 HD
BRANCH  18  28
ATOM     22  C   UNL     1       0.505   4.740   1.480  0.00  0.00    +0.009 C 
ATOM     23  C   UNL     1       0.416   3.399   0.748  0.00  0.00    +0.006 C 
ATOM     24  C   UNL     1      -1.051   3.060   0.480  0.00  0.00    +0.005 C 
ATOM     25  C   UNL     1      -1.140   1.719  -0.252  0.00  0.00    +0.000 C 
ATOM     26  C   UNL     1      -0.514   0.624   0.614  0.00  0.00    +0.002 C 
ATOM     27  C   UNL     1       0.954   0.963   0.882  0.00  0.00    +0.022 C 
ATOM     28  C   UNL     1       1.042   2.304   1.614  0.00  0.00    +0.076 C 
ENDBRANCH  18  28
ENDBRANCH   1  19
TORSDOF 3
