REMARK  Name = ZINC58076060
REMARK  7 active torsions:
REMARK  status: ('A' for Active; 'I' for Inactive)
REMARK    1  A    between atoms: C_1  and  C_2
REMARK    2  A    between atoms: C_2  and  C_4
REMARK    3  A    between atoms: C_2  and  N_15
REMARK    4  A    between atoms: N_6  and  C_7
REMARK    5  A    between atoms: C_7  and  C_13
REMARK    6  A    between atoms: C_18  and  C_21
REMARK    7  A    between atoms: N_23  and  C_24
REMARK                            x       y       z     vdW  Elec       q    Type
REMARK                         _______ _______ _______ _____ _____    ______ ____
ROOT
ATOM      1  N   UNL     1       0.944  -1.393  -1.056  0.00  0.00    +0.387 N 
ATOM      2  C   UNL     1       2.255  -0.732  -1.044  0.00  0.00    -0.077 C 
ATOM      3  C   UNL     1       3.243  -1.536  -1.892  0.00  0.00    -0.006 C 
ATOM      4  C   UNL     1       3.375  -2.946  -1.311  0.00  0.00    +0.072 C 
ATOM      5  C   UNL     1       1.991  -3.599  -1.259  0.00  0.00    -0.006 C 
ATOM      6  C   UNL     1       1.049  -2.718  -0.434  0.00  0.00    -0.077 C 
ATOM      7  H   UNL     1       0.628  -1.493  -2.009  0.00  0.00    -0.081 HD
ENDROOT
BRANCH   4   8
ATOM      8  C   UNL     1       4.287  -3.768  -2.187  0.00  0.00    +0.220 C 
ATOM      9  O   UNL     1       4.782  -3.275  -3.178  0.00  0.00    -0.275 OA
ATOM     10  N   UNL     1       4.551  -5.050  -1.868  0.00  0.00    -0.285 N 
ATOM     11  H   UNL     1       4.101  -5.466  -1.116  0.00  0.00    +0.155 HD
BRANCH  10  12
ATOM     12  C   UNL     1       5.476  -5.782  -2.621  0.00  0.00    +0.033 A 
ATOM     13  C   UNL     1       5.291  -7.144  -2.818  0.00  0.00    +0.023 A 
ATOM     14  C   UNL     1       6.205  -7.864  -3.562  0.00  0.00    +0.002 A 
ATOM     15  C   UNL     1       7.305  -7.229  -4.110  0.00  0.00    +0.000 A 
ATOM     16  C   UNL     1       7.492  -5.873  -3.915  0.00  0.00    +0.002 A 
ATOM     17  C   UNL     1       6.578  -5.146  -3.178  0.00  0.00    +0.023 A 
ENDBRANCH  10  12
ENDBRANCH   4   8
BRANCH   1  19
ATOM     18  C   UNL     1      -0.167   0.788  -0.979  0.00  0.00    -0.004 C 
ATOM     19  C   UNL     1      -0.021  -0.577  -0.305  0.00  0.00    +0.016 C 
BRANCH  19  20
ATOM     20  C   UNL     1      -1.357  -1.273  -0.283  0.00  0.00    +0.200 C 
ATOM     21  O   UNL     1      -1.673  -2.007  -1.195  0.00  0.00    -0.278 OA
ATOM     22  N   UNL     1      -2.201  -1.079   0.749  0.00  0.00    -0.299 N 
ATOM     23  H   UNL     1      -1.948  -0.491   1.479  0.00  0.00    +0.150 HD
BRANCH  22  24
ATOM     24  C   UNL     1      -3.501  -1.755   0.770  0.00  0.00    +0.121 C 
ATOM     25  C   UNL     1      -4.314  -1.335  -0.456  0.00  0.00    +0.041 C 
ATOM     26  C   UNL     1      -5.671  -2.042  -0.434  0.00  0.00    +0.003 C 
ATOM     27  C   UNL     1      -6.428  -1.653   0.838  0.00  0.00    +0.000 C 
ATOM     28  C   UNL     1      -5.614  -2.073   2.064  0.00  0.00    +0.003 C 
ATOM     29  C   UNL     1      -4.257  -1.367   2.042  0.00  0.00    +0.041 C 
BRANCH  24  30
ATOM     30  C   UNL     1      -3.295  -3.213   0.748  0.00  0.00    +0.088 C 
ATOM     31  N   UNL     1      -3.137  -4.338   0.730  0.00  0.00    -0.194 NA
ENDBRANCH  24  30
ENDBRANCH  22  24
ENDBRANCH  19  20
ENDBRANCH   1  19
TORSDOF 6
