REMARK  Name = ZINC49378765
REMARK  7 active torsions:
REMARK  status: ('A' for Active; 'I' for Inactive)
REMARK    1  A    between atoms: C_1  and  C_2
REMARK    2  A    between atoms: C_4  and  C_8
REMARK    3  A    between atoms: N_10  and  C_11
REMARK    4  A    between atoms: C_11  and  C_12
REMARK    5  A    between atoms: C_12  and  C_14
REMARK    6  A    between atoms: C_12  and  N_15
REMARK    7  A    between atoms: C_18  and  C_21
REMARK                            x       y       z     vdW  Elec       q    Type
REMARK                         _______ _______ _______ _____ _____    ______ ____
ROOT
ATOM      1  C   UNL     1       0.553  -3.474   1.558  0.00  0.00    +0.265 C 
ATOM      2  O   UNL     1       0.695  -3.511   2.765  0.00  0.00    -0.268 OA
ATOM      3  N   UNL     1       0.280  -4.605   0.877  0.00  0.00    -0.312 N 
ATOM      4  H   UNL     1       0.167  -4.575  -0.086  0.00  0.00    +0.149 HD
ENDROOT
BRANCH   1   8
ATOM      5  C   UNL     1       1.240   1.427   0.463  0.00  0.00    +0.066 C 
ATOM      6  C   UNL     1       0.981  -0.055   0.378  0.00  0.00    +0.048 A 
ATOM      7  C   UNL     1       0.962  -0.929   1.413  0.00  0.00    +0.070 A 
ATOM      8  C   UNL     1       0.680  -2.191   0.839  0.00  0.00    +0.161 A 
ATOM      9  N   UNL     1       0.551  -2.005  -0.460  0.00  0.00    -0.168 NA
ATOM     10  H   UNL     1       0.666  -0.389  -1.641  0.00  0.00    +0.189 HD
ATOM     11  N   UNL     1       0.718  -0.764  -0.748  0.00  0.00    -0.280 N 
ATOM     12 BR   UNL     1       1.251  -0.543   3.242  0.00  0.00    -0.046 Br
ENDBRANCH   1   8
BRANCH   3  13
ATOM     13  C   UNL     1       0.154  -5.878   1.591  0.00  0.00    +0.089 C 
BRANCH  13  14
ATOM     14  C   UNL     1      -0.023  -7.014   0.581  0.00  0.00    -0.054 C 
ATOM     15  C   UNL     1      -0.063  -8.352   1.321  0.00  0.00    -0.012 C 
BRANCH  14  16
ATOM     16  N   UNL     1       1.103  -7.009  -0.363  0.00  0.00    +0.382 N 
ATOM     17  C   UNL     1       0.862  -8.005  -1.414  0.00  0.00    -0.078 C 
ATOM     18  C   UNL     1       1.992  -7.948  -2.444  0.00  0.00    -0.016 C 
ATOM     19  C   UNL     1       3.324  -8.248  -1.750  0.00  0.00    -0.018 C 
ATOM     20  C   UNL     1       3.529  -7.249  -0.608  0.00  0.00    -0.016 C 
ATOM     21  C   UNL     1       2.342  -7.331   0.354  0.00  0.00    -0.078 C 
ATOM     22  C   UNL     1       4.468  -8.115  -2.758  0.00  0.00    +0.007 C 
ATOM     23  H   UNL     1       1.186  -6.095  -0.782  0.00  0.00    -0.081 HD
ENDBRANCH  14  16
ENDBRANCH  13  14
ENDBRANCH   3  13
TORSDOF 4
