REMARK  Name = ZINC50024256
REMARK  7 active torsions:
REMARK  status: ('A' for Active; 'I' for Inactive)
REMARK    1  A    between atoms: C_1  and  C_2
REMARK    2  A    between atoms: N_8  and  C_9
REMARK    3  A    between atoms: C_12  and  C_15
REMARK    4  A    between atoms: N_17  and  C_18
REMARK    5  A    between atoms: C_18  and  C_19
REMARK    6  A    between atoms: C_19  and  C_20
REMARK    7  A    between atoms: C_19  and  N_25
REMARK                            x       y       z     vdW  Elec       q    Type
REMARK                         _______ _______ _______ _____ _____    ______ ____
ROOT
ATOM      1  C   UNL     1      -0.910   0.121   6.631  0.00  0.00    +0.244 C 
ATOM      2  O   UNL     1      -1.336   1.210   6.963  0.00  0.00    -0.270 OA
ATOM      3  N   UNL     1      -0.427  -0.726   7.562  0.00  0.00    -0.312 N 
ATOM      4  H   UNL     1      -0.087  -1.595   7.298  0.00  0.00    +0.149 HD
ENDROOT
BRANCH   1   8
ATOM      5  C   UNL     1      -0.943  -1.017   2.540  0.00  0.00    +0.051 A 
ATOM      6  C   UNL     1      -1.432   0.230   2.917  0.00  0.00    +0.027 A 
ATOM      7  C   UNL     1      -1.423   0.602   4.243  0.00  0.00    +0.015 A 
ATOM      8  C   UNL     1      -0.922  -0.275   5.209  0.00  0.00    +0.037 A 
ATOM      9  C   UNL     1      -0.432  -1.526   4.826  0.00  0.00    +0.015 A 
ATOM     10  C   UNL     1      -0.449  -1.894   3.500  0.00  0.00    +0.027 A 
BRANCH   5  18
ATOM     11  C   UNL     1       1.474  -0.730   0.625  0.00  0.00    +0.065 C 
ATOM     12  C   UNL     1       0.107  -1.278   0.307  0.00  0.00    +0.041 A 
ATOM     13  C   UNL     1      -0.294  -1.743  -0.871  0.00  0.00    +0.109 A 
ATOM     14  N   UNL     1      -1.614  -2.150  -0.742  0.00  0.00    -0.312 N 
ATOM     15  H   UNL     1      -2.163  -2.532  -1.445  0.00  0.00    +0.170 HD
ATOM     16  C   UNL     1      -1.999  -1.922   0.528  0.00  0.00    +0.331 A 
ATOM     17  O   UNL     1      -3.098  -2.159   0.996  0.00  0.00    -0.246 OA
ATOM     18  N   UNL     1      -0.955  -1.391   1.194  0.00  0.00    -0.266 N 
ENDBRANCH   5  18
ENDBRANCH   1   8
BRANCH   3  19
ATOM     19  C   UNL     1      -0.415  -0.333   8.974  0.00  0.00    +0.097 C 
BRANCH  19  20
ATOM     20  C   UNL     1       0.167  -1.471   9.815  0.00  0.00    +0.016 C 
BRANCH  20  21
ATOM     21  N   UNL     1      -0.623  -2.691   9.601  0.00  0.00    +0.387 N 
ATOM     22  C   UNL     1      -2.036  -2.414   9.886  0.00  0.00    -0.078 C 
ATOM     23  C   UNL     1      -2.874  -3.658   9.587  0.00  0.00    -0.019 C 
ATOM     24  C   UNL     1      -2.393  -4.815  10.468  0.00  0.00    -0.004 C 
ATOM     25  C   UNL     1      -0.900  -5.047  10.217  0.00  0.00    -0.019 C 
ATOM     26  C   UNL     1      -0.135  -3.751  10.492  0.00  0.00    -0.078 C 
ATOM     27  H   UNL     1      -0.527  -2.989   8.642  0.00  0.00    -0.081 HD
ENDBRANCH  20  21
BRANCH  20  28
ATOM     28  C   UNL     1       0.122  -1.092  11.273  0.00  0.00    +0.093 A 
ATOM     29  C   UNL     1       1.179  -0.739  12.026  0.00  0.00    +0.043 A 
ATOM     30  C   UNL     1       0.684  -0.468  13.323  0.00  0.00    +0.041 A 
ATOM     31  C   UNL     1      -0.645  -0.672  13.284  0.00  0.00    +0.195 A 
ATOM     32  O   UNL     1      -0.981  -1.045  12.038  0.00  0.00    -0.469 OA
ENDBRANCH  20  28
ENDBRANCH  19  20
ENDBRANCH   3  19
TORSDOF 6
