REMARK  Name = ZINC05450998
REMARK  8 active torsions:
REMARK  status: ('A' for Active; 'I' for Inactive)
REMARK    1  A    between atoms: C_1  and  C_2
REMARK    2  A    between atoms: C_6  and  O_29
REMARK    3  A    between atoms: C_7  and  O_27
REMARK    4  A    between atoms: C_12  and  C_13
REMARK    5  A    between atoms: C_12  and  N_56
REMARK    6  A    between atoms: N_19  and  C_20
REMARK    7  A    between atoms: O_27  and  C_28
REMARK    8  A    between atoms: O_29  and  C_30
REMARK                            x       y       z     vdW  Elec       q    Type
REMARK                         _______ _______ _______ _____ _____    ______ ____
ROOT
ATOM      1  C   UNL     1      -2.252  -4.220   0.417  0.00  0.00    -0.000 C 
ENDROOT
BRANCH   1  12
ATOM      2  C   UNL     1      -3.848  -6.567  -0.211  0.00  0.00    -0.008 C 
ATOM      3  C   UNL     1      -2.498  -6.259  -0.861  0.00  0.00    -0.040 C 
ATOM      4  C   UNL     1      -2.462  -6.859  -2.242  0.00  0.00    -0.054 A 
ATOM      5  C   UNL     1      -2.976  -8.136  -2.418  0.00  0.00    +0.051 A 
ATOM      6  C   UNL     1      -2.957  -8.733  -3.666  0.00  0.00    +0.162 A 
ATOM      7  C   UNL     1      -2.419  -8.047  -4.751  0.00  0.00    +0.162 A 
ATOM      8  C   UNL     1      -1.910  -6.773  -4.571  0.00  0.00    +0.053 A 
ATOM      9  C   UNL     1      -1.933  -6.179  -3.318  0.00  0.00    -0.044 A 
ATOM     10  C   UNL     1      -1.370  -4.788  -3.174  0.00  0.00    +0.017 C 
ATOM     11  C   UNL     1      -1.102  -4.482  -1.700  0.00  0.00    -0.073 C 
ATOM     12  N   UNL     1      -2.331  -4.798  -0.942  0.00  0.00    +0.389 N 
ATOM     13  H   UNL     1      -3.139  -4.394  -1.430  0.00  0.00    -0.080 HD
BRANCH   7  14
ATOM     14  O   UNL     1      -2.394  -8.625  -5.981  0.00  0.00    -0.491 OA
ATOM     15  C   UNL     1      -1.827  -7.860  -7.046  0.00  0.00    +0.277 C 
ENDBRANCH   7  14
BRANCH   6  16
ATOM     16  O   UNL     1      -3.462  -9.985  -3.832  0.00  0.00    -0.491 OA
ATOM     17  C   UNL     1      -3.998 -10.627  -2.674  0.00  0.00    +0.277 C 
ENDBRANCH   6  16
ENDBRANCH   1  12
BRANCH   1  18
ATOM     18  C   UNL     1      -2.284  -2.717   0.313  0.00  0.00    +0.120 A 
ATOM     19  N   UNL     1      -3.442  -2.080   0.328  0.00  0.00    -0.202 NA
ATOM     20  C   UNL     1      -3.475  -0.752   0.236  0.00  0.00    +0.217 A 
ATOM     21  N   UNL     1      -2.341  -0.068   0.129  0.00  0.00    -0.181 NA
ATOM     22  C   UNL     1      -1.179  -0.712   0.114  0.00  0.00    +0.224 A 
ATOM     23  N   UNL     1      -1.155  -2.040   0.201  0.00  0.00    -0.201 NA
ATOM     24  N   UNL     1       0.002  -0.004   0.002  0.00  0.00    -0.284 N 
ATOM     25  N   UNL     1      -4.684  -0.088   0.251  0.00  0.00    -0.327 N 
ATOM     26  H   UNL     1       0.852  -0.466   0.073  0.00  0.00    +0.155 HD
ATOM     27  H   UNL     1      -4.707   0.879   0.184  0.00  0.00    +0.145 HD
ATOM     28  H   UNL     1      -5.511  -0.589   0.330  0.00  0.00    +0.145 HD
BRANCH  24  29
ATOM     29  C   UNL     1      -0.028   1.377  -0.214  0.00  0.00    +0.034 A 
ATOM     30  C   UNL     1      -1.000   1.932  -1.037  0.00  0.00    +0.023 A 
ATOM     31  C   UNL     1      -1.029   3.297  -1.244  0.00  0.00    +0.002 A 
ATOM     32  C   UNL     1      -0.086   4.110  -0.642  0.00  0.00    +0.000 A 
ATOM     33  C   UNL     1       0.885   3.560   0.174  0.00  0.00    +0.002 A 
ATOM     34  C   UNL     1       0.917   2.197   0.390  0.00  0.00    +0.023 A 
ENDBRANCH  24  29
ENDBRANCH   1  18
TORSDOF 5
