REMARK  Name = ZINC22783762
REMARK  8 active torsions:
REMARK  status: ('A' for Active; 'I' for Inactive)
REMARK    1  A    between atoms: C_3  and  C_6
REMARK    2  A    between atoms: C_15  and  C_17
REMARK    3  A    between atoms: C_17  and  N_18
REMARK    4  A    between atoms: N_21  and  C_24
REMARK    5  A    between atoms: C_24  and  C_25
REMARK    6  A    between atoms: N_27  and  C_28
REMARK    7  A    between atoms: C_28  and  C_29
REMARK    8  A    between atoms: C_29  and  C_30
REMARK                            x       y       z     vdW  Elec       q    Type
REMARK                         _______ _______ _______ _____ _____    ______ ____
ROOT
ATOM      1  N   UNL     1       9.174   0.952   3.034  0.00  0.00    +0.386 N 
ATOM      2  C   UNL     1       9.577   0.576   1.673  0.00  0.00    -0.063 C 
ATOM      3  C   UNL     1      10.811   1.385   1.265  0.00  0.00    +0.066 C 
ATOM      4  N   UNL     1      11.904   1.117   2.209  0.00  0.00    -0.298 NA
ATOM      5  C   UNL     1      11.506   1.464   3.581  0.00  0.00    +0.066 C 
ATOM      6  C   UNL     1      10.267   0.655   3.970  0.00  0.00    -0.063 C 
ATOM      7  H   UNL     1       8.966   1.939   3.063  0.00  0.00    -0.081 HD
ENDROOT
BRANCH   1   8
ATOM      8  C   UNL     1       7.979   0.188   3.419  0.00  0.00    -0.003 C 
BRANCH   8  18
ATOM      9  C   UNL     1       3.740   1.823  -0.024  0.00  0.00    +0.010 A 
ATOM     10  C   UNL     1       4.131   2.771  -0.913  0.00  0.00    +0.057 A 
ATOM     11  S   UNL     1       5.853   3.017  -0.524  0.00  0.00    -0.076 S 
ATOM     12  C   UNL     1       6.008   1.855   0.808  0.00  0.00    +0.116 A 
ATOM     13  C   UNL     1       4.720   1.307   0.925  0.00  0.00    +0.080 A 
ATOM     14  C   UNL     1       4.556   0.323   1.951  0.00  0.00    +0.260 A 
ATOM     15  O   UNL     1       3.476  -0.213   2.127  0.00  0.00    -0.267 OA
ATOM     16  N   UNL     1       5.613  -0.002   2.718  0.00  0.00    -0.312 N 
ATOM     17  H   UNL     1       5.508  -0.669   3.415  0.00  0.00    +0.170 HD
ATOM     18  C   UNL     1       6.824   0.584   2.536  0.00  0.00    +0.094 A 
ATOM     19  N   UNL     1       7.008   1.479   1.602  0.00  0.00    -0.229 NA
BRANCH   9  22
ATOM     20  C   UNL     1      -0.016   1.353   0.009  0.00  0.00    +0.008 A 
ATOM     21  C   UNL     1       1.179   2.041   0.002  0.00  0.00    +0.016 A 
ATOM     22  C   UNL     1       2.348   1.328  -0.013  0.00  0.00    +0.021 A 
ATOM     23  S   UNL     1       1.752  -0.355  -0.017  0.00  0.00    -0.097 S 
ATOM     24  C   UNL     1       0.002  -0.004   0.002  0.00  0.00    +0.046 A 
ENDBRANCH   9  22
ENDBRANCH   8  18
ENDBRANCH   1   8
BRANCH   4  25
ATOM     25  C   UNL     1      13.126   1.833   1.818  0.00  0.00    +0.180 C 
BRANCH  25  26
ATOM     26  C   UNL     1      14.281   1.348   2.655  0.00  0.00    +0.227 C 
ATOM     27  O   UNL     1      14.105   0.491   3.495  0.00  0.00    -0.274 OA
ATOM     28  N   UNL     1      15.511   1.867   2.471  0.00  0.00    -0.314 N 
ATOM     29  H   UNL     1      15.653   2.553   1.799  0.00  0.00    +0.149 HD
BRANCH  28  30
ATOM     30  C   UNL     1      16.635   1.396   3.284  0.00  0.00    +0.108 C 
BRANCH  30  31
ATOM     31  C   UNL     1      17.907   2.142   2.877  0.00  0.00    +0.049 C 
BRANCH  31  32
ATOM     32  C   UNL     1      19.063   1.657   3.714  0.00  0.00    -0.072 C 
ATOM     33  C   UNL     1      19.816   0.724   3.226  0.00  0.00    -0.028 C 
ATOM     34  C   UNL     1      20.995   0.134   3.944  0.00  0.00    +0.027 C 
ATOM     35  C   UNL     1      21.426   1.050   5.092  0.00  0.00    +0.004 C 
ATOM     36  C   UNL     1      20.184   1.410   5.918  0.00  0.00    +0.005 C 
ATOM     37  C   UNL     1      19.273   2.291   5.058  0.00  0.00    +0.030 C 
ENDBRANCH  31  32
ENDBRANCH  30  31
ENDBRANCH  28  30
ENDBRANCH  25  26
ENDBRANCH   4  25
TORSDOF 8
