REMARK  Name = ZINC19456149
REMARK  9 active torsions:
REMARK  status: ('A' for Active; 'I' for Inactive)
REMARK    1  A    between atoms: C_1  and  C_2
REMARK    2  A    between atoms: C_2  and  C_4
REMARK    3  A    between atoms: C_2  and  N_12
REMARK    4  A    between atoms: C_4  and  N_5
REMARK    5  A    between atoms: C_13  and  C_15
REMARK    6  A    between atoms: C_22  and  O_27
REMARK    7  A    between atoms: C_24  and  O_25
REMARK    8  A    between atoms: O_25  and  C_26
REMARK    9  A    between atoms: O_27  and  C_28
REMARK                            x       y       z     vdW  Elec       q    Type
REMARK                         _______ _______ _______ _____ _____    ______ ____
ROOT
ATOM      1  N   UNL     1      -4.508   4.033   1.067  0.00  0.00    -0.309 N 
ATOM      2  C   UNL     1      -4.482   5.084   1.911  0.00  0.00    +0.261 C 
ATOM      3  O   UNL     1      -4.606   6.215   1.478  0.00  0.00    -0.269 OA
ATOM      4  H   UNL     1      -4.396   3.011   1.459  0.00  0.00    +0.149 HD
ENDROOT
BRANCH   2   5
ATOM      5  C   UNL     1      -4.305   4.865   3.351  0.00  0.00    +0.103 A 
ATOM      6  C   UNL     1      -4.263   5.840   4.298  0.00  0.00    +0.044 A 
ATOM      7  C   UNL     1      -4.080   5.216   5.553  0.00  0.00    +0.042 A 
ATOM      8  C   UNL     1      -4.015   3.828   5.319  0.00  0.00    +0.054 A 
ATOM      9  N   UNL     1      -4.160   3.632   3.965  0.00  0.00    -0.350 N 
ATOM     10  H   UNL     1      -4.176   2.713   3.361  0.00  0.00    +0.166 HD
ATOM     11  C   UNL     1      -3.837   2.958   6.388  0.00  0.00    +0.072 A 
ATOM     12  C   UNL     1      -3.726   3.455   7.674  0.00  0.00    +0.126 A 
ATOM     13  C   UNL     1      -3.789   4.826   7.912  0.00  0.00    +0.092 A 
ATOM     14  C   UNL     1      -3.965   5.707   6.866  0.00  0.00    +0.133 A 
BRANCH  14  15
ATOM     15  O   UNL     1      -4.026   7.043   7.102  0.00  0.00    -0.494 OA
ATOM     16  C   UNL     1      -3.902   7.468   8.461  0.00  0.00    +0.277 C 
ENDBRANCH  14  15
BRANCH  12  17
ATOM     17  O   UNL     1      -3.553   2.599   8.714  0.00  0.00    -0.495 OA
ATOM     18  C   UNL     1      -3.445   3.175  10.018  0.00  0.00    +0.277 C 
ENDBRANCH  12  17
ENDBRANCH   2   5
BRANCH   1  20
ATOM     19  C   UNL     1      -6.178   4.358  -0.690  0.00  0.00    +0.026 C 
ATOM     20  C   UNL     1      -4.685   4.252  -0.370  0.00  0.00    +0.054 C 
BRANCH  20  21
ATOM     21  C   UNL     1      -4.080   3.078  -1.143  0.00  0.00    -0.057 C 
BRANCH  21  22
ATOM     22  N   UNL     1      -2.671   2.916  -0.762  0.00  0.00    +0.381 N 
ATOM     23  C   UNL     1      -1.867   4.074  -1.201  0.00  0.00    -0.079 C 
ATOM     24  C   UNL     1      -0.723   4.241  -0.233  0.00  0.00    -0.019 C 
ATOM     25  C   UNL     1       0.552   3.543  -0.737  0.00  0.00    -0.002 C 
ATOM     26  C   UNL     1       0.244   2.172  -1.371  0.00  0.00    -0.002 C 
ATOM     27  C   UNL     1      -0.779   1.388  -0.590  0.00  0.00    -0.019 C 
ATOM     28  C   UNL     1      -2.181   1.673  -1.174  0.00  0.00    -0.079 C 
ATOM     29  H   UNL     1      -2.568   2.847   0.331  0.00  0.00    -0.082 HD
ENDBRANCH  21  22
ENDBRANCH  20  21
ENDBRANCH   1  20
TORSDOF 6
