REMARK  Name = ZINC63204349
REMARK  6 active torsions:
REMARK  status: ('A' for Active; 'I' for Inactive)
REMARK    1  A    between atoms: C_4  and  C_7
REMARK    2  A    between atoms: C_13  and  C_15
REMARK    3  A    between atoms: C_15  and  C_17
REMARK    4  A    between atoms: C_15  and  N_27
REMARK    5  A    between atoms: C_17  and  C_18
REMARK    6  A    between atoms: C_28  and  C_30
REMARK                            x       y       z     vdW  Elec       q    Type
REMARK                         _______ _______ _______ _____ _____    ______ ____
ROOT
ATOM      1  C   UNL     1       7.063  -3.620   1.533  0.00  0.00    +0.163 C 
ENDROOT
BRANCH   1   8
ATOM      2  C   UNL     1       4.288  -0.041  -0.186  0.00  0.00    -0.041 C 
ATOM      3  C   UNL     1       4.868  -0.135   0.986  0.00  0.00    -0.004 C 
ATOM      4  C   UNL     1       6.122  -0.927   1.229  0.00  0.00    +0.135 C 
ATOM      5  N   UNL     1       6.406  -1.754   0.048  0.00  0.00    -0.296 N 
ATOM      6  C   UNL     1       6.248  -1.123  -1.274  0.00  0.00    +0.113 C 
ATOM      7  C   UNL     1       4.777  -0.723  -1.429  0.00  0.00    +0.054 C 
ATOM      8  C   UNL     1       6.797  -3.038   0.169  0.00  0.00    +0.236 C 
ATOM      9  O   UNL     1       6.934  -3.726  -0.821  0.00  0.00    -0.274 OA
BRANCH   2  13
ATOM     10  C   UNL     1       0.782   2.338  -0.480  0.00  0.00    +0.000 A 
ATOM     11  C   UNL     1       1.994   2.932  -0.175  0.00  0.00    +0.001 A 
ATOM     12  C   UNL     1       3.137   2.165  -0.078  0.00  0.00    +0.008 A 
ATOM     13  C   UNL     1       3.068   0.787  -0.288  0.00  0.00    -0.022 A 
ATOM     14  C   UNL     1       1.843   0.194  -0.595  0.00  0.00    +0.008 A 
ATOM     15  C   UNL     1       0.707   0.973  -0.689  0.00  0.00    +0.001 A 
ENDBRANCH   2  13
ENDBRANCH   1   8
BRANCH   1  16
ATOM     16  N   UNL     1       7.826  -4.863   1.395  0.00  0.00    -0.300 N 
ATOM     17  C   UNL     1       8.922  -5.069   2.152  0.00  0.00    +0.246 C 
ATOM     18  O   UNL     1       9.277  -4.224   2.950  0.00  0.00    -0.270 OA
ATOM     19  H   UNL     1       7.543  -5.537   0.757  0.00  0.00    +0.150 HD
BRANCH  17  20
ATOM     20  C   UNL     1       9.691  -6.322   2.011  0.00  0.00    +0.055 A 
ATOM     21  C   UNL     1       9.290  -7.293   1.091  0.00  0.00    +0.014 A 
ATOM     22  C   UNL     1      10.013  -8.460   0.965  0.00  0.00    +0.001 A 
ATOM     23  C   UNL     1      11.135  -8.672   1.748  0.00  0.00    +0.001 A 
ATOM     24  C   UNL     1      11.539  -7.716   2.662  0.00  0.00    +0.021 A 
ATOM     25  C   UNL     1      10.828  -6.540   2.795  0.00  0.00    +0.053 A 
ATOM     26 CL   UNL     1      11.341  -5.337   3.937  0.00  0.00    -0.083 Cl
ENDBRANCH  17  20
ENDBRANCH   1  16
BRANCH   1  27
ATOM     27  C   UNL     1       5.733  -3.913   2.231  0.00  0.00    +0.065 C 
BRANCH  27  28
ATOM     28  C   UNL     1       5.996  -4.375   3.641  0.00  0.00    -0.039 C 
ATOM     29  C   UNL     1       6.006  -3.613   4.758  0.00  0.00    -0.001 A 
ATOM     30  C   UNL     1       5.784  -2.180   4.986  0.00  0.00    +0.010 A 
ATOM     31  C   UNL     1       5.862  -1.696   6.246  0.00  0.00    +0.001 A 
ATOM     32  C   UNL     1       6.149  -2.527   7.338  0.00  0.00    +0.002 A 
ATOM     33  C   UNL     1       6.365  -3.853   7.208  0.00  0.00    +0.026 A 
ATOM     34  C   UNL     1       6.307  -4.469   5.928  0.00  0.00    +0.043 A 
ATOM     35  N   UNL     1       6.477  -5.712   5.548  0.00  0.00    -0.380 N 
ATOM     36  C   UNL     1       6.297  -5.787   4.094  0.00  0.00    +0.144 C 
ATOM     37  H   UNL     1       6.684  -6.459   6.132  0.00  0.00    +0.160 HD
ENDBRANCH  27  28
ENDBRANCH   1  27
TORSDOF 6
