REMARK  Name = ZINC36366607
REMARK  1 active torsions:
REMARK  status: ('A' for Active; 'I' for Inactive)
REMARK    1  A    between atoms: C_9  and  N_14
REMARK                            x       y       z     vdW  Elec       q    Type
REMARK                         _______ _______ _______ _____ _____    ______ ____
ROOT
ATOM      1  C   UNL     1      -0.017   1.371   0.010  0.00  0.00    +0.000 A 
ATOM      2  C   UNL     1       1.179   2.068   0.002  0.00  0.00    +0.002 A 
ATOM      3  C   UNL     1       2.365   1.376  -0.017  0.00  0.00    +0.023 A 
ATOM      4  C   UNL     1       2.396  -0.029  -0.024  0.00  0.00    +0.037 A 
ATOM      5  C   UNL     1       1.202  -0.717  -0.011  0.00  0.00    -0.026 A 
ATOM      6  C   UNL     1       0.002  -0.004   0.002  0.00  0.00    +0.005 A 
ATOM      7  C   UNL     1       1.065  -2.205  -0.003  0.00  0.00    +0.039 C 
ATOM      8  C   UNL     1       2.104  -2.950   0.776  0.00  0.00    +0.039 C 
ATOM      9  C   UNL     1       3.426  -3.066   0.057  0.00  0.00    +0.178 C 
ATOM     10  C   UNL     1       4.164  -1.776   0.040  0.00  0.00    +0.240 C 
ATOM     11  O   UNL     1       5.372  -1.843   0.129  0.00  0.00    -0.273 OA
ATOM     12  N   UNL     1       3.656  -0.580  -0.060  0.00  0.00    -0.284 N 
ATOM     13  H   UNL     1       4.340   0.093  -0.196  0.00  0.00    +0.155 HD
ENDROOT
BRANCH   9  14
ATOM     14  N   UNL     1       4.248  -4.074   0.731  0.00  0.00    -0.287 N 
ATOM     15  C   UNL     1       4.582  -3.908   2.038  0.00  0.00    +0.203 A 
ATOM     16  N   UNL     1       5.306  -4.755   2.704  0.00  0.00    -0.237 NA
ATOM     17  C   UNL     1       5.787  -5.885   2.129  0.00  0.00    +0.078 A 
ATOM     18  C   UNL     1       6.566  -6.797   2.845  0.00  0.00    +0.028 A 
ATOM     19  C   UNL     1       7.033  -7.931   2.221  0.00  0.00    +0.002 A 
ATOM     20  C   UNL     1       6.740  -8.182   0.886  0.00  0.00    +0.001 A 
ATOM     21  C   UNL     1       5.974  -7.297   0.159  0.00  0.00    +0.015 A 
ATOM     22  C   UNL     1       5.491  -6.143   0.772  0.00  0.00    +0.065 A 
ATOM     23  C   UNL     1       4.665  -5.166   0.048  0.00  0.00    +0.262 A 
ATOM     24  O   UNL     1       4.370  -5.330  -1.121  0.00  0.00    -0.267 OA
ENDBRANCH   9  14
TORSDOF 1
