REMARK  Name = ZINC18459711
REMARK  8 active torsions:
REMARK  status: ('A' for Active; 'I' for Inactive)
REMARK    1  A    between atoms: C_1  and  C_2
REMARK    2  A    between atoms: C_2  and  C_4
REMARK    3  A    between atoms: C_2  and  S_19
REMARK    4  A    between atoms: N_6  and  C_7
REMARK    5  A    between atoms: S_19  and  C_20
REMARK    6  A    between atoms: C_23  and  C_31
REMARK    7  A    between atoms: N_24  and  C_25
REMARK    8  A    between atoms: C_31  and  C_32
REMARK                            x       y       z     vdW  Elec       q    Type
REMARK                         _______ _______ _______ _____ _____    ______ ____
ROOT
ATOM      1  C   UNL     1      -0.074   1.661  -0.169  0.00  0.00    +0.029 C 
ATOM      2  C   UNL     1      -0.066   0.144   0.030  0.00  0.00    +0.137 C 
ENDROOT
BRANCH   2   3
ATOM      3  C   UNL     1      -1.482  -0.371   0.024  0.00  0.00    +0.230 C 
ATOM      4  O   UNL     1      -2.075  -0.528   1.071  0.00  0.00    -0.274 OA
ATOM      5  N   UNL     1      -2.090  -0.657  -1.144  0.00  0.00    -0.285 N 
ATOM      6  H   UNL     1      -1.645  -0.460  -1.984  0.00  0.00    +0.155 HD
BRANCH   5   7
ATOM      7  C   UNL     1      -3.365  -1.239  -1.147  0.00  0.00    +0.035 A 
ATOM      8  C   UNL     1      -4.264  -0.934  -2.162  0.00  0.00    +0.025 A 
ATOM      9  C   UNL     1      -5.521  -1.505  -2.170  0.00  0.00    +0.029 A 
ATOM     10  C   UNL     1      -5.889  -2.385  -1.163  0.00  0.00    +0.067 A 
ATOM     11  C   UNL     1      -4.987  -2.693  -0.142  0.00  0.00    +0.069 A 
ATOM     12  C   UNL     1      -3.724  -2.123  -0.140  0.00  0.00    +0.051 A 
ATOM     13  N   UNL     1      -5.631  -3.589   0.708  0.00  0.00    -0.306 N 
ATOM     14  H   UNL     1      -5.253  -3.982   1.509  0.00  0.00    +0.170 HD
ATOM     15  C   UNL     1      -6.868  -3.816   0.227  0.00  0.00    +0.325 A 
ATOM     16  O   UNL     1      -7.693  -4.553   0.734  0.00  0.00    -0.247 OA
ATOM     17  N   UNL     1      -7.054  -3.104  -0.901  0.00  0.00    -0.306 N 
ATOM     18  H   UNL     1      -7.861  -3.094  -1.439  0.00  0.00    +0.170 HD
ENDBRANCH   5   7
ENDBRANCH   2   3
BRANCH   2  19
ATOM     19  S   UNL     1       0.715  -0.254   1.618  0.00  0.00    -0.073 S 
BRANCH  19  20
ATOM     20  C   UNL     1       2.384   0.273   1.416  0.00  0.00    +0.197 A 
ATOM     21  N   UNL     1       2.904   0.828   0.346  0.00  0.00    -0.122 NA
ATOM     22  N   UNL     1       4.147   1.084   0.545  0.00  0.00    -0.133 NA
ATOM     23  C   UNL     1       4.496   0.711   1.744  0.00  0.00    +0.143 A 
ATOM     24  N   UNL     1       3.384   0.185   2.346  0.00  0.00    -0.274 N 
BRANCH  24  25
ATOM     25  C   UNL     1       3.289  -0.336   3.645  0.00  0.00    +0.050 A 
ATOM     26  C   UNL     1       3.463   0.495   4.743  0.00  0.00    +0.026 A 
ATOM     27  C   UNL     1       3.369  -0.021   6.020  0.00  0.00    +0.002 A 
ATOM     28  C   UNL     1       3.103  -1.365   6.206  0.00  0.00    +0.000 A 
ATOM     29  C   UNL     1       2.930  -2.196   5.115  0.00  0.00    +0.002 A 
ATOM     30  C   UNL     1       3.017  -1.684   3.835  0.00  0.00    +0.026 A 
ENDBRANCH  24  25
BRANCH  23  31
ATOM     31  C   UNL     1       5.867   0.840   2.357  0.00  0.00    +0.119 C 
BRANCH  31  32
ATOM     32  C   UNL     1       5.979   2.167   3.061  0.00  0.00    -0.003 A 
ATOM     33  C   UNL     1       5.693   2.477   4.349  0.00  0.00    +0.011 A 
ATOM     34  C   UNL     1       5.876   3.777   4.782  0.00  0.00    +0.008 A 
ATOM     35  C   UNL     1       6.336   4.704   3.906  0.00  0.00    +0.045 A 
ATOM     36  S   UNL     1       6.532   3.738   2.417  0.00  0.00    -0.101 S 
ENDBRANCH  31  32
ENDBRANCH  23  31
ENDBRANCH  19  20
ENDBRANCH   2  19
TORSDOF 7
