REMARK  Name = ZINC01821983
REMARK  9 active torsions:
REMARK  status: ('A' for Active; 'I' for Inactive)
REMARK    1  A    between atoms: C_1  and  C_2
REMARK    2  A    between atoms: C_4  and  C_19
REMARK    3  A    between atoms: C_5  and  C_18
REMARK    4  A    between atoms: N_6  and  C_7
REMARK    5  A    between atoms: C_8  and  C_16
REMARK    6  A    between atoms: C_20  and  C_21
REMARK    7  A    between atoms: C_20  and  C_23
REMARK    8  A    between atoms: N_25  and  C_26
REMARK    9  A    between atoms: C_31  and  C_32
REMARK                            x       y       z     vdW  Elec       q    Type
REMARK                         _______ _______ _______ _____ _____    ______ ____
ROOT
ATOM      1  C   UNL     1       2.663   0.651   1.866  0.00  0.00    +0.064 C 
ATOM      2  C   UNL     1       1.288   0.625   1.250  0.00  0.00    +0.022 A 
ATOM      3  C   UNL     1       0.589   1.703   0.861  0.00  0.00    +0.031 A 
ATOM      4  C   UNL     1      -0.685   1.203   0.323  0.00  0.00    -0.003 A 
ATOM      5  C   UNL     1      -0.631  -0.176   0.442  0.00  0.00    +0.029 A 
ATOM      6  N   UNL     1       0.554  -0.503   0.998  0.00  0.00    -0.310 N 
ATOM      7  C   UNL     1      -1.709  -1.144   0.025  0.00  0.00    +0.064 C 
ENDROOT
BRANCH   6   8
ATOM      8  C   UNL     1       0.970  -1.800   1.276  0.00  0.00    +0.103 A 
ATOM      9  C   UNL     1       2.095  -2.462   0.809  0.00  0.00    +0.086 A 
ATOM     10  C   UNL     1       2.305  -3.827   1.255  0.00  0.00    -0.018 A 
ATOM     11  C   UNL     1       1.361  -4.311   2.093  0.00  0.00    -0.004 A 
ATOM     12  S   UNL     1       0.213  -2.979   2.296  0.00  0.00    -0.074 S 
ATOM     13  C   UNL     1       1.313  -5.675   2.709  0.00  0.00    +0.043 C 
ATOM     14  C   UNL     1       2.299  -6.580   1.956  0.00  0.00    +0.005 C 
ATOM     15  C   UNL     1       3.635  -5.846   1.817  0.00  0.00    +0.005 C 
ATOM     16  C   UNL     1       3.492  -4.684   0.833  0.00  0.00    +0.037 C 
BRANCH   9  17
ATOM     17  C   UNL     1       3.017  -1.822  -0.080  0.00  0.00    +0.102 C 
ATOM     18  N   UNL     1       3.748  -1.314  -0.785  0.00  0.00    -0.191 NA
ENDBRANCH   9  17
ENDBRANCH   6   8
BRANCH   4  19
ATOM     19  C   UNL     1      -1.747   1.973  -0.215  0.00  0.00    +0.033 C 
ATOM     20  C   UNL     1      -1.526   3.282  -0.597  0.00  0.00    +0.114 C 
BRANCH  20  21
ATOM     21  C   UNL     1      -2.654   4.124  -1.017  0.00  0.00    +0.259 C 
ATOM     22  O   UNL     1      -3.782   3.669  -1.029  0.00  0.00    -0.269 OA
ATOM     23  N   UNL     1      -2.439   5.401  -1.390  0.00  0.00    -0.281 N 
ATOM     24  H   UNL     1      -1.533   5.743  -1.449  0.00  0.00    +0.155 HD
BRANCH  23  25
ATOM     25  C   UNL     1      -3.521   6.234  -1.692  0.00  0.00    +0.038 A 
ATOM     26  C   UNL     1      -4.699   5.691  -2.191  0.00  0.00    +0.023 A 
ATOM     27  C   UNL     1      -5.766   6.515  -2.488  0.00  0.00    +0.003 A 
ATOM     28  C   UNL     1      -5.665   7.880  -2.290  0.00  0.00    +0.020 A 
ATOM     29  C   UNL     1      -4.493   8.424  -1.793  0.00  0.00    +0.046 A 
ATOM     30  C   UNL     1      -3.424   7.604  -1.488  0.00  0.00    -0.011 A 
ATOM     31  C   UNL     1      -2.151   8.196  -0.940  0.00  0.00    +0.047 C 
ATOM     32 CL   UNL     1      -4.370  10.138  -1.545  0.00  0.00    -0.083 Cl
ENDBRANCH  23  25
ENDBRANCH  20  21
BRANCH  20  33
ATOM     33  C   UNL     1      -0.198   3.818  -0.583  0.00  0.00    +0.104 C 
ATOM     34  N   UNL     1       0.855   4.243  -0.572  0.00  0.00    -0.191 NA
ENDBRANCH  20  33
ENDBRANCH   4  19
TORSDOF 6
