REMARK  Name = ZINC01444458
REMARK  9 active torsions:
REMARK  status: ('A' for Active; 'I' for Inactive)
REMARK    1  A    between atoms: C_1  and  C_2
REMARK    2  A    between atoms: C_2  and  C_3
REMARK    3  A    between atoms: C_3  and  C_25
REMARK    4  A    between atoms: C_4  and  C_23
REMARK    5  A    between atoms: C_4  and  O_24
REMARK    6  A    between atoms: N_5  and  C_9
REMARK    7  A    between atoms: C_9  and  C_10
REMARK    8  A    between atoms: C_10  and  C_11
REMARK    9  A    between atoms: C_12  and  C_22
REMARK                            x       y       z     vdW  Elec       q    Type
REMARK                         _______ _______ _______ _____ _____    ______ ____
ROOT
ATOM      1  C   UNL     1       0.210  -0.260   2.865  0.00  0.00    +0.119 C 
ENDROOT
BRANCH   1   4
ATOM      2  C   UNL     1      -0.673   3.117   1.354  0.00  0.00    +0.157 C 
ATOM      3  C   UNL     1      -0.729   1.579   1.267  0.00  0.00    +0.175 C 
ATOM      4  N   UNL     1      -0.017   1.134   2.474  0.00  0.00    -0.235 N 
ATOM      5  C   UNL     1       0.391   2.211   3.159  0.00  0.00    +0.406 C 
ATOM      6  O   UNL     1       1.008   2.138   4.204  0.00  0.00    -0.226 OA
ATOM      7  O   UNL     1       0.057   3.374   2.588  0.00  0.00    -0.439 OA
ATOM      8  C   UNL     1      -0.013   1.086   0.008  0.00  0.00    +0.068 C 
ATOM      9  C   UNL     1       0.081   3.695   0.155  0.00  0.00    +0.060 C 
BRANCH   2  11
ATOM     10  C   UNL     1      -2.007   5.229   1.394  0.00  0.00    +0.008 C 
ATOM     11  C   UNL     1      -2.085   3.701   1.434  0.00  0.00    +0.049 C 
ENDBRANCH   2  11
BRANCH   3  12
ATOM     12  O   UNL     1      -2.082   1.121   1.285  0.00  0.00    -0.368 OA
ATOM     13  H   UNL     1      -2.172   0.159   1.265  0.00  0.00    +0.212 HD
ENDBRANCH   3  12
ENDBRANCH   1   4
BRANCH   1  14
ATOM     14  C   UNL     1       1.531  -0.748   2.267  0.00  0.00    +0.056 C 
BRANCH  14  15
ATOM     15  C   UNL     1       1.764  -2.182   2.668  0.00  0.00    -0.018 A 
ATOM     16  C   UNL     1       2.416  -2.609   3.761  0.00  0.00    +0.017 A 
ATOM     17  N   UNL     1       2.426  -3.977   3.793  0.00  0.00    -0.357 N 
ATOM     18  H   UNL     1       2.836  -4.515   4.489  0.00  0.00    +0.166 HD
ATOM     19  C   UNL     1       1.772  -4.476   2.689  0.00  0.00    +0.065 A 
ATOM     20  C   UNL     1       1.329  -3.373   1.936  0.00  0.00    +0.005 A 
ATOM     21  C   UNL     1       0.626  -3.579   0.747  0.00  0.00    +0.010 A 
ATOM     22  C   UNL     1       0.371  -4.852   0.320  0.00  0.00    +0.002 A 
ATOM     23  C   UNL     1       0.806  -5.944   1.059  0.00  0.00    +0.022 A 
ATOM     24  C   UNL     1       1.502  -5.764   2.236  0.00  0.00    +0.065 A 
ATOM     25 CL   UNL     1       2.040  -7.139   3.148  0.00  0.00    -0.081 Cl
ATOM     26  C   UNL     1       3.040  -1.715   4.801  0.00  0.00    +0.063 C 
ENDBRANCH  14  15
ENDBRANCH   1  14
TORSDOF 5
