REMARK  Name = ZINC34890400
REMARK  6 active torsions:
REMARK  status: ('A' for Active; 'I' for Inactive)
REMARK    1  A    between atoms: C_1  and  C_2
REMARK    2  A    between atoms: C_9  and  N_13
REMARK    3  A    between atoms: C_10  and  C_11
REMARK    4  A    between atoms: C_14  and  C_16
REMARK    5  A    between atoms: C_16  and  N_17
REMARK    6  A    between atoms: C_21  and  C_24
REMARK                            x       y       z     vdW  Elec       q    Type
REMARK                         _______ _______ _______ _____ _____    ______ ____
ROOT
ATOM      1  C   UNL     1       2.624  -7.488   3.399  0.00  0.00    +0.019 C 
ENDROOT
BRANCH   1   2
ATOM      2  N   UNL     1       2.916  -7.509   4.839  0.00  0.00    +0.386 N 
ATOM      3  C   UNL     1       4.101  -6.686   5.109  0.00  0.00    -0.078 C 
ATOM      4  C   UNL     1       4.362  -6.639   6.616  0.00  0.00    -0.018 C 
ATOM      5  C   UNL     1       4.597  -8.061   7.132  0.00  0.00    +0.007 C 
ATOM      6  C   UNL     1       3.385  -8.929   6.780  0.00  0.00    +0.040 C 
ATOM      7  C   UNL     1       3.161  -8.891   5.267  0.00  0.00    -0.067 C 
ATOM      8  H   UNL     1       2.127  -7.136   5.346  0.00  0.00    -0.081 HD
BRANCH   6   9
ATOM      9  C   UNL     1       3.639 -10.348   7.217  0.00  0.00    +0.135 A 
ATOM     10  N   UNL     1       4.614 -11.121   6.817  0.00  0.00    -0.134 NA
ATOM     11  N   UNL     1       4.528 -12.265   7.401  0.00  0.00    -0.134 NA
ATOM     12  C   UNL     1       3.500 -12.271   8.201  0.00  0.00    +0.133 A 
ATOM     13  N   UNL     1       2.905 -11.059   8.101  0.00  0.00    -0.315 N 
ATOM     14  C   UNL     1       1.696 -10.622   8.802  0.00  0.00    +0.125 C 
ATOM     15  C   UNL     1       1.579 -11.375  10.130  0.00  0.00    +0.022 C 
ATOM     16  C   UNL     1       0.802 -12.674   9.919  0.00  0.00    +0.002 C 
ATOM     17  C   UNL     1       1.535 -13.581   8.936  0.00  0.00    +0.008 C 
ATOM     18  C   UNL     1       3.043 -13.398   9.090  0.00  0.00    +0.076 C 
ENDBRANCH   6   9
ENDBRANCH   1   2
BRANCH   1  20
ATOM     19  N   UNL     1       1.941  -5.828   1.697  0.00  0.00    -0.281 N 
ATOM     20  C   UNL     1       2.252  -6.088   2.983  0.00  0.00    +0.201 C 
ATOM     21  O   UNL     1       2.232  -5.196   3.804  0.00  0.00    -0.278 OA
ATOM     22  H   UNL     1       1.957  -6.541   1.040  0.00  0.00    +0.155 HD
BRANCH  19  30
ATOM     23  C   UNL     1      -0.019   1.526   0.010  0.00  0.00    +0.008 C 
ATOM     24  C   UNL     1       0.002  -0.004   0.002  0.00  0.00    -0.009 C 
ATOM     25  C   UNL     1       0.724  -0.500  -1.254  0.00  0.00    +0.008 C 
ATOM     26  C   UNL     1       0.537  -2.012  -1.399  0.00  0.00    +0.037 C 
ATOM     27  C   UNL     1       0.935  -2.680  -0.092  0.00  0.00    -0.018 A 
ATOM     28  C   UNL     1       1.019  -1.977   1.059  0.00  0.00    -0.004 A 
ATOM     29  S   UNL     1       1.508  -3.165   2.275  0.00  0.00    -0.077 S 
ATOM     30  C   UNL     1       1.599  -4.539   1.313  0.00  0.00    +0.090 A 
ATOM     31  C   UNL     1       1.254  -4.090   0.049  0.00  0.00    +0.084 A 
ATOM     32  C   UNL     1       0.750  -0.515   1.242  0.00  0.00    +0.046 C 
BRANCH  31  33
ATOM     33  C   UNL     1       1.212  -4.980  -1.072  0.00  0.00    +0.102 C 
ATOM     34  N   UNL     1       1.180  -5.685  -1.962  0.00  0.00    -0.191 NA
ENDBRANCH  31  33
ENDBRANCH  19  30
ENDBRANCH   1  20
TORSDOF 5
