REMARK  Name = ZINC41095438
REMARK  7 active torsions:
REMARK  status: ('A' for Active; 'I' for Inactive)
REMARK    1  A    between atoms: C_1  and  C_2
REMARK    2  A    between atoms: C_2  and  C_23
REMARK    3  A    between atoms: C_4  and  N_10
REMARK    4  A    between atoms: C_6  and  C_8
REMARK    5  A    between atoms: C_6  and  C_9
REMARK    6  A    between atoms: N_10  and  S_11
REMARK    7  A    between atoms: S_11  and  C_14
REMARK                            x       y       z     vdW  Elec       q    Type
REMARK                         _______ _______ _______ _____ _____    ______ ____
ROOT
ATOM      1  N   UNL     1      -3.284  -1.597  -0.059  0.00  0.00    -0.187 NA
ATOM      2  H   UNL     1      -3.901  -1.211   0.582  0.00  0.00    +0.148 HD
ENDROOT
BRANCH   1   6
ATOM      3  C   UNL     1       0.244   1.658   0.971  0.00  0.00    -0.010 C 
ATOM      4  C   UNL     1       0.008   0.188   0.551  0.00  0.00    -0.072 C 
ATOM      5  C   UNL     1      -1.488   0.019   0.307  0.00  0.00    +0.007 C 
ATOM      6  C   UNL     1      -1.836  -1.460   0.142  0.00  0.00    +0.074 C 
ATOM      7  C   UNL     1      -1.434  -2.192   1.423  0.00  0.00    +0.007 C 
ATOM      8  C   UNL     1       0.063  -2.039   1.673  0.00  0.00    -0.072 C 
ATOM      9  N   UNL     1       0.518  -0.661   1.612  0.00  0.00    +0.386 N 
ATOM     10  C   UNL     1       0.844  -2.928   0.701  0.00  0.00    -0.010 C 
ATOM     11  C   UNL     1       0.348  -2.566   3.099  0.00  0.00    -0.010 C 
ATOM     12  C   UNL     1       0.774  -0.033  -0.758  0.00  0.00    -0.010 C 
ATOM     13  H   UNL     1       1.542  -0.664   1.557  0.00  0.00    -0.084 HD
ATOM     14  H   UNL     1       0.307  -0.214   2.510  0.00  0.00    -0.084 HD
ENDBRANCH   1   6
BRANCH   1  15
ATOM     15  S   UNL     1      -3.864  -2.411  -1.380  0.00  0.00    +0.060 S 
ATOM     16  O   UNL     1      -3.168  -3.650  -1.431  0.00  0.00    -0.153 OA
ATOM     17  O   UNL     1      -5.281  -2.336  -1.313  0.00  0.00    -0.153 OA
BRANCH  15  18
ATOM     18  C   UNL     1      -3.378  -1.501  -2.808  0.00  0.00    +0.125 A 
ATOM     19  C   UNL     1      -2.493  -2.057  -3.713  0.00  0.00    +0.051 A 
ATOM     20  C   UNL     1      -2.111  -1.343  -4.834  0.00  0.00    +0.061 A 
ATOM     21  C   UNL     1      -2.615  -0.071  -5.050  0.00  0.00    +0.061 A 
ATOM     22  C   UNL     1      -3.500   0.484  -4.144  0.00  0.00    +0.043 A 
ATOM     23  C   UNL     1      -3.885  -0.233  -3.025  0.00  0.00    +0.069 A 
ATOM     24 CL   UNL     1      -5.001   0.462  -1.891  0.00  0.00    -0.081 Cl
ATOM     25 CL   UNL     1      -2.135   0.826  -6.457  0.00  0.00    -0.082 Cl
ATOM     26 CL   UNL     1      -1.000  -2.041  -5.971  0.00  0.00    -0.082 Cl
ENDBRANCH  15  18
ENDBRANCH   1  15
TORSDOF 3
