REMARK  Name = ZINC16693973
REMARK  7 active torsions:
REMARK  status: ('A' for Active; 'I' for Inactive)
REMARK    1  A    between atoms: C_1  and  C_2
REMARK    2  A    between atoms: C_3  and  C_26
REMARK    3  A    between atoms: N_6  and  C_19
REMARK    4  A    between atoms: C_10  and  N_11
REMARK    5  A    between atoms: N_11  and  C_12
REMARK    6  A    between atoms: C_17  and  O_18
REMARK    7  A    between atoms: C_19  and  C_20
REMARK                            x       y       z     vdW  Elec       q    Type
REMARK                         _______ _______ _______ _____ _____    ______ ____
ROOT
ATOM      1  C   UNL     1      -0.155   1.482   0.003  0.00  0.00    +0.046 C 
ATOM      2  C   UNL     1       0.002  -0.017   0.002  0.00  0.00    -0.015 C 
ATOM      3  C   UNL     1       0.073  -0.719  -1.193  0.00  0.00    +0.118 C 
ATOM      4  C   UNL     1       0.227  -2.175  -1.168  0.00  0.00    +0.264 C 
ATOM      5  O   UNL     1       0.289  -2.791  -2.216  0.00  0.00    -0.269 OA
ATOM      6  N   UNL     1       0.300  -2.839  -0.001  0.00  0.00    -0.229 N 
ATOM      7  C   UNL     1       0.235  -2.193   1.177  0.00  0.00    +0.255 C 
ATOM      8  O   UNL     1       0.304  -2.823   2.217  0.00  0.00    -0.269 OA
ATOM      9  C   UNL     1       0.087  -0.733   1.216  0.00  0.00    +0.055 C 
ATOM     10  C   UNL     1       0.026  -0.063   2.435  0.00  0.00    +0.085 C 
ENDROOT
BRANCH  10  11
ATOM     11  N   UNL     1      -0.055  -0.760   3.582  0.00  0.00    -0.317 N 
ATOM     12  H   UNL     1      -0.042  -1.730   3.562  0.00  0.00    +0.152 HD
BRANCH  11  13
ATOM     13  C   UNL     1      -0.158  -0.087   4.804  0.00  0.00    +0.073 A 
ATOM     14  C   UNL     1      -0.182   1.301   4.834  0.00  0.00    +0.027 A 
ATOM     15  C   UNL     1      -0.284   1.963   6.042  0.00  0.00    +0.002 A 
ATOM     16  C   UNL     1      -0.362   1.247   7.223  0.00  0.00    +0.004 A 
ATOM     17  C   UNL     1      -0.338  -0.135   7.202  0.00  0.00    +0.047 A 
ATOM     18  C   UNL     1      -0.242  -0.807   5.994  0.00  0.00    +0.138 A 
BRANCH  18  19
ATOM     19  O   UNL     1      -0.225  -2.167   5.971  0.00  0.00    -0.505 OA
ATOM     20  H   UNL     1       0.661  -2.550   6.032  0.00  0.00    +0.292 HD
ENDBRANCH  18  19
ENDBRANCH  11  13
ENDBRANCH  10  11
BRANCH   3  21
ATOM     21  C   UNL     1      -0.005  -0.024  -2.443  0.00  0.00    +0.105 C 
ATOM     22  N   UNL     1      -0.066   0.527  -3.434  0.00  0.00    -0.191 NA
ENDBRANCH   3  21
BRANCH   6  23
ATOM     23  C   UNL     1       0.454  -4.296  -0.014  0.00  0.00    +0.152 C 
BRANCH  23  24
ATOM     24  C   UNL     1       1.920  -4.646  -0.022  0.00  0.00    -0.030 A 
ATOM     25  C   UNL     1       2.588  -4.791  -1.223  0.00  0.00    +0.005 A 
ATOM     26  C   UNL     1       3.933  -5.113  -1.231  0.00  0.00    +0.000 A 
ATOM     27  C   UNL     1       4.609  -5.288  -0.038  0.00  0.00    +0.000 A 
ATOM     28  C   UNL     1       3.940  -5.142   1.163  0.00  0.00    +0.000 A 
ATOM     29  C   UNL     1       2.596  -4.817   1.171  0.00  0.00    +0.005 A 
ENDBRANCH  23  24
ENDBRANCH   6  23
TORSDOF 6
