REMARK  Name = ZINC20990035
REMARK  8 active torsions:
REMARK  status: ('A' for Active; 'I' for Inactive)
REMARK    1  A    between atoms: C_1  and  C_2
REMARK    2  A    between atoms: C_8  and  N_10
REMARK    3  A    between atoms: C_11  and  C_13
REMARK    4  A    between atoms: C_13  and  C_15
REMARK    5  A    between atoms: C_13  and  O_16
REMARK    6  A    between atoms: O_16  and  C_17
REMARK    7  A    between atoms: C_17  and  C_19
REMARK    8  A    between atoms: C_21  and  N_27
REMARK                            x       y       z     vdW  Elec       q    Type
REMARK                         _______ _______ _______ _____ _____    ______ ____
ROOT
ATOM      1  O   UNL     1       1.269   6.574   0.025  0.00  0.00    -0.448 OA
ENDROOT
BRANCH   1   2
ATOM      2  C   UNL     1       1.242   8.026   0.033  0.00  0.00    +0.259 C 
ATOM      3  C   UNL     1       1.220   8.544  -1.407  0.00  0.00    +0.062 C 
BRANCH   2   5
ATOM      4  N   UNL     1       2.612   9.869   0.953  0.00  0.00    -0.309 N 
ATOM      5  C   UNL     1       2.470   8.547   0.735  0.00  0.00    +0.254 C 
ATOM      6  O   UNL     1       3.330   7.776   1.104  0.00  0.00    -0.272 OA
ATOM      7  H   UNL     1       1.831  10.569   0.618  0.00  0.00    +0.149 HD
BRANCH   4  14
ATOM      8  C   UNL     1       2.357  11.518   3.320  0.00  0.00    +0.009 C 
ATOM      9  C   UNL     1       3.482  11.714   2.302  0.00  0.00    +0.006 C 
ATOM     10  C   UNL     1       3.038  12.720   1.238  0.00  0.00    +0.005 C 
ATOM     11  C   UNL     1       4.163  12.916   0.220  0.00  0.00    +0.000 C 
ATOM     12  C   UNL     1       4.486  11.578  -0.447  0.00  0.00    +0.002 C 
ATOM     13  C   UNL     1       4.930  10.572   0.617  0.00  0.00    +0.022 C 
ATOM     14  C   UNL     1       3.805  10.376   1.635  0.00  0.00    +0.076 C 
ENDBRANCH   4  14
ENDBRANCH   2   5
ENDBRANCH   1   2
BRANCH   1  15
ATOM     15  C   UNL     1       0.080   5.941   0.032  0.00  0.00    +0.360 C 
ATOM     16  O   UNL     1      -0.950   6.584   0.045  0.00  0.00    -0.243 OA
BRANCH  15  17
ATOM     17  C   UNL     1       0.029   4.463   0.025  0.00  0.00    +0.169 A 
ATOM     18  C   UNL     1      -1.203   3.815   0.033  0.00  0.00    +0.095 A 
ATOM     19  C   UNL     1      -1.233   2.420   0.021  0.00  0.00    +0.067 A 
ATOM     20  C   UNL     1      -0.021   1.732   0.012  0.00  0.00    +0.100 A 
ATOM     21  C   UNL     1       1.165   2.449   0.004  0.00  0.00    +0.150 A 
ATOM     22  N   UNL     1       1.161   3.765   0.011  0.00  0.00    -0.226 NA
ATOM     23 CL   UNL     1       2.678   1.598  -0.015  0.00  0.00    -0.060 Cl
ATOM     24 CL   UNL     1       0.002  -0.004   0.002  0.00  0.00    -0.078 Cl
ATOM     25 CL   UNL     1      -2.679   4.729   0.052  0.00  0.00    -0.079 Cl
BRANCH  19  26
ATOM     26  N   UNL     1      -2.445   1.732   0.023  0.00  0.00    -0.356 N 
ATOM     27  H   UNL     1      -2.453   0.632   0.014  0.00  0.00    +0.142 HD
ATOM     28  H   UNL     1      -3.394   2.289   0.035  0.00  0.00    +0.142 HD
ENDBRANCH  19  26
ENDBRANCH  15  17
ENDBRANCH   1  15
TORSDOF 6
