REMARK  Name = ZINC19760308
REMARK  8 active torsions:
REMARK  status: ('A' for Active; 'I' for Inactive)
REMARK    1  A    between atoms: C_1  and  C_2
REMARK    2  A    between atoms: C_3  and  C_8
REMARK    3  A    between atoms: N_14  and  C_20
REMARK    4  A    between atoms: C_16  and  C_19
REMARK    5  A    between atoms: C_20  and  C_21
REMARK    6  A    between atoms: C_21  and  C_22
REMARK    7  A    between atoms: C_22  and  C_23
REMARK    8  A    between atoms: C_22  and  C_24
REMARK                            x       y       z     vdW  Elec       q    Type
REMARK                         _______ _______ _______ _____ _____    ______ ____
ROOT
ATOM      1  C   UNL     1       0.333  -4.831   1.580  0.00  0.00    +0.003 A 
ATOM      2  C   UNL     1       1.409  -4.188   2.189  0.00  0.00    +0.014 A 
ATOM      3  C   UNL     1       1.555  -2.822   2.064  0.00  0.00    +0.048 A 
ATOM      4  C   UNL     1       0.634  -2.082   1.335  0.00  0.00    +0.142 A 
ATOM      5  C   UNL     1      -0.441  -2.716   0.721  0.00  0.00    +0.073 A 
ATOM      6  C   UNL     1      -0.591  -4.091   0.847  0.00  0.00    +0.037 A 
ATOM      7  N   UNL     1      -1.386  -2.007  -0.028  0.00  0.00    -0.324 N 
ATOM      8  C   UNL     1      -1.390  -0.576   0.297  0.00  0.00    +0.149 C 
ATOM      9  C   UNL     1       0.052  -0.057   0.231  0.00  0.00    +0.188 C 
ATOM     10  O   UNL     1       0.810  -0.734   1.239  0.00  0.00    -0.486 OA
ATOM     11  C   UNL     1       0.072   1.450   0.495  0.00  0.00    +0.053 C 
ENDROOT
BRANCH   1  14
ATOM     12  C   UNL     1       2.730  -6.759   1.683  0.00  0.00    +0.054 C 
ATOM     13  C   UNL     1       1.267  -7.113   1.755  0.00  0.00    +0.016 A 
ATOM     14  C   UNL     1       0.171  -6.299   1.714  0.00  0.00    +0.083 A 
ATOM     15  N   UNL     1      -1.043  -6.837   1.800  0.00  0.00    -0.225 NA
ATOM     16  C   UNL     1      -1.205  -8.143   1.913  0.00  0.00    +0.156 A 
ATOM     17  S   UNL     1       0.488  -8.714   1.917  0.00  0.00    -0.057 S 
ATOM     18  N   UNL     1      -2.377  -8.875   2.010  0.00  0.00    -0.338 N 
ATOM     19  H   UNL     1      -2.335  -9.971   2.100  0.00  0.00    +0.144 HD
ATOM     20  H   UNL     1      -3.349  -8.361   1.997  0.00  0.00    +0.144 HD
ENDBRANCH   1  14
BRANCH   7  21
ATOM     21  C   UNL     1      -2.726  -2.587   0.132  0.00  0.00    +0.105 C 
BRANCH  21  22
ATOM     22  C   UNL     1      -3.748  -1.723  -0.611  0.00  0.00    +0.022 C 
BRANCH  22  23
ATOM     23  C   UNL     1      -5.144  -2.327  -0.444  0.00  0.00    -0.016 C 
ATOM     24  C   UNL     1      -6.180  -1.398  -1.079  0.00  0.00    +0.007 C 
ATOM     25  C   UNL     1      -5.194  -3.693  -1.131  0.00  0.00    +0.007 C 
ENDBRANCH  22  23
ENDBRANCH  21  22
ENDBRANCH   7  21
TORSDOF 4
