REMARK  Name = ZINC39452851
REMARK  6 active torsions:
REMARK  status: ('A' for Active; 'I' for Inactive)
REMARK    1  A    between atoms: C_1  and  O_2
REMARK    2  A    between atoms: O_2  and  C_3
REMARK    3  A    between atoms: C_19  and  S_20
REMARK    4  A    between atoms: S_20  and  C_21
REMARK    5  A    between atoms: N_24  and  S_25
REMARK    6  A    between atoms: S_25  and  C_26
REMARK                            x       y       z     vdW  Elec       q    Type
REMARK                         _______ _______ _______ _____ _____    ______ ____
ROOT
ATOM      1  C   UNL     1       0.652  -0.570  -1.138  0.00  0.00    +0.210 C 
ATOM      2  C   UNL     1       0.825  -2.080  -0.937  0.00  0.00    +0.132 C 
ATOM      3  C   UNL     1      -0.525  -2.747  -0.974  0.00  0.00    +0.186 C 
ATOM      4  O   UNL     1      -0.711  -3.764  -0.336  0.00  0.00    -0.290 OA
ATOM      5  C   UNL     1      -1.578  -2.200  -1.743  0.00  0.00    +0.122 A 
ATOM      6  C   UNL     1      -1.387  -1.012  -2.421  0.00  0.00    +0.084 A 
ATOM      7  C   UNL     1      -2.481  -0.444  -3.228  0.00  0.00    +0.100 A 
ATOM      8  C   UNL     1      -3.713  -1.148  -3.269  0.00  0.00    +0.068 A 
ATOM      9  C   UNL     1      -4.777  -0.655  -4.013  0.00  0.00    +0.026 A 
ATOM     10  C   UNL     1      -4.587   0.545  -4.708  0.00  0.00    +0.015 A 
ATOM     11  C   UNL     1      -3.289   1.218  -4.621  0.00  0.00    +0.073 A 
ATOM     12  N   UNL     1      -2.311   0.687  -3.887  0.00  0.00    -0.245 NA
ATOM     13  C   UNL     1      -3.106   2.422  -5.322  0.00  0.00    +0.028 A 
ATOM     14  C   UNL     1      -4.127   2.940  -6.063  0.00  0.00    +0.003 A 
ATOM     15  C   UNL     1      -5.361   2.311  -6.152  0.00  0.00    +0.015 A 
ATOM     16  C   UNL     1      -5.611   1.124  -5.490  0.00  0.00    +0.017 A 
ATOM     17  C   UNL     1      -3.837  -2.403  -2.513  0.00  0.00    +0.271 A 
ATOM     18  O   UNL     1      -4.884  -3.024  -2.533  0.00  0.00    -0.266 OA
ATOM     19  N   UNL     1      -2.797  -2.867  -1.798  0.00  0.00    -0.245 N 
ATOM     20  N   UNL     1      -0.173  -0.356  -2.337  0.00  0.00    -0.315 N 
ATOM     21  H   UNL     1       0.127   0.229  -3.049  0.00  0.00    +0.149 HD
ENDROOT
BRANCH   1  23
ATOM     22  C   UNL     1      -0.017   1.425   0.010  0.00  0.00    +0.196 C 
ATOM     23  O   UNL     1       0.002  -0.004   0.002  0.00  0.00    -0.362 OA
ENDBRANCH   1  23
BRANCH  16  24
ATOM     24  S   UNL     1      -7.186   0.344  -5.618  0.00  0.00    -0.128 S 
ATOM     25  C   UNL     1      -8.133   1.446  -6.705  0.00  0.00    +0.090 C 
ENDBRANCH  16  24
BRANCH  19  26
ATOM     26  S   UNL     1      -2.973  -4.282  -0.956  0.00  0.00    -0.044 S 
ATOM     27  C   UNL     1      -3.579  -3.752   0.670  0.00  0.00    +0.110 C 
ENDBRANCH  19  26
TORSDOF 3
