REMARK  Name = ZINC08584817
REMARK  7 active torsions:
REMARK  status: ('A' for Active; 'I' for Inactive)
REMARK    1  A    between atoms: C_1  and  C_2
REMARK    2  A    between atoms: C_2  and  C_3
REMARK    3  A    between atoms: C_3  and  C_5
REMARK    4  A    between atoms: C_3  and  N_6
REMARK    5  A    between atoms: C_7  and  C_9
REMARK    6  A    between atoms: N_15  and  C_26
REMARK    7  A    between atoms: C_26  and  C_27
REMARK                            x       y       z     vdW  Elec       q    Type
REMARK                         _______ _______ _______ _____ _____    ______ ____
ROOT
ATOM      1  C   UNL     1      -0.219   0.415  -4.826  0.00  0.00    +0.039 A 
ATOM      2  C   UNL     1      -1.593   0.640  -4.722  0.00  0.00    +0.014 A 
ATOM      3  C   UNL     1      -2.312   1.002  -5.841  0.00  0.00    +0.020 A 
ATOM      4  C   UNL     1      -1.681   1.143  -7.066  0.00  0.00    +0.065 A 
ATOM      5  C   UNL     1      -0.318   0.921  -7.186  0.00  0.00    +0.054 A 
ATOM      6  C   UNL     1       0.415   0.562  -6.056  0.00  0.00    +0.037 A 
ATOM      7  N   UNL     1       0.349   1.044  -8.392  0.00  0.00    -0.262 N 
ATOM      8  C   UNL     1       0.283   1.971  -9.310  0.00  0.00    +0.252 C 
ATOM      9  O   UNL     1       1.021   1.817 -10.264  0.00  0.00    -0.270 OA
ATOM     10  C   UNL     1      -0.558   3.169  -9.348  0.00  0.00    +0.053 A 
ATOM     11  C   UNL     1       0.001   4.386  -9.760  0.00  0.00    +0.014 A 
ATOM     12  C   UNL     1      -0.773   5.525  -9.799  0.00  0.00    +0.001 A 
ATOM     13  C   UNL     1      -2.107   5.476  -9.431  0.00  0.00    +0.001 A 
ATOM     14  C   UNL     1      -2.668   4.279  -9.024  0.00  0.00    +0.018 A 
ATOM     15  C   UNL     1      -1.903   3.131  -8.984  0.00  0.00    +0.056 A 
ATOM     16  S   UNL     1      -2.632   1.610  -8.474  0.00  0.00    +0.088 S 
ATOM     17  O   UNL     1      -2.237   0.686  -9.478  0.00  0.00    -0.247 OA
ENDROOT
BRANCH   1  19
ATOM     18  N   UNL     1      -0.055  -0.114  -2.441  0.00  0.00    -0.309 N 
ATOM     19  C   UNL     1       0.561   0.028  -3.631  0.00  0.00    +0.244 C 
ATOM     20  O   UNL     1       1.758  -0.163  -3.722  0.00  0.00    -0.270 OA
ATOM     21  H   UNL     1      -1.010   0.038  -2.368  0.00  0.00    +0.149 HD
BRANCH  18  22
ATOM     22  C   UNL     1       0.718  -0.497  -1.257  0.00  0.00    +0.070 C 
ATOM     23  C   UNL     1       0.849  -2.021  -1.205  0.00  0.00    +0.028 C 
BRANCH  22  25
ATOM     24  C   UNL     1      -0.019   1.526   0.010  0.00  0.00    +0.005 C 
ATOM     25  C   UNL     1       0.002  -0.004   0.002  0.00  0.00    +0.018 C 
ENDBRANCH  22  25
ENDBRANCH  18  22
ENDBRANCH   1  19
BRANCH   7  26
ATOM     26  C   UNL     1       1.284  -0.045  -8.687  0.00  0.00    +0.149 C 
BRANCH  26  27
ATOM     27  C   UNL     1       0.565  -1.136  -9.437  0.00  0.00    -0.028 A 
ATOM     28  C   UNL     1      -0.055  -2.159  -8.743  0.00  0.00    +0.005 A 
ATOM     29  C   UNL     1      -0.715  -3.160  -9.430  0.00  0.00    +0.002 A 
ATOM     30  C   UNL     1      -0.757  -3.139 -10.812  0.00  0.00    +0.020 A 
ATOM     31  C   UNL     1      -0.137  -2.115 -11.507  0.00  0.00    +0.041 A 
ATOM     32  C   UNL     1       0.519  -1.110 -10.818  0.00  0.00    +0.025 A 
ATOM     33 CL   UNL     1      -0.189  -2.088 -13.242  0.00  0.00    -0.084 Cl
ENDBRANCH  26  27
ENDBRANCH   7  26
TORSDOF 5
