REMARK  Name = ZINC39413624
REMARK  5 active torsions:
REMARK  status: ('A' for Active; 'I' for Inactive)
REMARK    1  A    between atoms: C_1  and  C_2
REMARK    2  A    between atoms: C_5  and  O_34
REMARK    3  A    between atoms: C_17  and  C_33
REMARK    4  A    between atoms: C_22  and  C_23
REMARK    5  A    between atoms: C_30  and  O_32
REMARK                            x       y       z     vdW  Elec       q    Type
REMARK                         _______ _______ _______ _____ _____    ______ ____
ROOT
ATOM      1  C   UNL     1       0.866  -0.267  -1.781  0.00  0.00    +0.016 C 
ATOM      2  C   UNL     1       0.657  -1.695  -1.266  0.00  0.00    -0.008 C 
ATOM      3  C   UNL     1       1.274  -2.677  -2.253  0.00  0.00    +0.014 C 
ATOM      4  C   UNL     1       2.653  -3.128  -1.781  0.00  0.00    +0.032 C 
ATOM      5  C   UNL     1       3.469  -1.982  -1.197  0.00  0.00    +0.119 C 
ATOM      6  C   UNL     1       2.830  -1.475   0.102  0.00  0.00    +0.062 C 
ATOM      7  C   UNL     1       1.355  -1.836   0.064  0.00  0.00    -0.065 C 
ATOM      8  C   UNL     1       0.784  -2.254   1.152  0.00  0.00    -0.027 C 
ATOM      9  C   UNL     1      -0.659  -2.683   1.218  0.00  0.00    +0.031 C 
ATOM     10  C   UNL     1      -1.066  -3.121  -0.195  0.00  0.00    +0.001 C 
ATOM     11  C   UNL     1      -0.849  -1.919  -1.118  0.00  0.00    +0.003 C 
ATOM     12  C   UNL     1      -1.518  -2.107  -2.466  0.00  0.00    +0.005 C 
ATOM     13  C   UNL     1      -3.020  -2.394  -2.368  0.00  0.00    +0.010 C 
ATOM     14  C   UNL     1      -3.441  -2.658  -0.947  0.00  0.00    +0.001 C 
ATOM     15  C   UNL     1      -2.462  -3.646  -0.276  0.00  0.00    +0.005 C 
ATOM     16  C   UNL     1      -3.192  -3.958   1.037  0.00  0.00    +0.037 C 
ATOM     17  C   UNL     1      -4.662  -4.028   0.618  0.00  0.00    -0.040 C 
ATOM     18  C   UNL     1      -5.666  -4.495   1.345  0.00  0.00    +0.010 C 
ATOM     19  C   UNL     1      -4.755  -3.455  -0.794  0.00  0.00    +0.147 C 
ATOM     20  C   UNL     1      -3.619  -1.362  -0.159  0.00  0.00    +0.014 C 
ENDROOT
BRANCH  18  21
ATOM     21  C   UNL     1      -7.012  -4.627   0.748  0.00  0.00    -0.022 A 
ATOM     22  C   UNL     1      -7.734  -5.811   0.904  0.00  0.00    +0.008 A 
ATOM     23  C   UNL     1      -8.990  -5.929   0.345  0.00  0.00    +0.003 A 
ATOM     24  C   UNL     1      -9.534  -4.878  -0.370  0.00  0.00    +0.038 A 
ATOM     25  C   UNL     1      -8.823  -3.699  -0.530  0.00  0.00    +0.124 A 
ATOM     26  C   UNL     1      -7.567  -3.567   0.031  0.00  0.00    +0.046 A 
ATOM     27  F   UNL     1      -9.361  -2.676  -1.230  0.00  0.00    -0.205 F 
ENDBRANCH  18  21
BRANCH  19  28
ATOM     28  O   UNL     1      -4.805  -4.505  -1.754  0.00  0.00    -0.387 OA
ATOM     29  H   UNL     1      -5.608  -5.043  -1.709  0.00  0.00    +0.210 HD
ENDBRANCH  19  28
BRANCH   5  30
ATOM     30  O   UNL     1       4.798  -2.440  -0.921  0.00  0.00    -0.391 OA
ATOM     31  H   UNL     1       5.378  -1.763  -0.546  0.00  0.00    +0.210 HD
ENDBRANCH   5  30
TORSDOF 3
