REMARK  Name = ZINC20744384
REMARK  5 active torsions:
REMARK  status: ('A' for Active; 'I' for Inactive)
REMARK    1  A    between atoms: C_1  and  C_2
REMARK    2  A    between atoms: C_2  and  C_3
REMARK    3  A    between atoms: C_6  and  N_9
REMARK    4  A    between atoms: N_25  and  C_28
REMARK    5  A    between atoms: C_28  and  C_29
REMARK                            x       y       z     vdW  Elec       q    Type
REMARK                         _______ _______ _______ _____ _____    ______ ____
ROOT
ATOM      1  N   UNL     1       2.659  -1.834  -4.667  0.00  0.00    -0.218 N 
ATOM      2  C   UNL     1       3.905  -1.500  -5.056  0.00  0.00    +0.133 A 
ATOM      3  C   UNL     1       4.158  -2.147  -6.239  0.00  0.00    +0.032 A 
ATOM      4  C   UNL     1       3.037  -2.898  -6.562  0.00  0.00    +0.141 A 
ATOM      5  N   UNL     1       2.138  -2.723  -5.622  0.00  0.00    -0.173 NA
ATOM      6  C   UNL     1       5.459  -1.986  -6.974  0.00  0.00    +0.112 C 
ATOM      7  C   UNL     1       6.566  -1.660  -5.975  0.00  0.00    +0.122 C 
ATOM      8  C   UNL     1       6.103  -0.652  -4.960  0.00  0.00    +0.220 C 
ATOM      9  O   UNL     1       6.883   0.192  -4.572  0.00  0.00    -0.275 OA
ATOM     10  N   UNL     1       4.846  -0.657  -4.466  0.00  0.00    -0.270 N 
ATOM     11  C   UNL     1       5.357  -0.932  -8.031  0.00  0.00    -0.006 A 
ATOM     12  C   UNL     1       5.077   0.415  -7.955  0.00  0.00    +0.007 A 
ATOM     13  C   UNL     1       5.059   1.124  -9.151  0.00  0.00    +0.000 A 
ATOM     14  C   UNL     1       5.310   0.504 -10.358  0.00  0.00    +0.002 A 
ATOM     15  C   UNL     1       5.592  -0.851 -10.442  0.00  0.00    +0.024 A 
ATOM     16  C   UNL     1       5.614  -1.574  -9.249  0.00  0.00    +0.041 A 
ATOM     17  N   UNL     1       5.864  -2.919  -9.040  0.00  0.00    -0.261 N 
ATOM     18  C   UNL     1       5.794  -3.250  -7.734  0.00  0.00    +0.236 C 
ATOM     19  O   UNL     1       5.967  -4.353  -7.259  0.00  0.00    -0.274 OA
ATOM     20  H   UNL     1       4.604  -0.088  -3.719  0.00  0.00    +0.156 HD
ENDROOT
BRANCH   1  24
ATOM     21  C   UNL     1       0.707  -0.490  -1.238  0.00  0.00    -0.047 A 
ATOM     22  C   UNL     1      -0.012  -0.718  -2.397  0.00  0.00    +0.006 A 
ATOM     23  C   UNL     1       0.631  -1.163  -3.534  0.00  0.00    +0.028 A 
ATOM     24  C   UNL     1       2.002  -1.382  -3.514  0.00  0.00    +0.067 A 
ATOM     25  C   UNL     1       2.722  -1.152  -2.350  0.00  0.00    +0.028 A 
ATOM     26  C   UNL     1       2.074  -0.702  -1.216  0.00  0.00    +0.006 A 
BRANCH  21  28
ATOM     27  C   UNL     1      -0.019   1.526   0.010  0.00  0.00    +0.009 C 
ATOM     28  C   UNL     1       0.002  -0.004   0.002  0.00  0.00    +0.032 C 
ENDBRANCH  21  28
ENDBRANCH   1  24
BRANCH  17  29
ATOM     29  C   UNL     1       6.167  -3.871 -10.112  0.00  0.00    +0.209 C 
BRANCH  29  30
ATOM     30  C   UNL     1       7.657  -3.918 -10.335  0.00  0.00    +0.228 C 
ATOM     31  O   UNL     1       8.393  -3.225  -9.665  0.00  0.00    -0.274 OA
ATOM     32  N   UNL     1       8.171  -4.731 -11.279  0.00  0.00    -0.328 N 
ATOM     33  H   UNL     1       7.583  -5.285 -11.815  0.00  0.00    +0.145 HD
ATOM     34  H   UNL     1       9.130  -4.761 -11.423  0.00  0.00    +0.145 HD
ENDBRANCH  29  30
ENDBRANCH  17  29
TORSDOF 4
