REMARK  Name = ZINC10442404
REMARK  9 active torsions:
REMARK  status: ('A' for Active; 'I' for Inactive)
REMARK    1  A    between atoms: C_1  and  C_2
REMARK    2  A    between atoms: C_5  and  N_8
REMARK    3  A    between atoms: C_18  and  S_19
REMARK    4  A    between atoms: S_19  and  C_20
REMARK    5  A    between atoms: C_20  and  C_22
REMARK    6  A    between atoms: C_20  and  C_23
REMARK    7  A    between atoms: N_25  and  C_26
REMARK    8  A    between atoms: C_26  and  C_28
REMARK    9  A    between atoms: C_26  and  C_29
REMARK                            x       y       z     vdW  Elec       q    Type
REMARK                         _______ _______ _______ _____ _____    ______ ____
ROOT
ATOM      1  N   UNL     1       6.308  -0.911  -4.345  0.00  0.00    -0.255 N 
ATOM      2  C   UNL     1       6.767  -1.899  -5.147  0.00  0.00    +0.267 A 
ATOM      3  O   UNL     1       7.932  -2.251  -5.111  0.00  0.00    -0.267 OA
ATOM      4  C   UNL     1       5.810  -2.527  -6.067  0.00  0.00    +0.065 A 
ATOM      5  C   UNL     1       6.188  -3.548  -6.939  0.00  0.00    +0.015 A 
ATOM      6  C   UNL     1       5.256  -4.099  -7.775  0.00  0.00    +0.001 A 
ATOM      7  C   UNL     1       3.941  -3.651  -7.766  0.00  0.00    +0.002 A 
ATOM      8  C   UNL     1       3.544  -2.652  -6.923  0.00  0.00    +0.028 A 
ATOM      9  C   UNL     1       4.473  -2.069  -6.056  0.00  0.00    +0.079 A 
ATOM     10  N   UNL     1       4.123  -1.076  -5.205  0.00  0.00    -0.223 NA
ATOM     11  C   UNL     1       4.995  -0.531  -4.393  0.00  0.00    +0.177 A 
ENDROOT
BRANCH   1  16
ATOM     12  C   UNL     1       9.850   1.660  -0.733  0.00  0.00    +0.044 C 
ATOM     13  C   UNL     1       8.910   0.977  -1.692  0.00  0.00    -0.050 A 
ATOM     14  C   UNL     1       8.745   1.478  -2.971  0.00  0.00    +0.005 A 
ATOM     15  C   UNL     1       7.883   0.854  -3.852  0.00  0.00    +0.026 A 
ATOM     16  C   UNL     1       7.182  -0.276  -3.453  0.00  0.00    +0.052 A 
ATOM     17  C   UNL     1       7.346  -0.773  -2.167  0.00  0.00    +0.026 A 
ATOM     18  C   UNL     1       8.213  -0.148  -1.292  0.00  0.00    +0.005 A 
ENDBRANCH   1  16
BRANCH  11  19
ATOM     19  S   UNL     1       4.452   0.756  -3.319  0.00  0.00    -0.075 S 
BRANCH  19  20
ATOM     20  C   UNL     1       2.708   0.849  -3.795  0.00  0.00    +0.137 C 
ATOM     21  C   UNL     1       2.008  -0.459  -3.421  0.00  0.00    +0.029 C 
BRANCH  20  22
ATOM     22  C   UNL     1       2.050   1.995  -3.072  0.00  0.00    +0.227 C 
ATOM     23  O   UNL     1       2.556   2.449  -2.067  0.00  0.00    -0.275 OA
ATOM     24  N   UNL     1       0.899   2.517  -3.541  0.00  0.00    -0.308 N 
ATOM     25  H   UNL     1       0.495   2.154  -4.344  0.00  0.00    +0.149 HD
BRANCH  24  26
ATOM     26  C   UNL     1       0.260   3.631  -2.838  0.00  0.00    +0.100 C 
ATOM     27  C   UNL     1       0.877   4.951  -3.306  0.00  0.00    +0.033 C 
BRANCH  26  28
ATOM     28  C   UNL     1      -1.217   3.633  -3.138  0.00  0.00    -0.027 A 
ATOM     29  C   UNL     1      -1.662   3.355  -4.417  0.00  0.00    +0.008 A 
ATOM     30  C   UNL     1      -3.017   3.351  -4.692  0.00  0.00    +0.038 A 
ATOM     31  C   UNL     1      -3.927   3.638  -3.689  0.00  0.00    +0.123 A 
ATOM     32  C   UNL     1      -3.480   3.922  -2.410  0.00  0.00    +0.038 A 
ATOM     33  C   UNL     1      -2.125   3.920  -2.136  0.00  0.00    +0.008 A 
ATOM     34  F   UNL     1      -5.251   3.640  -3.958  0.00  0.00    -0.205 F 
ENDBRANCH  26  28
ENDBRANCH  24  26
ENDBRANCH  20  22
ENDBRANCH  19  20
ENDBRANCH  11  19
TORSDOF 6
