REMARK  Name = ZINC63710966
REMARK  8 active torsions:
REMARK  status: ('A' for Active; 'I' for Inactive)
REMARK    1  A    between atoms: C_1  and  C_2
REMARK    2  A    between atoms: N_8  and  C_9
REMARK    3  A    between atoms: C_12  and  C_15
REMARK    4  A    between atoms: N_17  and  C_18
REMARK    5  A    between atoms: C_18  and  C_19
REMARK    6  A    between atoms: N_23  and  C_25
REMARK    7  A    between atoms: C_25  and  C_26
REMARK    8  A    between atoms: C_25  and  C_27
REMARK                            x       y       z     vdW  Elec       q    Type
REMARK                         _______ _______ _______ _____ _____    ______ ____
ROOT
ATOM      1  C   UNL     1      -0.218   0.402   6.628  0.00  0.00    +0.244 C 
ATOM      2  O   UNL     1      -0.381   1.557   6.971  0.00  0.00    -0.270 OA
ATOM      3  N   UNL     1      -0.084  -0.565   7.557  0.00  0.00    -0.311 N 
ATOM      4  H   UNL     1       0.047  -1.486   7.283  0.00  0.00    +0.149 HD
ENDROOT
BRANCH   1   8
ATOM      5  C   UNL     1      -0.071  -0.586   2.500  0.00  0.00    +0.051 A 
ATOM      6  C   UNL     1      -0.258   0.736   2.891  0.00  0.00    +0.027 A 
ATOM      7  C   UNL     1      -0.306   1.060   4.228  0.00  0.00    +0.015 A 
ATOM      8  C   UNL     1      -0.167   0.059   5.193  0.00  0.00    +0.037 A 
ATOM      9  C   UNL     1       0.021  -1.268   4.796  0.00  0.00    +0.015 A 
ATOM     10  C   UNL     1       0.063  -1.585   3.457  0.00  0.00    +0.027 A 
BRANCH   5  18
ATOM     11  C   UNL     1       2.453  -1.635   1.042  0.00  0.00    +0.065 C 
ATOM     12  C   UNL     1       1.088  -1.382   0.455  0.00  0.00    +0.041 A 
ATOM     13  C   UNL     1       0.732  -1.578  -0.810  0.00  0.00    +0.109 A 
ATOM     14  N   UNL     1      -0.604  -1.226  -0.937  0.00  0.00    -0.312 N 
ATOM     15  H   UNL     1      -1.129  -1.267  -1.752  0.00  0.00    +0.170 HD
ATOM     16  C   UNL     1      -1.045  -0.817   0.269  0.00  0.00    +0.331 A 
ATOM     17  O   UNL     1      -2.172  -0.435   0.526  0.00  0.00    -0.246 OA
ATOM     18  N   UNL     1      -0.023  -0.910   1.142  0.00  0.00    -0.266 N 
ENDBRANCH   5  18
ENDBRANCH   1   8
BRANCH   3  19
ATOM     19  C   UNL     1      -0.134  -0.224   8.981  0.00  0.00    +0.106 C 
BRANCH  19  20
ATOM     20  C   UNL     1       0.043  -1.494   9.816  0.00  0.00    -0.011 C 
ATOM     21  C   UNL     1       1.447  -2.063   9.590  0.00  0.00    +0.001 C 
ATOM     22  C   UNL     1       1.642  -3.288  10.488  0.00  0.00    -0.018 C 
ATOM     23  C   UNL     1       1.406  -2.887  11.946  0.00  0.00    -0.078 C 
ATOM     24  N   UNL     1       0.038  -2.376  12.102  0.00  0.00    +0.381 N 
ATOM     25  C   UNL     1      -0.133  -1.160  11.298  0.00  0.00    -0.074 C 
ATOM     26  H   UNL     1      -0.618  -3.077  11.794  0.00  0.00    -0.081 HD
BRANCH  24  27
ATOM     27  C   UNL     1      -0.209  -2.066  13.516  0.00  0.00    -0.075 C 
ATOM     28  C   UNL     1      -1.634  -1.533  13.680  0.00  0.00    -0.014 C 
ATOM     29  C   UNL     1      -0.039  -3.335  14.354  0.00  0.00    -0.014 C 
ENDBRANCH  24  27
ENDBRANCH  19  20
ENDBRANCH   3  19
TORSDOF 5
