REMARK  Name = ZINC02106347
REMARK  7 active torsions:
REMARK  status: ('A' for Active; 'I' for Inactive)
REMARK    1  A    between atoms: C_1  and  C_2
REMARK    2  A    between atoms: C_2  and  C_3
REMARK    3  A    between atoms: C_9  and  C_10
REMARK    4  A    between atoms: C_9  and  N_57
REMARK    5  A    between atoms: C_25  and  C_27
REMARK    6  A    between atoms: C_27  and  O_29
REMARK    7  A    between atoms: O_29  and  C_30
REMARK                            x       y       z     vdW  Elec       q    Type
REMARK                         _______ _______ _______ _____ _____    ______ ____
ROOT
ATOM      1  C   UNL     1       1.030   2.074   2.727  0.00  0.00    +0.200 C 
ATOM      2  O   UNL     1       1.302   2.868   1.852  0.00  0.00    -0.278 OA
ATOM      3  N   UNL     1       1.813   1.980   3.820  0.00  0.00    -0.283 N 
ATOM      4  C   UNL     1       1.435   1.113   4.949  0.00  0.00    +0.162 C 
ATOM      5  C   UNL     1       1.674   1.893   6.222  0.00  0.00    +0.038 A 
ATOM      6  C   UNL     1       2.351   3.062   6.264  0.00  0.00    -0.015 A 
ATOM      7  C   UNL     1       2.371   3.489   7.648  0.00  0.00    +0.003 A 
ATOM      8  C   UNL     1       2.920   4.605   8.287  0.00  0.00    +0.010 A 
ATOM      9  C   UNL     1       2.743   4.691   9.646  0.00  0.00    +0.001 A 
ATOM     10  C   UNL     1       2.053   3.726  10.361  0.00  0.00    +0.002 A 
ATOM     11  C   UNL     1       1.500   2.611   9.754  0.00  0.00    +0.026 A 
ATOM     12  C   UNL     1       1.665   2.497   8.376  0.00  0.00    +0.047 A 
ATOM     13  N   UNL     1       1.259   1.549   7.481  0.00  0.00    -0.356 N 
ATOM     14  H   UNL     1       0.752   0.752   7.703  0.00  0.00    +0.166 HD
ATOM     15  C   UNL     1       2.951   3.751   5.065  0.00  0.00    +0.071 C 
ATOM     16  C   UNL     1       3.070   2.737   3.914  0.00  0.00    +0.189 C 
ENDROOT
BRANCH  16  17
ATOM     17  C   UNL     1       3.318   3.467   2.619  0.00  0.00    +0.328 C 
ATOM     18  O   UNL     1       2.972   4.618   2.498  0.00  0.00    -0.249 OA
BRANCH  17  19
ATOM     19  O   UNL     1       3.923   2.837   1.599  0.00  0.00    -0.467 OA
ATOM     20  C   UNL     1       4.129   3.602   0.382  0.00  0.00    +0.280 C 
ENDBRANCH  17  19
ENDBRANCH  16  17
BRANCH   1  21
ATOM     21  C   UNL     1      -0.185   1.191   2.593  0.00  0.00    +0.019 C 
BRANCH  21  27
ATOM     22  C   UNL     1      -2.223   0.928   1.315  0.00  0.00    -0.068 C 
ATOM     23  C   UNL     1      -2.950   1.374   0.044  0.00  0.00    -0.015 C 
ATOM     24  C   UNL     1      -2.171   0.887  -1.181  0.00  0.00    -0.003 C 
ATOM     25  C   UNL     1      -0.744   1.441  -1.122  0.00  0.00    -0.019 C 
ATOM     26  C   UNL     1      -0.082   0.993   0.182  0.00  0.00    -0.078 C 
ATOM     27  N   UNL     1      -0.866   1.514   1.322  0.00  0.00    +0.387 N 
ATOM     28  H   UNL     1      -0.943   2.534   1.235  0.00  0.00    -0.081 HD
BRANCH  22  30
ATOM     29  C   UNL     1      -4.400   0.841   2.539  0.00  0.00    +0.002 C 
ATOM     30  C   UNL     1      -2.987   1.430   2.542  0.00  0.00    -0.019 C 
ENDBRANCH  22  30
ENDBRANCH  21  27
ENDBRANCH   1  21
TORSDOF 5
