REMARK  Name = ZINC48791479
REMARK  8 active torsions:
REMARK  status: ('A' for Active; 'I' for Inactive)
REMARK    1  A    between atoms: C_1  and  C_2
REMARK    2  A    between atoms: C_4  and  C_27
REMARK    3  A    between atoms: C_5  and  N_9
REMARK    4  A    between atoms: C_6  and  C_8
REMARK    5  A    between atoms: C_10  and  C_12
REMARK    6  A    between atoms: C_12  and  N_13
REMARK    7  A    between atoms: C_14  and  C_16
REMARK    8  A    between atoms: N_18  and  C_19
REMARK                            x       y       z     vdW  Elec       q    Type
REMARK                         _______ _______ _______ _____ _____    ______ ____
ROOT
ATOM      1  N   UNL     1       0.729  -6.963   2.329  0.00  0.00    -0.299 N 
ATOM      2  C   UNL     1       0.891  -8.289   2.504  0.00  0.00    +0.300 C 
ATOM      3  O   UNL     1       0.668  -9.053   1.588  0.00  0.00    -0.265 OA
ATOM      4  H   UNL     1       0.908  -6.352   3.062  0.00  0.00    +0.150 HD
ENDROOT
BRANCH   2   5
ATOM      5  C   UNL     1       1.346  -8.819   3.824  0.00  0.00    +0.303 C 
ATOM      6  O   UNL     1       1.569  -8.055   4.740  0.00  0.00    -0.265 OA
ATOM      7  N   UNL     1       1.508 -10.145   3.998  0.00  0.00    -0.275 N 
ATOM      8  H   UNL     1       1.260 -10.761   3.291  0.00  0.00    +0.155 HD
BRANCH   7   9
ATOM      9  C   UNL     1       2.033 -10.634   5.199  0.00  0.00    +0.069 A 
ATOM     10  C   UNL     1       1.778  -9.970   6.392  0.00  0.00    +0.027 A 
ATOM     11  C   UNL     1       2.298 -10.455   7.576  0.00  0.00    +0.022 A 
ATOM     12  C   UNL     1       3.073 -11.601   7.576  0.00  0.00    +0.044 A 
ATOM     13  C   UNL     1       3.331 -12.266   6.390  0.00  0.00    +0.060 A 
ATOM     14  C   UNL     1       2.808 -11.789   5.202  0.00  0.00    +0.146 A 
ATOM     15  F   UNL     1       3.055 -12.441   4.045  0.00  0.00    -0.203 F 
ATOM     16 CL   UNL     1       3.725 -12.206   9.067  0.00  0.00    -0.083 Cl
ENDBRANCH   7   9
ENDBRANCH   2   5
BRANCH   1  17
ATOM     17  C   UNL     1       0.283  -6.443   1.034  0.00  0.00    +0.200 C 
BRANCH  17  19
ATOM     18  N   UNL     1      -0.211  -4.242   0.021  0.00  0.00    -0.284 N 
ATOM     19  C   UNL     1       0.183  -4.941   1.103  0.00  0.00    +0.234 C 
ATOM     20  O   UNL     1       0.457  -4.362   2.133  0.00  0.00    -0.274 OA
ATOM     21  H   UNL     1      -0.508  -4.708  -0.776  0.00  0.00    +0.155 HD
BRANCH  18  26
ATOM     22  C   UNL     1      -0.136   1.430   0.124  0.00  0.00    +0.044 C 
ATOM     23  C   UNL     1      -0.156  -0.077   0.097  0.00  0.00    -0.050 A 
ATOM     24  C   UNL     1       0.549  -0.758  -0.878  0.00  0.00    +0.008 A 
ATOM     25  C   UNL     1       0.533  -2.139  -0.906  0.00  0.00    -0.029 A 
ATOM     26  C   UNL     1      -0.192  -2.843   0.046  0.00  0.00    +0.039 A 
ATOM     27  C   UNL     1      -0.899  -2.155   1.025  0.00  0.00    -0.029 A 
ATOM     28  C   UNL     1      -0.874  -0.775   1.050  0.00  0.00    +0.008 A 
ATOM     29  C   UNL     1      -1.687  -2.915   2.060  0.00  0.00    +0.045 C 
ATOM     30  C   UNL     1       1.300  -2.881  -1.970  0.00  0.00    +0.045 C 
ENDBRANCH  18  26
ENDBRANCH  17  19
ENDBRANCH   1  17
TORSDOF 5
