REMARK  Name = ZINC32998928
REMARK  5 active torsions:
REMARK  status: ('A' for Active; 'I' for Inactive)
REMARK    1  A    between atoms: C_10  and  N_12
REMARK    2  A    between atoms: C_13  and  C_15
REMARK    3  A    between atoms: C_18  and  N_21
REMARK    4  A    between atoms: C_26  and  S_28
REMARK    5  A    between atoms: S_28  and  C_29
REMARK                            x       y       z     vdW  Elec       q    Type
REMARK                         _______ _______ _______ _____ _____    ______ ____
ROOT
ATOM      1  C   UNL     1       1.403  -0.296  -0.129  0.00  0.00    +0.037 A 
ATOM      2  C   UNL     1       1.745  -1.621  -0.410  0.00  0.00    +0.015 A 
ATOM      3  C   UNL     1       3.067  -2.006  -0.399  0.00  0.00    +0.028 A 
ATOM      4  C   UNL     1       4.060  -1.080  -0.097  0.00  0.00    +0.069 A 
ATOM      5  C   UNL     1       3.722   0.239   0.189  0.00  0.00    +0.028 A 
ATOM      6  C   UNL     1       2.403   0.632   0.174  0.00  0.00    +0.015 A 
ENDROOT
BRANCH   4   7
ATOM      7  N   UNL     1       5.398  -1.475  -0.081  0.00  0.00    -0.196 N 
ATOM      8  C   UNL     1       6.323  -0.741  -0.731  0.00  0.00    +0.272 A 
ATOM      9  O   UNL     1       5.994   0.269  -1.333  0.00  0.00    -0.266 OA
ATOM     10  C   UNL     1       7.674  -1.143  -0.706  0.00  0.00    +0.075 A 
ATOM     11  C   UNL     1       8.020  -2.273  -0.035  0.00  0.00    +0.042 A 
ATOM     12  C   UNL     1       7.028  -3.023   0.630  0.00  0.00    +0.123 A 
ATOM     13  N   UNL     1       5.775  -2.636   0.605  0.00  0.00    -0.157 NA
BRANCH  12  14
ATOM     14  S   UNL     1       7.474  -4.488   1.501  0.00  0.00    -0.068 S 
BRANCH  14  15
ATOM     15  C   UNL     1       7.412  -4.012   3.196  0.00  0.00    +0.014 A 
ATOM     16  C   UNL     1       7.183  -2.685   3.539  0.00  0.00    +0.016 A 
ATOM     17  C   UNL     1       7.128  -2.316   4.868  0.00  0.00    +0.021 A 
ATOM     18  C   UNL     1       7.314  -3.265   5.859  0.00  0.00    +0.041 A 
ATOM     19  C   UNL     1       7.548  -4.586   5.521  0.00  0.00    +0.021 A 
ATOM     20  C   UNL     1       7.597  -4.962   4.193  0.00  0.00    +0.016 A 
ATOM     21 CL   UNL     1       7.252  -2.796   7.529  0.00  0.00    -0.084 Cl
ENDBRANCH  14  15
ENDBRANCH  12  14
ENDBRANCH   4   7
BRANCH   1  23
ATOM     22  N   UNL     1      -0.977  -0.774  -0.437  0.00  0.00    -0.305 N 
ATOM     23  C   UNL     1      -0.014   0.122  -0.145  0.00  0.00    +0.245 C 
ATOM     24  O   UNL     1      -0.310   1.274   0.104  0.00  0.00    -0.270 OA
ATOM     25  H   UNL     1      -0.709  -1.818  -0.659  0.00  0.00    +0.150 HD
BRANCH  22  35
ATOM     26  C   UNL     1      -3.170   1.442  -4.258  0.00  0.00    +0.000 A 
ATOM     27  C   UNL     1      -1.993   1.704  -3.581  0.00  0.00    +0.000 A 
ATOM     28  C   UNL     1      -1.760   1.110  -2.358  0.00  0.00    +0.006 A 
ATOM     29  C   UNL     1      -2.699   0.251  -1.800  0.00  0.00    -0.024 A 
ATOM     30  C   UNL     1      -3.868  -0.013  -2.476  0.00  0.00    -0.042 A 
ATOM     31  C   UNL     1      -4.102   0.588  -3.707  0.00  0.00    +0.004 A 
ATOM     32  C   UNL     1      -4.926  -0.940  -1.936  0.00  0.00    +0.035 C 
ATOM     33  C   UNL     1      -4.729  -1.164  -0.438  0.00  0.00    +0.007 C 
ATOM     34  C   UNL     1      -3.271  -1.572  -0.198  0.00  0.00    +0.027 C 
ATOM     35  C   UNL     1      -2.382  -0.358  -0.459  0.00  0.00    +0.104 C 
ENDBRANCH  22  35
ENDBRANCH   1  23
TORSDOF 5
