REMARK  Name = ZINC08832334
REMARK  8 active torsions:
REMARK  status: ('A' for Active; 'I' for Inactive)
REMARK    1  A    between atoms: C_1  and  C_2
REMARK    2  A    between atoms: C_2  and  C_3
REMARK    3  A    between atoms: C_2  and  C_4
REMARK    4  A    between atoms: N_6  and  C_7
REMARK    5  A    between atoms: C_10  and  N_13
REMARK    6  A    between atoms: C_14  and  C_16
REMARK    7  A    between atoms: C_17  and  C_18
REMARK    8  A    between atoms: C_21  and  C_23
REMARK                            x       y       z     vdW  Elec       q    Type
REMARK                         _______ _______ _______ _____ _____    ______ ____
ROOT
ATOM      1  N   UNL     1      -1.927  -4.409  -0.015  0.00  0.00    -0.282 N 
ATOM      2  C   UNL     1      -2.078  -3.069   0.000  0.00  0.00    +0.241 C 
ATOM      3  O   UNL     1      -3.194  -2.582   0.029  0.00  0.00    -0.270 OA
ATOM      4  H   UNL     1      -1.043  -4.796  -0.106  0.00  0.00    +0.155 HD
ENDROOT
BRANCH   1   8
ATOM      5  C   UNL     1      -5.263  -6.885   0.330  0.00  0.00    +0.034 A 
ATOM      6  C   UNL     1      -5.360  -5.682  -0.356  0.00  0.00    +0.025 A 
ATOM      7  C   UNL     1      -4.255  -4.862  -0.470  0.00  0.00    +0.025 A 
ATOM      8  C   UNL     1      -3.047  -5.240   0.101  0.00  0.00    +0.034 A 
ATOM      9  C   UNL     1      -2.949  -6.447   0.782  0.00  0.00    +0.025 A 
ATOM     10  C   UNL     1      -4.055  -7.264   0.901  0.00  0.00    +0.025 A 
BRANCH   5  13
ATOM     11  C   UNL     1      -6.577  -8.435   1.570  0.00  0.00    +0.220 C 
ATOM     12  O   UNL     1      -5.739  -8.426   2.447  0.00  0.00    -0.275 OA
ATOM     13  N   UNL     1      -6.384  -7.717   0.446  0.00  0.00    -0.285 N 
ATOM     14  H   UNL     1      -7.021  -7.777  -0.283  0.00  0.00    +0.155 HD
BRANCH  11  16
ATOM     15  C   UNL     1      -7.923 -10.287   0.618  0.00  0.00    +0.017 C 
ATOM     16  C   UNL     1      -7.834  -9.249   1.738  0.00  0.00    +0.069 C 
ATOM     17  C   UNL     1      -7.803  -9.962   3.092  0.00  0.00    +0.017 C 
ENDBRANCH  11  16
ENDBRANCH   5  13
ENDBRANCH   1   8
BRANCH   2  18
ATOM     18  C   UNL     1      -0.940  -2.230  -0.018  0.00  0.00    +0.071 C 
ATOM     19  C   UNL     1      -1.092  -0.880  -0.004  0.00  0.00    +0.051 C 
BRANCH  19  20
ATOM     20  C   UNL     1       0.045  -0.041  -0.022  0.00  0.00    +0.129 A 
ATOM     21  C   UNL     1       0.035   1.342  -0.010  0.00  0.00    +0.050 A 
ATOM     22  C   UNL     1       1.370   1.754  -0.036  0.00  0.00    +0.050 A 
ATOM     23  C   UNL     1       2.140   0.626  -0.063  0.00  0.00    +0.136 A 
ATOM     24  O   UNL     1       1.332  -0.449  -0.054  0.00  0.00    -0.455 OA
BRANCH  23  25
ATOM     25  C   UNL     1       3.615   0.592  -0.095  0.00  0.00    +0.020 A 
ATOM     26  C   UNL     1       4.344   1.784  -0.106  0.00  0.00    +0.031 A 
ATOM     27  C   UNL     1       5.724   1.746  -0.130  0.00  0.00    +0.043 A 
ATOM     28  C   UNL     1       6.385   0.529  -0.155  0.00  0.00    +0.040 A 
ATOM     29  C   UNL     1       5.668  -0.656  -0.149  0.00  0.00    +0.043 A 
ATOM     30  C   UNL     1       4.288  -0.631  -0.120  0.00  0.00    +0.031 A 
ATOM     31 CL   UNL     1       6.507  -2.175  -0.181  0.00  0.00    -0.083 Cl
ATOM     32 CL   UNL     1       6.631   3.225  -0.138  0.00  0.00    -0.083 Cl
ENDBRANCH  23  25
ENDBRANCH  19  20
ENDBRANCH   2  18
TORSDOF 6
