REMARK  Name = ZINC36545328
REMARK  8 active torsions:
REMARK  status: ('A' for Active; 'I' for Inactive)
REMARK    1  A    between atoms: C_5  and  N_7
REMARK    2  A    between atoms: N_7  and  C_8
REMARK    3  A    between atoms: C_8  and  C_10
REMARK    4  A    between atoms: C_8  and  C_16
REMARK    5  A    between atoms: N_18  and  C_19
REMARK    6  A    between atoms: C_25  and  C_27
REMARK    7  A    between atoms: C_31  and  O_34
REMARK    8  A    between atoms: C_32  and  O_33
REMARK                            x       y       z     vdW  Elec       q    Type
REMARK                         _______ _______ _______ _____ _____    ______ ____
ROOT
ATOM      1  N   UNL     1       0.884  -1.736  -0.722  0.00  0.00    -0.254 N 
ATOM      2  C   UNL     1       1.383  -1.722   0.530  0.00  0.00    +0.255 C 
ATOM      3  O   UNL     1       1.804  -2.749   1.028  0.00  0.00    -0.269 OA
ENDROOT
BRANCH   1   8
ATOM      4  C   UNL     1      -1.211   0.998  -2.010  0.00  0.00    +0.002 A 
ATOM      5  C   UNL     1      -0.251   1.832  -2.551  0.00  0.00    +0.002 A 
ATOM      6  C   UNL     1       1.086   1.485  -2.487  0.00  0.00    +0.022 A 
ATOM      7  C   UNL     1       1.466   0.302  -1.881  0.00  0.00    +0.062 A 
ATOM      8  C   UNL     1       0.503  -0.538  -1.336  0.00  0.00    +0.056 A 
ATOM      9  C   UNL     1      -0.839  -0.185  -1.402  0.00  0.00    +0.025 A 
ATOM     10 CL   UNL     1       3.145  -0.134  -1.802  0.00  0.00    -0.082 Cl
ENDBRANCH   1   8
BRANCH   2  11
ATOM     11  C   UNL     1       1.419  -0.463   1.297  0.00  0.00    +0.082 A 
ATOM     12  C   UNL     1       0.294   0.366   1.339  0.00  0.00    +0.017 A 
ATOM     13  C   UNL     1       0.331   1.542   2.056  0.00  0.00    +0.005 A 
ATOM     14  C   UNL     1       1.480   1.910   2.737  0.00  0.00    +0.049 A 
ATOM     15  C   UNL     1       2.602   1.100   2.705  0.00  0.00    +0.159 A 
ATOM     16  C   UNL     1       2.578  -0.093   1.990  0.00  0.00    +0.171 A 
BRANCH  16  17
ATOM     17  O   UNL     1       3.674  -0.893   1.960  0.00  0.00    -0.503 OA
ATOM     18  H   UNL     1       4.284  -0.698   1.236  0.00  0.00    +0.292 HD
ENDBRANCH  16  17
BRANCH  15  19
ATOM     19  O   UNL     1       3.726   1.468   3.376  0.00  0.00    -0.503 OA
ATOM     20  H   UNL     1       3.763   1.147   4.288  0.00  0.00    +0.292 HD
ENDBRANCH  15  19
ENDBRANCH   2  11
BRANCH   1  21
ATOM     21  C   UNL     1       0.740  -3.005  -1.439  0.00  0.00    +0.170 C 
BRANCH  21  22
ATOM     22  C   UNL     1      -0.743  -3.274  -1.707  0.00  0.00    +0.019 C 
ATOM     23  C   UNL     1      -1.473  -3.471  -0.377  0.00  0.00    +0.006 C 
ATOM     24  C   UNL     1      -2.955  -3.740  -0.645  0.00  0.00    +0.000 C 
ATOM     25  C   UNL     1      -3.099  -5.002  -1.498  0.00  0.00    +0.000 C 
ATOM     26  C   UNL     1      -2.368  -4.805  -2.827  0.00  0.00    +0.000 C 
ATOM     27  C   UNL     1      -0.886  -4.536  -2.560  0.00  0.00    +0.006 C 
ENDBRANCH  21  22
BRANCH  21  28
ATOM     28  C   UNL     1       1.481  -2.928  -2.749  0.00  0.00    +0.234 C 
ATOM     29  O   UNL     1       1.504  -1.888  -3.373  0.00  0.00    -0.274 OA
ATOM     30  N   UNL     1       2.118  -4.015  -3.228  0.00  0.00    -0.311 N 
ATOM     31  H   UNL     1       2.045  -4.864  -2.763  0.00  0.00    +0.149 HD
BRANCH  30  32
ATOM     32  C   UNL     1       2.919  -3.916  -4.450  0.00  0.00    +0.073 C 
ATOM     33  C   UNL     1       4.326  -3.428  -4.099  0.00  0.00    +0.022 C 
ATOM     34  C   UNL     1       5.163  -3.324  -5.375  0.00  0.00    +0.002 C 
ATOM     35  C   UNL     1       5.252  -4.699  -6.041  0.00  0.00    +0.000 C 
ATOM     36  C   UNL     1       3.845  -5.187  -6.392  0.00  0.00    +0.002 C 
ATOM     37  C   UNL     1       3.007  -5.291  -5.115  0.00  0.00    +0.022 C 
ENDBRANCH  30  32
ENDBRANCH  21  28
ENDBRANCH   1  21
TORSDOF 8
