REMARK  Name = ZINC38610931
REMARK  11 active torsions:
REMARK  status: ('A' for Active; 'I' for Inactive)
REMARK    1  A    between atoms: C_1  and  C_2
REMARK    2  A    between atoms: C_2  and  C_3
REMARK    3  A    between atoms: C_3  and  C_4
REMARK    4  A    between atoms: C_4  and  C_5
REMARK    5  A    between atoms: C_5  and  N_6
REMARK    6  A    between atoms: C_7  and  C_24
REMARK    7  A    between atoms: C_10  and  C_17
REMARK    8  A    between atoms: C_22  and  O_23
REMARK    9  A    between atoms: C_26  and  O_32
REMARK   10  A    between atoms: C_27  and  O_31
REMARK   11  A    between atoms: O_32  and  C_33
REMARK                            x       y       z     vdW  Elec       q    Type
REMARK                         _______ _______ _______ _____ _____    ______ ____
ROOT
ATOM      1  N   UNL     1       1.475  -3.986  -2.532  0.00  0.00    -0.285 N 
ATOM      2  C   UNL     1       2.520  -4.835  -1.946  0.00  0.00    +0.141 C 
ATOM      3  C   UNL     1       2.097  -6.255  -2.206  0.00  0.00    +0.035 A 
ATOM      4  C   UNL     1       2.383  -7.617  -2.060  0.00  0.00    +0.102 A 
ATOM      5  N   UNL     1       1.402  -8.289  -2.629  0.00  0.00    -0.173 NA
ATOM      6  N   UNL     1       0.525  -7.488  -3.119  0.00  0.00    -0.272 N 
ATOM      7  H   UNL     1      -0.282  -7.761  -3.583  0.00  0.00    +0.189 HD
ATOM      8  C   UNL     1       0.898  -6.194  -2.889  0.00  0.00    +0.126 A 
ATOM      9  C   UNL     1       0.536  -4.784  -3.072  0.00  0.00    +0.265 C 
ATOM     10  O   UNL     1      -0.469  -4.391  -3.634  0.00  0.00    -0.268 OA
ENDROOT
BRANCH   2  11
ATOM     11  C   UNL     1       3.845  -4.558  -2.608  0.00  0.00    -0.018 A 
ATOM     12  C   UNL     1       5.001  -4.520  -1.850  0.00  0.00    +0.055 A 
ATOM     13  C   UNL     1       6.220  -4.266  -2.457  0.00  0.00    +0.163 A 
ATOM     14  C   UNL     1       6.279  -4.049  -3.830  0.00  0.00    +0.173 A 
ATOM     15  C   UNL     1       5.117  -4.089  -4.585  0.00  0.00    +0.063 A 
ATOM     16  C   UNL     1       3.903  -4.348  -3.973  0.00  0.00    +0.025 A 
ATOM     17 BR   UNL     1       5.192  -3.795  -6.452  0.00  0.00    -0.046 Br
BRANCH  14  18
ATOM     18  O   UNL     1       7.473  -3.799  -4.430  0.00  0.00    -0.503 OA
ATOM     19  H   UNL     1       7.934  -4.592  -4.735  0.00  0.00    +0.292 HD
ENDBRANCH  14  18
BRANCH  13  20
ATOM     20  O   UNL     1       7.357  -4.227  -1.712  0.00  0.00    -0.491 OA
ATOM     21  C   UNL     1       7.221  -4.458  -0.308  0.00  0.00    +0.277 C 
ENDBRANCH  13  20
ENDBRANCH   2  11
BRANCH   4  22
ATOM     22  C   UNL     1       3.573  -8.197  -1.389  0.00  0.00    +0.044 A 
ATOM     23  C   UNL     1       4.534  -7.362  -0.824  0.00  0.00    +0.014 A 
ATOM     24  C   UNL     1       5.639  -7.907  -0.201  0.00  0.00    +0.001 A 
ATOM     25  C   UNL     1       5.796  -9.280  -0.136  0.00  0.00    +0.004 A 
ATOM     26  C   UNL     1       4.848 -10.117  -0.693  0.00  0.00    +0.046 A 
ATOM     27  C   UNL     1       3.731  -9.584  -1.317  0.00  0.00    +0.126 A 
BRANCH  27  28
ATOM     28  O   UNL     1       2.796 -10.406  -1.861  0.00  0.00    -0.506 OA
ATOM     29  H   UNL     1       2.963 -10.634  -2.785  0.00  0.00    +0.292 HD
ENDBRANCH  27  28
ENDBRANCH   4  22
BRANCH   1  30
ATOM     30  C   UNL     1       1.455  -2.521  -2.524  0.00  0.00    +0.109 C 
BRANCH  30  31
ATOM     31  C   UNL     1       0.739  -2.027  -1.265  0.00  0.00    +0.019 C 
BRANCH  31  32
ATOM     32  C   UNL     1       0.718  -0.497  -1.257  0.00  0.00    +0.001 C 
BRANCH  32  34
ATOM     33  C   UNL     1      -0.019   1.526   0.010  0.00  0.00    +0.004 C 
ATOM     34  C   UNL     1       0.002  -0.004   0.002  0.00  0.00    -0.003 C 
ENDBRANCH  32  34
ENDBRANCH  31  32
ENDBRANCH  30  31
ENDBRANCH   1  30
TORSDOF 9
