REMARK  Name = ZINC39696194
REMARK  9 active torsions:
REMARK  status: ('A' for Active; 'I' for Inactive)
REMARK    1  A    between atoms: C_1  and  C_2
REMARK    2  A    between atoms: C_2  and  C_3
REMARK    3  A    between atoms: C_6  and  C_9
REMARK    4  A    between atoms: C_9  and  C_11
REMARK    5  A    between atoms: C_9  and  N_12
REMARK    6  A    between atoms: C_13  and  C_15
REMARK    7  A    between atoms: C_26  and  C_28
REMARK    8  A    between atoms: C_32  and  O_33
REMARK    9  A    between atoms: O_33  and  C_34
REMARK                            x       y       z     vdW  Elec       q    Type
REMARK                         _______ _______ _______ _____ _____    ______ ____
ROOT
ATOM      1  C   UNL     1       5.160  -4.788  -4.902  0.00  0.00    +0.100 C 
ATOM      2  C   UNL     1       6.535  -4.113  -4.694  0.00  0.00    +0.121 C 
ATOM      3  N   UNL     1       7.515  -5.088  -5.228  0.00  0.00    -0.296 N 
ATOM      4  C   UNL     1       6.864  -5.638  -6.441  0.00  0.00    +0.115 C 
ATOM      5  C   UNL     1       5.380  -5.787  -6.050  0.00  0.00    -0.004 C 
ATOM      6  C   UNL     1       4.485  -5.436  -7.234  0.00  0.00    -0.010 C 
ATOM      7  C   UNL     1       4.679  -6.477  -8.341  0.00  0.00    -0.082 C 
ATOM      8  N   UNL     1       4.343  -7.810  -7.825  0.00  0.00    +0.379 N 
ATOM      9  C   UNL     1       5.269  -8.178  -6.747  0.00  0.00    -0.082 C 
ATOM     10  C   UNL     1       5.100  -7.209  -5.574  0.00  0.00    -0.010 C 
ATOM     11  C   UNL     1       8.724  -5.403  -4.724  0.00  0.00    +0.251 C 
ATOM     12  O   UNL     1       9.081  -4.935  -3.659  0.00  0.00    -0.270 OA
ATOM     13  H   UNL     1       3.399  -7.803  -7.468  0.00  0.00    -0.086 HD
ATOM     14  H   UNL     1       4.413  -8.485  -8.572  0.00  0.00    -0.086 HD
ENDROOT
BRANCH  11  15
ATOM     15  C   UNL     1       9.614  -6.313  -5.462  0.00  0.00    +0.087 A 
ATOM     16  C   UNL     1       9.655  -6.322  -6.839  0.00  0.00    +0.063 A 
ATOM     17  S   UNL     1      10.791  -7.499  -7.211  0.00  0.00    -0.081 S 
ATOM     18  C   UNL     1      11.250  -8.020  -5.573  0.00  0.00    +0.120 A 
ATOM     19  C   UNL     1      10.489  -7.236  -4.777  0.00  0.00    +0.158 A 
ATOM     20 CL   UNL     1      12.400  -9.235  -5.109  0.00  0.00    -0.072 Cl
BRANCH  19  21
ATOM     21  O   UNL     1      10.540  -7.315  -3.418  0.00  0.00    -0.492 OA
ATOM     22  C   UNL     1       9.646  -8.235  -2.787  0.00  0.00    +0.277 C 
ENDBRANCH  19  21
ENDBRANCH  11  15
BRANCH   1  24
ATOM     23  N   UNL     1       2.816  -4.029  -5.117  0.00  0.00    -0.308 N 
ATOM     24  C   UNL     1       4.126  -3.763  -5.289  0.00  0.00    +0.219 C 
ATOM     25  O   UNL     1       4.472  -2.698  -5.756  0.00  0.00    -0.275 OA
ATOM     26  H   UNL     1       2.539  -4.880  -4.743  0.00  0.00    +0.149 HD
BRANCH  23  27
ATOM     27  C   UNL     1       1.810  -3.032  -5.494  0.00  0.00    +0.100 C 
ATOM     28  C   UNL     1       1.611  -2.047  -4.340  0.00  0.00    +0.033 C 
BRANCH  27  32
ATOM     29  C   UNL     1      -1.887  -4.995  -6.346  0.00  0.00    -0.048 A 
ATOM     30  C   UNL     1      -1.469  -3.936  -7.131  0.00  0.00    +0.004 A 
ATOM     31  C   UNL     1      -0.273  -3.301  -6.855  0.00  0.00    +0.006 A 
ATOM     32  C   UNL     1       0.505  -3.724  -5.794  0.00  0.00    -0.027 A 
ATOM     33  C   UNL     1       0.087  -4.782  -5.009  0.00  0.00    +0.006 A 
ATOM     34  C   UNL     1      -1.111  -5.415  -5.282  0.00  0.00    +0.004 A 
BRANCH  29  36
ATOM     35  C   UNL     1      -4.323  -4.999  -5.882  0.00  0.00    +0.009 C 
ATOM     36  C   UNL     1      -3.191  -5.687  -6.647  0.00  0.00    +0.032 C 
ENDBRANCH  29  36
ENDBRANCH  27  32
ENDBRANCH  23  27
ENDBRANCH   1  24
TORSDOF 6
