REMARK  Name = ZINC04222307
REMARK  10 active torsions:
REMARK  status: ('A' for Active; 'I' for Inactive)
REMARK    1  A    between atoms: C_1  and  C_2
REMARK    2  A    between atoms: C_5  and  O_40
REMARK    3  A    between atoms: C_7  and  C_37
REMARK    4  A    between atoms: C_7  and  C_38
REMARK    5  A    between atoms: C_17  and  C_19
REMARK    6  A    between atoms: C_25  and  C_27
REMARK    7  A    between atoms: C_27  and  C_28
REMARK    8  A    between atoms: N_30  and  C_31
REMARK    9  A    between atoms: C_31  and  C_32
REMARK   10  A    between atoms: C_38  and  O_39
REMARK                            x       y       z     vdW  Elec       q    Type
REMARK                         _______ _______ _______ _____ _____    ______ ____
ROOT
ATOM      1  C   UNL     1       2.337   3.577   2.412  0.00  0.00    +0.012 C 
ATOM      2  C   UNL     1       3.208   3.223   1.205  0.00  0.00    -0.019 C 
ATOM      3  C   UNL     1       3.474   1.714   1.188  0.00  0.00    +0.010 C 
ATOM      4  C   UNL     1       2.164   0.944   1.028  0.00  0.00    +0.032 C 
ATOM      5  C   UNL     1       1.517   1.345  -0.301  0.00  0.00    +0.123 C 
ATOM      6  C   UNL     1       1.207   2.840  -0.266  0.00  0.00    +0.021 C 
ATOM      7  C   UNL     1       2.497   3.647  -0.082  0.00  0.00    +0.011 C 
ATOM      8  C   UNL     1       2.094   5.130   0.034  0.00  0.00    +0.049 C 
ATOM      9  C   UNL     1       3.252   5.907   0.553  0.00  0.00    +0.015 A 
ATOM     10  C   UNL     1       4.380   5.426   1.136  0.00  0.00    +0.058 A 
ATOM     11  N   UNL     1       5.272   6.336   1.520  0.00  0.00    -0.229 NA
ATOM     12  C   UNL     1       5.077   7.627   1.346  0.00  0.00    +0.165 A 
ATOM     13  S   UNL     1       3.517   7.659   0.578  0.00  0.00    -0.057 S 
ATOM     14  N   UNL     1       5.905   8.690   1.688  0.00  0.00    -0.264 N 
ATOM     15  C   UNL     1       5.522   9.954   1.423  0.00  0.00    +0.222 C 
ATOM     16  O   UNL     1       4.455  10.165   0.886  0.00  0.00    -0.275 OA
ATOM     17  C   UNL     1       4.566   3.927   1.316  0.00  0.00    +0.054 C 
ATOM     18  C   UNL     1       0.540   3.251  -1.580  0.00  0.00    +0.016 C 
ATOM     19  H   UNL     1       6.758   8.521   2.117  0.00  0.00    +0.157 HD
ENDROOT
BRANCH  15  20
ATOM     20  C   UNL     1       6.419  11.107   1.794  0.00  0.00    +0.075 C 
ATOM     21  C   UNL     1       6.658  11.102   3.305  0.00  0.00    +0.013 C 
ATOM     22  C   UNL     1       7.569  12.272   3.681  0.00  0.00    +0.001 C 
ATOM     23  C   UNL     1       6.904  13.588   3.275  0.00  0.00    +0.000 C 
ATOM     24  C   UNL     1       6.665  13.593   1.764  0.00  0.00    +0.001 C 
ATOM     25  C   UNL     1       5.754  12.423   1.387  0.00  0.00    +0.013 C 
ENDBRANCH  15  20
BRANCH   5  26
ATOM     26  O   UNL     1       0.305   0.609  -0.485  0.00  0.00    -0.391 OA
ATOM     27  H   UNL     1       0.428  -0.349  -0.517  0.00  0.00    +0.210 HD
ENDBRANCH   5  26
BRANCH  17  28
ATOM     28  C   UNL     1       5.172   3.651   2.694  0.00  0.00    +0.106 C 
BRANCH  28  29
ATOM     29  C   UNL     1       6.585   4.173   2.735  0.00  0.00    +0.214 C 
ATOM     30  O   UNL     1       7.061   4.713   1.759  0.00  0.00    -0.276 OA
ATOM     31  N   UNL     1       7.320   4.041   3.857  0.00  0.00    -0.311 N 
ATOM     32  H   UNL     1       6.939   3.609   4.638  0.00  0.00    +0.149 HD
BRANCH  31  33
ATOM     33  C   UNL     1       8.694   4.549   3.898  0.00  0.00    +0.146 C 
BRANCH  33  34
ATOM     34  C   UNL     1       9.290   4.277   5.255  0.00  0.00    +0.007 A 
ATOM     35  C   UNL     1       9.977   3.190   5.683  0.00  0.00    +0.013 A 
ATOM     36  C   UNL     1      10.439   3.159   6.985  0.00  0.00    +0.008 A 
ATOM     37  C   UNL     1      10.182   4.213   7.799  0.00  0.00    +0.045 A 
ATOM     38  S   UNL     1       9.268   5.300   6.718  0.00  0.00    -0.100 S 
ENDBRANCH  33  34
ENDBRANCH  31  33
ENDBRANCH  28  29
ENDBRANCH  17  28
BRANCH   6  39
ATOM     39  C   UNL     1       0.257   3.133   0.898  0.00  0.00    +0.165 C 
BRANCH  39  40
ATOM     40  O   UNL     1      -1.011   2.528   0.640  0.00  0.00    -0.394 OA
ATOM     41  H   UNL     1      -1.665   2.673   1.338  0.00  0.00    +0.209 HD
ENDBRANCH  39  40
ENDBRANCH   6  39
TORSDOF 8
