REMARK  Name = ZINC36970233
REMARK  2 active torsions:
REMARK  status: ('A' for Active; 'I' for Inactive)
REMARK    1  A    between atoms: C_2  and  N_11
REMARK    2  A    between atoms: N_11  and  C_12
REMARK                            x       y       z     vdW  Elec       q    Type
REMARK                         _______ _______ _______ _____ _____    ______ ____
ROOT
ATOM      1  C   UNL     1      -0.017   1.381   0.010  0.00  0.00    +0.074 A 
ATOM      2  C   UNL     1       1.176   2.091   0.002  0.00  0.00    +0.050 A 
ATOM      3  C   UNL     1       2.388   1.412  -0.013  0.00  0.00    +0.065 A 
ATOM      4  C   UNL     1       2.407   0.029  -0.021  0.00  0.00    +0.071 A 
ATOM      5  C   UNL     1       1.219  -0.682  -0.013  0.00  0.00    +0.168 A 
ATOM      6  C   UNL     1       0.002  -0.004   0.002  0.00  0.00    +0.168 A 
ATOM      7  O   UNL     1      -1.009  -0.922   0.006  0.00  0.00    -0.453 OA
ATOM      8  C   UNL     1      -0.407  -2.159  -0.419  0.00  0.00    +0.466 C 
ATOM      9  O   UNL     1       0.969  -2.026  -0.018  0.00  0.00    -0.453 OA
ATOM     10 CL   UNL     1       3.880   2.300  -0.023  0.00  0.00    -0.082 Cl
ENDROOT
BRANCH   2  11
ATOM     11  N   UNL     1       1.158   3.491   0.009  0.00  0.00    -0.340 N 
ATOM     12  H   UNL     1       1.991   3.987   0.004  0.00  0.00    +0.146 HD
BRANCH  11  13
ATOM     13  C   UNL     1      -0.121   4.206   0.025  0.00  0.00    +0.073 C 
ATOM     14  C   UNL     1      -0.649   4.323  -1.402  0.00  0.00    +0.045 C 
ATOM     15  C   UNL     1      -2.096   4.821  -1.385  0.00  0.00    +0.167 C 
ATOM     16  S   UNL     1      -2.134   6.491  -0.668  0.00  0.00    -0.031 S 
ATOM     17  O   UNL     1      -3.486   6.835  -0.396  0.00  0.00    -0.174 OA
ATOM     18  O   UNL     1      -1.351   7.351  -1.485  0.00  0.00    -0.174 OA
ATOM     19  C   UNL     1      -1.271   6.245   0.912  0.00  0.00    +0.167 C 
ATOM     20  C   UNL     1       0.084   5.588   0.639  0.00  0.00    +0.045 C 
ENDBRANCH  11  13
ENDBRANCH   2  11
TORSDOF 2
