REMARK  Name = ZINC43263293
REMARK  6 active torsions:
REMARK  status: ('A' for Active; 'I' for Inactive)
REMARK    1  A    between atoms: C_1  and  C_2
REMARK    2  A    between atoms: C_2  and  C_3
REMARK    3  A    between atoms: C_3  and  C_5
REMARK    4  A    between atoms: C_3  and  N_22
REMARK    5  A    between atoms: C_5  and  C_7
REMARK    6  A    between atoms: C_5  and  N_13
REMARK                            x       y       z     vdW  Elec       q    Type
REMARK                         _______ _______ _______ _____ _____    ______ ____
ROOT
ATOM      1  C   UNL     1       0.872  -2.034   1.171  0.00  0.00    +0.111 C 
ENDROOT
BRANCH   1   2
ATOM      2  N   UNL     1       1.581  -2.519   2.358  0.00  0.00    -0.324 N 
ATOM      3  C   UNL     1       2.840  -2.176   2.742  0.00  0.00    +0.200 A 
ATOM      4  N   UNL     1       3.155  -2.792   3.844  0.00  0.00    -0.236 NA
ATOM      5  C   UNL     1       2.119  -3.573   4.242  0.00  0.00    +0.089 A 
ATOM      6  C   UNL     1       1.092  -3.405   3.297  0.00  0.00    +0.069 A 
ATOM      7  C   UNL     1      -0.107  -4.087   3.451  0.00  0.00    +0.028 A 
ATOM      8  C   UNL     1      -0.283  -4.923   4.533  0.00  0.00    +0.002 A 
ATOM      9  C   UNL     1       0.730  -5.086   5.468  0.00  0.00    +0.002 A 
ATOM     10  C   UNL     1       1.919  -4.428   5.329  0.00  0.00    +0.030 A 
ENDBRANCH   1   2
BRANCH   1  11
ATOM     11  C   UNL     1       1.644  -2.415  -0.066  0.00  0.00    +0.012 A 
ATOM     12  C   UNL     1       1.252  -3.180  -1.114  0.00  0.00    +0.014 A 
ATOM     13  C   UNL     1       2.139  -3.399  -2.152  0.00  0.00    +0.023 A 
ATOM     14  C   UNL     1       3.374  -2.843  -2.090  0.00  0.00    +0.055 A 
ATOM     15  S   UNL     1       3.308  -1.971  -0.534  0.00  0.00    -0.084 S 
ATOM     16 BR   UNL     1       4.794  -2.955  -3.334  0.00  0.00    -0.043 Br
ENDBRANCH   1  11
BRANCH   1  17
ATOM     17  C   UNL     1       0.742  -0.511   1.242  0.00  0.00    -0.047 C 
BRANCH  17  18
ATOM     18  N   UNL     1      -0.010  -0.139   2.447  0.00  0.00    +0.382 N 
ATOM     19  H   UNL     1      -0.929  -0.554   2.411  0.00  0.00    -0.090 HD
ATOM     20  H   UNL     1       0.478  -0.473   3.265  0.00  0.00    -0.090 HD
ATOM     21  H   UNL     1      -0.096   0.865   2.494  0.00  0.00    -0.090 HD
ENDBRANCH  17  18
BRANCH  17  23
ATOM     22  C   UNL     1      -0.019   1.526   0.010  0.00  0.00    +0.002 C 
ATOM     23  C   UNL     1       0.002  -0.004   0.002  0.00  0.00    -0.017 C 
ENDBRANCH  17  23
ENDBRANCH   1  17
TORSDOF 5
