REMARK  Name = ZINC02290954
REMARK  8 active torsions:
REMARK  status: ('A' for Active; 'I' for Inactive)
REMARK    1  A    between atoms: C_1  and  O_2
REMARK    2  A    between atoms: O_2  and  C_3
REMARK    3  A    between atoms: C_8  and  C_9
REMARK    4  A    between atoms: C_9  and  N_10
REMARK    5  A    between atoms: C_11  and  C_13
REMARK    6  A    between atoms: N_24  and  C_27
REMARK    7  A    between atoms: C_25  and  N_26
REMARK    8  A    between atoms: C_27  and  C_28
REMARK                            x       y       z     vdW  Elec       q    Type
REMARK                         _______ _______ _______ _____ _____    ______ ____
ROOT
ATOM      1  C   UNL     1       4.197   5.540   2.950  0.00  0.00    +0.103 A 
ATOM      2  C   UNL     1       3.789   6.809   3.575  0.00  0.00    +0.122 A 
ATOM      3  C   UNL     1       4.348   6.772   4.929  0.00  0.00    +0.162 A 
ATOM      4  N   UNL     1       4.145   7.788   5.740  0.00  0.00    -0.226 NA
ATOM      5  C   UNL     1       3.432   8.843   5.323  0.00  0.00    +0.092 A 
ATOM      6  C   UNL     1       3.211   9.933   6.185  0.00  0.00    +0.030 A 
ATOM      7  C   UNL     1       2.486  11.000   5.754  0.00  0.00    +0.002 A 
ATOM      8  C   UNL     1       1.955  11.033   4.465  0.00  0.00    +0.002 A 
ATOM      9  C   UNL     1       2.148   9.998   3.604  0.00  0.00    +0.030 A 
ATOM     10  C   UNL     1       2.893   8.876   4.013  0.00  0.00    +0.090 A 
ATOM     11  N   UNL     1       3.089   7.852   3.175  0.00  0.00    -0.241 NA
ATOM     12  N   UNL     1       5.019   5.574   5.055  0.00  0.00    -0.310 N 
ATOM     13  C   UNL     1       4.931   4.848   3.908  0.00  0.00    +0.112 A 
ENDROOT
BRANCH   1  15
ATOM     14  N   UNL     1       2.767   4.381   1.359  0.00  0.00    -0.307 N 
ATOM     15  C   UNL     1       3.886   5.093   1.594  0.00  0.00    +0.250 C 
ATOM     16  O   UNL     1       4.640   5.364   0.676  0.00  0.00    -0.270 OA
ATOM     17  H   UNL     1       2.166   4.166   2.090  0.00  0.00    +0.149 HD
BRANCH  14  18
ATOM     18  C   UNL     1       2.456   3.933  -0.001  0.00  0.00    +0.143 C 
BRANCH  18  24
ATOM     19  C   UNL     1      -0.050   3.842   0.023  0.00  0.00    +0.125 A 
ATOM     20  C   UNL     1      -1.242   3.131   0.031  0.00  0.00    +0.046 A 
ATOM     21  C   UNL     1      -1.220   1.750   0.017  0.00  0.00    +0.004 A 
ATOM     22  C   UNL     1      -0.013   1.076   0.008  0.00  0.00    +0.001 A 
ATOM     23  C   UNL     1       1.176   1.782   0.000  0.00  0.00    +0.009 A 
ATOM     24  C   UNL     1       1.160   3.164   0.008  0.00  0.00    +0.011 A 
BRANCH  19  26
ATOM     25  C   UNL     1      -1.350   5.832   0.047  0.00  0.00    +0.277 C 
ATOM     26  O   UNL     1      -0.069   5.201   0.031  0.00  0.00    -0.495 OA
ENDBRANCH  19  26
ENDBRANCH  18  24
ENDBRANCH  14  18
ENDBRANCH   1  15
BRANCH  13  27
ATOM     27  N   UNL     1       5.489   3.610   3.720  0.00  0.00    -0.344 N 
ATOM     28  H   UNL     1       5.384   3.155   2.870  0.00  0.00    +0.144 HD
ATOM     29  H   UNL     1       5.988   3.190   4.438  0.00  0.00    +0.144 HD
ENDBRANCH  13  27
BRANCH  12  30
ATOM     30  C   UNL     1       5.726   5.139   6.263  0.00  0.00    +0.156 C 
BRANCH  30  31
ATOM     31  C   UNL     1       4.765   4.362   7.164  0.00  0.00    +0.138 C 
ATOM     32  C   UNL     1       5.468   3.999   8.490  0.00  0.00    +0.035 C 
ATOM     33  C   UNL     1       4.941   2.563   8.760  0.00  0.00    +0.031 C 
ATOM     34  C   UNL     1       4.819   2.018   7.314  0.00  0.00    +0.160 C 
ATOM     35  O   UNL     1       4.383   3.137   6.527  0.00  0.00    -0.375 OA
ENDBRANCH  30  31
ENDBRANCH  12  30
TORSDOF 7
