REMARK  Name = ZINC19741202
REMARK  9 active torsions:
REMARK  status: ('A' for Active; 'I' for Inactive)
REMARK    1  A    between atoms: C_1  and  C_2
REMARK    2  A    between atoms: C_2  and  C_3
REMARK    3  A    between atoms: C_2  and  C_4
REMARK    4  A    between atoms: C_6  and  C_9
REMARK    5  A    between atoms: C_9  and  N_10
REMARK    6  A    between atoms: N_10  and  C_11
REMARK    7  A    between atoms: C_11  and  C_12
REMARK    8  A    between atoms: C_13  and  C_20
REMARK    9  A    between atoms: N_26  and  C_29
REMARK                            x       y       z     vdW  Elec       q    Type
REMARK                         _______ _______ _______ _____ _____    ______ ____
ROOT
ATOM      1  C   UNL     1       1.558   3.367  -0.184  0.00  0.00    +0.039 A 
ATOM      2  C   UNL     1       2.904   3.412   0.008  0.00  0.00    +0.146 A 
ATOM      3  N   UNL     1       3.337   2.142   0.218  0.00  0.00    -0.216 NA
ATOM      4  C   UNL     1       2.316   1.341   0.162  0.00  0.00    +0.178 A 
ATOM      5  N   UNL     1       1.164   2.045  -0.088  0.00  0.00    -0.299 N 
ATOM      6  C   UNL     1      -0.003   1.317  -0.175  0.00  0.00    +0.100 A 
ATOM      7  C   UNL     1       0.004  -0.006  -0.021  0.00  0.00    +0.067 A 
ATOM      8  S   UNL     1       1.735  -0.335   0.271  0.00  0.00    -0.058 S 
ENDROOT
BRANCH   2   9
ATOM      9  C   UNL     1       3.743   4.623  -0.010  0.00  0.00    +0.267 C 
ATOM     10  O   UNL     1       3.226   5.720  -0.105  0.00  0.00    -0.268 OA
ATOM     11  N   UNL     1       5.084   4.516   0.078  0.00  0.00    -0.298 N 
ATOM     12  C   UNL     1       5.889   5.749   0.180  0.00  0.00    +0.106 C 
ATOM     13  C   UNL     1       7.022   5.588   1.213  0.00  0.00    +0.000 C 
ATOM     14  C   UNL     1       6.515   4.818   2.413  0.00  0.00    -0.078 C 
ATOM     15  N   UNL     1       6.783   3.394   2.216  0.00  0.00    +0.379 N 
ATOM     16  C   UNL     1       5.800   2.662   1.511  0.00  0.00    -0.060 C 
ATOM     17  C   UNL     1       5.679   3.196   0.063  0.00  0.00    +0.089 C 
ATOM     18  C   UNL     1       7.114   2.740   3.489  0.00  0.00    -0.096 C 
ATOM     19  H   UNL     1       7.628   3.360   1.514  0.00  0.00    -0.082 HD
ENDBRANCH   2   9
BRANCH   1  20
ATOM     20  C   UNL     1       0.658   4.545  -0.453  0.00  0.00    -0.025 C 
BRANCH  20  21
ATOM     21  N   UNL     1       0.166   5.087   0.821  0.00  0.00    +0.386 N 
ATOM     22  H   UNL     1       1.029   5.397   1.429  0.00  0.00    -0.085 HD
ATOM     23  H   UNL     1      -0.389   4.297   1.349  0.00  0.00    -0.085 HD
BRANCH  21  24
ATOM     24  C   UNL     1      -0.716   6.239   0.598  0.00  0.00    -0.025 C 
BRANCH  24  27
ATOM     25  C   UNL     1      -2.686   6.691   3.670  0.00  0.00    +0.081 A 
ATOM     26  N   UNL     1      -2.257   6.245   2.512  0.00  0.00    -0.251 NA
ATOM     27  C   UNL     1      -1.200   6.766   1.924  0.00  0.00    +0.032 A 
ATOM     28  C   UNL     1      -0.560   7.793   2.539  0.00  0.00    +0.068 A 
ATOM     29  S   UNL     1      -1.556   7.964   4.013  0.00  0.00    -0.080 S 
BRANCH  25  31
ATOM     30  C   UNL     1      -3.372   5.746   5.857  0.00  0.00    +0.014 C 
ATOM     31  C   UNL     1      -3.861   6.222   4.488  0.00  0.00    +0.038 C 
ATOM     32  C   UNL     1      -4.848   7.377   4.672  0.00  0.00    +0.014 C 
ENDBRANCH  25  31
ENDBRANCH  24  27
ENDBRANCH  21  24
ENDBRANCH  20  21
ENDBRANCH   1  20
TORSDOF 6
