REMARK  Name = ZINC39638430
REMARK  11 active torsions:
REMARK  status: ('A' for Active; 'I' for Inactive)
REMARK    1  A    between atoms: C_1  and  C_2
REMARK    2  A    between atoms: C_2  and  C_3
REMARK    3  A    between atoms: C_3  and  C_5
REMARK    4  A    between atoms: C_3  and  C_11
REMARK    5  A    between atoms: C_15  and  C_24
REMARK    6  A    between atoms: N_26  and  C_27
REMARK    7  A    between atoms: C_27  and  C_28
REMARK    8  A    between atoms: C_32  and  O_36
REMARK    9  A    between atoms: C_33  and  O_34
REMARK   10  A    between atoms: O_34  and  C_35
REMARK   11  A    between atoms: O_36  and  C_37
REMARK                            x       y       z     vdW  Elec       q    Type
REMARK                         _______ _______ _______ _____ _____    ______ ____
ROOT
ATOM      1  C   UNL     1       0.140  -0.045   2.298  0.00  0.00    +0.223 C 
ATOM      2  O   UNL     1      -0.085  -0.863   3.164  0.00  0.00    -0.275 OA
ATOM      3  N   UNL     1      -0.159   1.254   2.503  0.00  0.00    -0.300 N 
ATOM      4  C   UNL     1       0.120   2.402   1.608  0.00  0.00    +0.121 C 
ATOM      5  C   UNL     1      -1.138   3.293   1.714  0.00  0.00    +0.100 C 
ATOM      6  C   UNL     1      -1.762   2.931   3.072  0.00  0.00    -0.004 C 
ATOM      7  C   UNL     1      -0.845   1.855   3.671  0.00  0.00    +0.115 C 
ATOM      8  C   UNL     1      -1.800   4.158   3.979  0.00  0.00    -0.010 C 
ATOM      9  C   UNL     1      -2.478   3.787   5.302  0.00  0.00    -0.082 C 
ATOM     10  N   UNL     1      -3.839   3.305   5.039  0.00  0.00    +0.379 N 
ATOM     11  C   UNL     1      -3.788   2.072   4.243  0.00  0.00    -0.082 C 
ATOM     12  C   UNL     1      -3.167   2.370   2.876  0.00  0.00    -0.010 C 
ATOM     13  H   UNL     1      -4.303   3.119   5.915  0.00  0.00    -0.086 HD
ATOM     14  H   UNL     1      -4.352   4.011   4.532  0.00  0.00    -0.086 HD
ENDROOT
BRANCH   5  15
ATOM     15  C   UNL     1      -0.753   4.750   1.682  0.00  0.00    +0.218 C 
ATOM     16  O   UNL     1       0.338   5.097   2.081  0.00  0.00    -0.275 OA
ATOM     17  N   UNL     1      -1.621   5.666   1.209  0.00  0.00    -0.311 N 
ATOM     18  H   UNL     1      -2.494   5.388   0.890  0.00  0.00    +0.149 HD
BRANCH  17  19
ATOM     19  C   UNL     1      -1.247   7.082   1.178  0.00  0.00    +0.143 C 
BRANCH  19  20
ATOM     20  C   UNL     1      -2.385   7.890   0.610  0.00  0.00    +0.015 A 
ATOM     21  C   UNL     1      -2.356   8.289  -0.714  0.00  0.00    +0.009 A 
ATOM     22  C   UNL     1      -3.398   9.030  -1.239  0.00  0.00    +0.004 A 
ATOM     23  C   UNL     1      -4.474   9.376  -0.442  0.00  0.00    +0.049 A 
ATOM     24  C   UNL     1      -4.509   8.980   0.885  0.00  0.00    +0.162 A 
ATOM     25  C   UNL     1      -3.463   8.228   1.412  0.00  0.00    +0.166 A 
BRANCH  25  26
ATOM     26  O   UNL     1      -3.495   7.832   2.712  0.00  0.00    -0.491 OA
ATOM     27  C   UNL     1      -2.919   8.717   3.675  0.00  0.00    +0.277 C 
ENDBRANCH  25  26
BRANCH  24  28
ATOM     28  O   UNL     1      -5.566   9.319   1.670  0.00  0.00    -0.491 OA
ATOM     29  C   UNL     1      -6.607  10.086   1.061  0.00  0.00    +0.277 C 
ENDBRANCH  24  28
ENDBRANCH  19  20
ENDBRANCH  17  19
ENDBRANCH   5  15
BRANCH   1  30
ATOM     30  C   UNL     1       0.752  -0.480   0.991  0.00  0.00    +0.105 C 
BRANCH  30  31
ATOM     31  C   UNL     1       2.254  -0.482   1.117  0.00  0.00    -0.036 A 
ATOM     32  C   UNL     1       2.868  -1.291   2.054  0.00  0.00    +0.004 A 
ATOM     33  C   UNL     1       4.246  -1.293   2.170  0.00  0.00    +0.000 A 
ATOM     34  C   UNL     1       5.009  -0.486   1.347  0.00  0.00    +0.000 A 
ATOM     35  C   UNL     1       4.396   0.322   0.409  0.00  0.00    +0.000 A 
ATOM     36  C   UNL     1       3.018   0.321   0.291  0.00  0.00    +0.004 A 
ENDBRANCH  30  31
BRANCH  30  38
ATOM     37  C   UNL     1      -1.238  -1.859   0.378  0.00  0.00    +0.005 C 
ATOM     38  C   UNL     1       0.268  -1.889   0.645  0.00  0.00    +0.014 C 
ENDBRANCH  30  38
ENDBRANCH   1  30
TORSDOF 8
