REMARK  Name = ZINC08621328
REMARK  10 active torsions:
REMARK  status: ('A' for Active; 'I' for Inactive)
REMARK    1  A    between atoms: C_1  and  C_2
REMARK    2  A    between atoms: C_2  and  C_3
REMARK    3  A    between atoms: C_3  and  C_5
REMARK    4  A    between atoms: C_3  and  N_6
REMARK    5  A    between atoms: C_15  and  S_16
REMARK    6  A    between atoms: S_16  and  C_17
REMARK    7  A    between atoms: C_17  and  C_19
REMARK    8  A    between atoms: C_17  and  C_22
REMARK    9  A    between atoms: C_19  and  C_20
REMARK   10  A    between atoms: C_19  and  C_21
REMARK                            x       y       z     vdW  Elec       q    Type
REMARK                         _______ _______ _______ _____ _____    ______ ____
ROOT
ATOM      1  N   UNL     1       2.148  -0.104   1.172  0.00  0.00    -0.284 N 
ATOM      2  C   UNL     1       2.903  -0.514   0.136  0.00  0.00    +0.263 A 
ATOM      3  O   UNL     1       2.425  -1.218  -0.737  0.00  0.00    -0.267 OA
ATOM      4  C   UNL     1       4.275  -0.113   0.075  0.00  0.00    +0.076 A 
ATOM      5  C   UNL     1       5.269  -0.443  -0.953  0.00  0.00    -0.023 A 
ATOM      6  C   UNL     1       6.508   0.057  -0.780  0.00  0.00    -0.004 A 
ATOM      7  S   UNL     1       6.427   0.990   0.727  0.00  0.00    -0.073 S 
ATOM      8  C   UNL     1       4.724   0.697   1.130  0.00  0.00    +0.117 A 
ATOM      9  N   UNL     1       3.926   1.068   2.125  0.00  0.00    -0.216 NA
ATOM     10  C   UNL     1       2.665   0.689   2.155  0.00  0.00    +0.174 A 
ATOM     11  C   UNL     1       7.707  -0.136  -1.656  0.00  0.00    +0.043 C 
ATOM     12  C   UNL     1       7.320   0.145  -3.114  0.00  0.00    +0.005 C 
ATOM     13  C   UNL     1       6.836  -1.157  -3.743  0.00  0.00    +0.001 C 
ATOM     14  C   UNL     1       6.134  -2.015  -2.692  0.00  0.00    +0.005 C 
ATOM     15  C   UNL     1       4.897  -1.302  -2.159  0.00  0.00    +0.037 C 
ENDROOT
BRANCH   1  16
ATOM     16  C   UNL     1       0.742  -0.511   1.242  0.00  0.00    +0.089 C 
ATOM     17  C   UNL     1       0.655  -2.037   1.299  0.00  0.00    +0.031 C 
BRANCH  16  19
ATOM     18  C   UNL     1      -0.019   1.526   0.010  0.00  0.00    +0.006 C 
ATOM     19  C   UNL     1       0.002  -0.004   0.002  0.00  0.00    +0.021 C 
ENDBRANCH  16  19
ENDBRANCH   1  16
BRANCH  10  20
ATOM     20  S   UNL     1       1.633   1.206   3.486  0.00  0.00    -0.075 S 
BRANCH  20  21
ATOM     21  C   UNL     1       2.727   2.218   4.521  0.00  0.00    +0.143 C 
BRANCH  21  22
ATOM     22  C   UNL     1       1.995   2.629   5.773  0.00  0.00    +0.234 C 
ATOM     23  O   UNL     1       0.783   2.602   5.804  0.00  0.00    -0.274 OA
ATOM     24  N   UNL     1       2.688   3.026   6.859  0.00  0.00    -0.239 N 
ATOM     25  C   UNL     1       2.034   3.393   7.979  0.00  0.00    +0.303 C 
ATOM     26  O   UNL     1       0.819   3.366   8.009  0.00  0.00    -0.253 OA
ATOM     27  N   UNL     1       2.727   3.791   9.064  0.00  0.00    -0.313 N 
ATOM     28  H   UNL     1       3.657   3.048   6.835  0.00  0.00    +0.159 HD
ATOM     29  H   UNL     1       3.696   3.812   9.040  0.00  0.00    +0.146 HD
ATOM     30  H   UNL     1       2.256   4.055   9.870  0.00  0.00    +0.146 HD
ENDBRANCH  21  22
BRANCH  21  31
ATOM     31  C   UNL     1       3.151   3.467   3.746  0.00  0.00    +0.005 C 
ATOM     32  C   UNL     1       1.925   4.341   3.477  0.00  0.00    +0.009 C 
ATOM     33  C   UNL     1       4.171   4.256   4.570  0.00  0.00    +0.009 C 
ENDBRANCH  21  31
ENDBRANCH  20  21
ENDBRANCH  10  20
TORSDOF 6
