REMARK  Name = ZINC50650056
REMARK  5 active torsions:
REMARK  status: ('A' for Active; 'I' for Inactive)
REMARK    1  A    between atoms: C_1  and  C_2
REMARK    2  A    between atoms: N_8  and  S_9
REMARK    3  A    between atoms: S_9  and  C_12
REMARK    4  A    between atoms: C_17  and  N_18
REMARK    5  A    between atoms: N_18  and  C_19
REMARK                            x       y       z     vdW  Elec       q    Type
REMARK                         _______ _______ _______ _____ _____    ______ ____
ROOT
ATOM      1  S   UNL     1       0.072  -4.449   2.227  0.00  0.00    +0.104 S 
ATOM      2  O   UNL     1      -1.171  -4.858   1.672  0.00  0.00    -0.146 OA
ATOM      3  O   UNL     1       1.319  -4.825   1.660  0.00  0.00    -0.146 OA
ENDROOT
BRANCH   1  11
ATOM      4  C   UNL     1      -0.018   1.503   0.010  0.00  0.00    +0.044 C 
ATOM      5  C   UNL     1       0.002  -0.004   0.002  0.00  0.00    -0.046 A 
ATOM      6  C   UNL     1       0.006  -0.704  -1.217  0.00  0.00    +0.021 A 
ATOM      7  C   UNL     1       0.024  -2.053  -1.230  0.00  0.00    +0.084 A 
ATOM      8  N   UNL     1       0.039  -2.761  -0.066  0.00  0.00    -0.345 N 
ATOM      9  C   UNL     1       0.036  -2.108   1.143  0.00  0.00    +0.153 A 
ATOM     10  C   UNL     1       0.022  -0.693   1.173  0.00  0.00    +0.051 A 
ATOM     11  N   UNL     1       0.051  -2.794   2.267  0.00  0.00    -0.111 NA
ATOM     12  H   UNL     1       0.052  -3.731  -0.090  0.00  0.00    +0.167 HD
ENDBRANCH   1  11
BRANCH   1  13
ATOM     13  C   UNL     1       0.087  -5.011   3.896  0.00  0.00    +0.153 A 
ATOM     14  C   UNL     1      -0.980  -5.731   4.403  0.00  0.00    +0.049 A 
ATOM     15  C   UNL     1      -0.926  -6.154   5.725  0.00  0.00    +0.038 A 
ATOM     16  C   UNL     1       0.183  -5.846   6.489  0.00  0.00    +0.128 A 
ATOM     17  N   UNL     1       1.186  -5.157   5.978  0.00  0.00    -0.237 NA
ATOM     18  C   UNL     1       1.174  -4.742   4.721  0.00  0.00    +0.146 A 
ATOM     19 BR   UNL     1      -2.355  -7.141   6.472  0.00  0.00    -0.049 Br
BRANCH  18  20
ATOM     20  N   UNL     1       2.256  -4.024   4.222  0.00  0.00    -0.331 N 
ATOM     21  C   UNL     1       3.404  -3.736   5.085  0.00  0.00    +0.127 C 
ATOM     22  H   UNL     1       2.250  -3.714   3.303  0.00  0.00    +0.147 HD
ENDBRANCH  18  20
ENDBRANCH   1  13
TORSDOF 3
