REMARK  Name = ZINC62038731
REMARK  8 active torsions:
REMARK  status: ('A' for Active; 'I' for Inactive)
REMARK    1  A    between atoms: C_1  and  C_2
REMARK    2  A    between atoms: C_2  and  C_4
REMARK    3  A    between atoms: C_2  and  S_16
REMARK    4  A    between atoms: N_6  and  C_7
REMARK    5  A    between atoms: C_9  and  C_14
REMARK    6  A    between atoms: C_12  and  O_13
REMARK    7  A    between atoms: S_16  and  C_17
REMARK    8  A    between atoms: C_23  and  C_27
REMARK                            x       y       z     vdW  Elec       q    Type
REMARK                         _______ _______ _______ _____ _____    ______ ____
ROOT
ATOM      1  S   UNL     1      -1.698  -0.657   0.011  0.00  0.00    -0.075 S 
ENDROOT
BRANCH   1   2
ATOM      2  C   UNL     1      -2.363  -0.131  -1.534  0.00  0.00    +0.171 A 
ATOM      3  N   UNL     1      -1.604   0.557  -2.361  0.00  0.00    -0.185 NA
ATOM      4  C   UNL     1      -2.042   0.986  -3.548  0.00  0.00    +0.282 A 
ATOM      5  O   UNL     1      -1.304   1.621  -4.285  0.00  0.00    -0.265 OA
ATOM      6  C   UNL     1      -3.435   0.685  -3.962  0.00  0.00    +0.072 A 
ATOM      7  C   UNL     1      -4.102   1.031  -5.149  0.00  0.00    +0.031 A 
ATOM      8  C   UNL     1      -5.392   0.652  -5.333  0.00  0.00    +0.022 A 
ATOM      9  S   UNL     1      -5.761  -0.230  -3.826  0.00  0.00    -0.070 S 
ATOM     10  C   UNL     1      -4.185  -0.050  -3.033  0.00  0.00    +0.093 A 
ATOM     11  N   UNL     1      -3.650  -0.449  -1.849  0.00  0.00    -0.328 N 
ATOM     12  H   UNL     1      -4.189  -0.960  -1.224  0.00  0.00    +0.168 HD
BRANCH   8  13
ATOM     13  C   UNL     1      -6.273   0.907  -6.493  0.00  0.00    -0.011 A 
ATOM     14  C   UNL     1      -5.794   1.622  -7.593  0.00  0.00    +0.009 A 
ATOM     15  C   UNL     1      -6.621   1.857  -8.672  0.00  0.00    +0.001 A 
ATOM     16  C   UNL     1      -7.922   1.386  -8.665  0.00  0.00    +0.000 A 
ATOM     17  C   UNL     1      -8.403   0.678  -7.579  0.00  0.00    +0.001 A 
ATOM     18  C   UNL     1      -7.584   0.431  -6.496  0.00  0.00    +0.009 A 
ENDBRANCH   8  13
ENDBRANCH   1   2
BRANCH   1  20
ATOM     19  C   UNL     1      -0.026   1.508  -0.005  0.00  0.00    +0.029 C 
ATOM     20  C   UNL     1       0.002  -0.021  -0.004  0.00  0.00    +0.137 C 
BRANCH  20  21
ATOM     21  C   UNL     1       0.731  -0.509   1.221  0.00  0.00    +0.230 C 
ATOM     22  O   UNL     1       0.105  -0.894   2.186  0.00  0.00    -0.274 OA
ATOM     23  N   UNL     1       2.079  -0.519   1.244  0.00  0.00    -0.282 N 
ATOM     24  H   UNL     1       2.579  -0.273   0.450  0.00  0.00    +0.155 HD
BRANCH  23  25
ATOM     25  C   UNL     1       2.757  -0.883   2.415  0.00  0.00    +0.076 A 
ATOM     26  C   UNL     1       2.229  -1.853   3.246  0.00  0.00    +0.038 A 
ATOM     27  C   UNL     1       2.910  -2.214   4.414  0.00  0.00    +0.016 A 
ATOM     28  C   UNL     1       4.122  -1.590   4.735  0.00  0.00    +0.015 A 
ATOM     29  C   UNL     1       4.641  -0.625   3.902  0.00  0.00    +0.048 A 
ATOM     30  C   UNL     1       3.969  -0.270   2.739  0.00  0.00    +0.138 A 
BRANCH  30  31
ATOM     31  O   UNL     1       4.488   0.678   1.919  0.00  0.00    -0.505 OA
ATOM     32  H   UNL     1       4.203   1.578   2.129  0.00  0.00    +0.292 HD
ENDBRANCH  30  31
BRANCH  27  33
ATOM     33  C   UNL     1       2.355  -3.244   5.302  0.00  0.00    +0.258 C 
ATOM     34  O   UNL     1       2.947  -3.555   6.314  0.00  0.00    -0.296 OA
ENDBRANCH  27  33
ENDBRANCH  23  25
ENDBRANCH  20  21
ENDBRANCH   1  20
TORSDOF 7
