REMARK  Name = ZINC36637802
REMARK  11 active torsions:
REMARK  status: ('A' for Active; 'I' for Inactive)
REMARK    1  A    between atoms: C_1  and  C_2
REMARK    2  A    between atoms: C_2  and  N_3
REMARK    3  A    between atoms: N_3  and  C_4
REMARK    4  A    between atoms: N_3  and  C_6
REMARK    5  A    between atoms: C_4  and  C_5
REMARK    6  A    between atoms: C_6  and  C_7
REMARK    7  A    between atoms: C_7  and  N_8
REMARK    8  A    between atoms: C_19  and  C_21
REMARK    9  A    between atoms: C_24  and  S_27
REMARK   10  A    between atoms: S_27  and  N_30
REMARK   11  A    between atoms: C_33  and  C_36
REMARK                            x       y       z     vdW  Elec       q    Type
REMARK                         _______ _______ _______ _____ _____    ______ ____
ROOT
ATOM      1  N   UNL     1      -3.095  -4.306   0.563  0.00  0.00    -0.248 N 
ATOM      2  C   UNL     1      -3.517  -4.912   1.735  0.00  0.00    +0.168 A 
ATOM      3  N   UNL     1      -4.279  -4.425   2.686  0.00  0.00    -0.224 NA
ATOM      4  C   UNL     1      -4.613  -5.136   3.785  0.00  0.00    +0.080 A 
ATOM      5  C   UNL     1      -5.419  -4.732   4.874  0.00  0.00    +0.032 A 
ATOM      6  C   UNL     1      -5.662  -5.583   5.920  0.00  0.00    +0.040 A 
ATOM      7  C   UNL     1      -5.129  -6.866   5.951  0.00  0.00    +0.125 A 
ATOM      8  C   UNL     1      -4.336  -7.294   4.900  0.00  0.00    +0.055 A 
ATOM      9  C   UNL     1      -4.089  -6.447   3.849  0.00  0.00    +0.043 A 
ATOM     10  S   UNL     1      -3.169  -6.560   2.333  0.00  0.00    -0.052 S 
ATOM     11  F   UNL     1      -5.382  -7.686   6.994  0.00  0.00    -0.205 F 
ATOM     12  C   UNL     1      -2.312  -4.982  -0.300  0.00  0.00    +0.252 C 
ATOM     13  O   UNL     1      -2.020  -6.140  -0.078  0.00  0.00    -0.270 OA
ENDROOT
BRANCH  12  14
ATOM     14  C   UNL     1      -1.808  -4.314  -1.519  0.00  0.00    +0.037 A 
ATOM     15  C   UNL     1      -1.577  -2.937  -1.519  0.00  0.00    +0.015 A 
ATOM     16  C   UNL     1      -1.107  -2.320  -2.659  0.00  0.00    +0.029 A 
ATOM     17  C   UNL     1      -0.865  -3.062  -3.801  0.00  0.00    +0.106 A 
ATOM     18  C   UNL     1      -1.091  -4.427  -3.808  0.00  0.00    +0.029 A 
ATOM     19  C   UNL     1      -1.556  -5.057  -2.673  0.00  0.00    +0.015 A 
BRANCH  17  20
ATOM     20  S   UNL     1      -0.265  -2.265  -5.254  0.00  0.00    +0.061 S 
ATOM     21  O   UNL     1      -0.636  -3.088  -6.351  0.00  0.00    -0.153 OA
ATOM     22  O   UNL     1      -0.653  -0.901  -5.159  0.00  0.00    -0.153 OA
BRANCH  20  23
ATOM     23  N   UNL     1       1.389  -2.293  -5.181  0.00  0.00    -0.177 NA
ATOM     24  C   UNL     1       2.128  -1.198  -4.537  0.00  0.00    +0.110 C 
ATOM     25  C   UNL     1       3.174  -0.664  -5.520  0.00  0.00    +0.020 C 
ATOM     26  C   UNL     1       4.055  -1.820  -6.000  0.00  0.00    -0.012 C 
ATOM     27  C   UNL     1       3.191  -2.853  -6.727  0.00  0.00    +0.020 C 
ATOM     28  C   UNL     1       2.145  -3.415  -5.752  0.00  0.00    +0.110 C 
ATOM     29  C   UNL     1       5.123  -1.284  -6.956  0.00  0.00    +0.007 C 
ENDBRANCH  20  23
ENDBRANCH  17  20
ENDBRANCH  12  14
BRANCH   1  30
ATOM     30  C   UNL     1      -3.501  -2.931   0.263  0.00  0.00    +0.097 C 
BRANCH  30  31
ATOM     31  C   UNL     1      -2.655  -1.958   1.087  0.00  0.00    -0.059 C 
BRANCH  31  32
ATOM     32  N   UNL     1      -2.974  -0.579   0.695  0.00  0.00    +0.380 N 
ATOM     33  H   UNL     1      -2.840  -0.471  -0.299  0.00  0.00    -0.082 HD
BRANCH  32  35
ATOM     34  C   UNL     1      -4.743   1.106   0.516  0.00  0.00    -0.017 C 
ATOM     35  C   UNL     1      -4.373  -0.285   1.035  0.00  0.00    -0.082 C 
ENDBRANCH  32  35
BRANCH  32  36
ATOM     36  C   UNL     1      -2.091   0.351   1.413  0.00  0.00    -0.082 C 
ATOM     37  C   UNL     1      -0.651   0.161   0.931  0.00  0.00    -0.017 C 
ENDBRANCH  32  36
ENDBRANCH  31  32
ENDBRANCH  30  31
ENDBRANCH   1  30
TORSDOF 8
