REMARK  Name = ZINC00944825
REMARK  5 active torsions:
REMARK  status: ('A' for Active; 'I' for Inactive)
REMARK    1  A    between atoms: C_1  and  C_2
REMARK    2  A    between atoms: C_5  and  N_9
REMARK    3  A    between atoms: C_12  and  N_17
REMARK    4  A    between atoms: N_17  and  C_18
REMARK    5  A    between atoms: C_23  and  O_24
REMARK                            x       y       z     vdW  Elec       q    Type
REMARK                         _______ _______ _______ _____ _____    ______ ____
ROOT
ATOM      1  N   UNL     1      -2.474   4.449  -0.098  0.00  0.00    -0.200 N 
ATOM      2  C   UNL     1      -3.696   3.887  -0.146  0.00  0.00    +0.273 C 
ATOM      3  O   UNL     1      -3.932   2.710  -0.325  0.00  0.00    -0.268 OA
ATOM      4  C   UNL     1      -4.705   4.958   0.059  0.00  0.00    +0.119 C 
ATOM      5  C   UNL     1      -4.010   6.116   0.211  0.00  0.00    +0.130 C 
ATOM      6  C   UNL     1      -2.588   5.773   0.109  0.00  0.00    +0.271 C 
ATOM      7  O   UNL     1      -1.663   6.557   0.196  0.00  0.00    -0.268 OA
ATOM      8 CL   UNL     1      -4.677   7.697   0.477  0.00  0.00    -0.076 Cl
ENDROOT
BRANCH   1  13
ATOM      9  C   UNL     1       2.429   1.655  -0.699  0.00  0.00    +0.045 C 
ATOM     10  C   UNL     1       1.127   2.396  -0.539  0.00  0.00    -0.032 A 
ATOM     11  C   UNL     1       1.133   3.763  -0.330  0.00  0.00    +0.006 A 
ATOM     12  C   UNL     1      -0.059   4.446  -0.183  0.00  0.00    +0.024 A 
ATOM     13  C   UNL     1      -1.264   3.759  -0.246  0.00  0.00    +0.046 A 
ATOM     14  C   UNL     1      -1.268   2.388  -0.461  0.00  0.00    +0.044 A 
ATOM     15  C   UNL     1      -0.072   1.708  -0.602  0.00  0.00    +0.046 A 
ATOM     16 CL   UNL     1      -0.075  -0.007  -0.865  0.00  0.00    -0.083 Cl
ENDBRANCH   1  13
BRANCH   4  17
ATOM     17  N   UNL     1      -6.076   4.808   0.084  0.00  0.00    -0.306 N 
ATOM     18  H   UNL     1      -6.629   5.300  -0.543  0.00  0.00    +0.152 HD
BRANCH  17  19
ATOM     19  C   UNL     1      -6.668   3.948   1.012  0.00  0.00    +0.073 A 
ATOM     20  C   UNL     1      -5.893   3.339   1.990  0.00  0.00    +0.027 A 
ATOM     21  C   UNL     1      -6.480   2.489   2.907  0.00  0.00    +0.002 A 
ATOM     22  C   UNL     1      -7.840   2.243   2.854  0.00  0.00    +0.004 A 
ATOM     23  C   UNL     1      -8.619   2.845   1.884  0.00  0.00    +0.047 A 
ATOM     24  C   UNL     1      -8.039   3.703   0.963  0.00  0.00    +0.138 A 
BRANCH  24  25
ATOM     25  O   UNL     1      -8.805   4.300   0.012  0.00  0.00    -0.505 OA
ATOM     26  H   UNL     1      -8.885   3.790  -0.806  0.00  0.00    +0.292 HD
ENDBRANCH  24  25
ENDBRANCH  17  19
ENDBRANCH   4  17
TORSDOF 4
