REMARK  Name = ZINC45537641
REMARK  8 active torsions:
REMARK  status: ('A' for Active; 'I' for Inactive)
REMARK    1  A    between atoms: C_1  and  C_2
REMARK    2  A    between atoms: C_2  and  O_3
REMARK    3  A    between atoms: O_3  and  C_4
REMARK    4  A    between atoms: C_9  and  C_10
REMARK    5  A    between atoms: C_10  and  N_11
REMARK    6  A    between atoms: C_12  and  C_14
REMARK    7  A    between atoms: C_15  and  C_29
REMARK    8  A    between atoms: C_31  and  C_34
REMARK                            x       y       z     vdW  Elec       q    Type
REMARK                         _______ _______ _______ _____ _____    ______ ____
ROOT
ATOM      1  N   UNL     1      -4.238  -1.012  -1.330  0.00  0.00    -0.307 N 
ATOM      2  C   UNL     1      -5.276  -0.185  -1.562  0.00  0.00    +0.251 C 
ATOM      3  O   UNL     1      -5.999   0.157  -0.644  0.00  0.00    -0.270 OA
ATOM      4  H   UNL     1      -3.662  -1.285  -2.061  0.00  0.00    +0.149 HD
ENDROOT
BRANCH   2   5
ATOM      5  C   UNL     1      -5.536   0.302  -2.920  0.00  0.00    +0.079 A 
ATOM      6  C   UNL     1      -6.522   1.141  -3.350  0.00  0.00    -0.017 A 
ATOM      7  C   UNL     1      -6.601   1.488  -4.701  0.00  0.00    +0.076 A 
ATOM      8  C   UNL     1      -5.614   0.921  -5.540  0.00  0.00    +0.116 A 
ATOM      9  S   UNL     1      -4.634  -0.047  -4.420  0.00  0.00    -0.064 S 
ATOM     10  N   UNL     1      -5.577   1.167  -6.843  0.00  0.00    -0.226 NA
ATOM     11  C   UNL     1      -6.453   1.940  -7.421  0.00  0.00    +0.114 A 
ATOM     12  N   UNL     1      -7.452   2.544  -6.713  0.00  0.00    -0.296 N 
ATOM     13  C   UNL     1      -7.574   2.368  -5.386  0.00  0.00    +0.263 A 
ATOM     14  O   UNL     1      -8.464   2.919  -4.763  0.00  0.00    -0.267 OA
ATOM     15  C   UNL     1      -8.398   3.400  -7.441  0.00  0.00    +0.126 C 
ATOM     16  C   UNL     1      -9.346   2.522  -8.255  0.00  0.00    +0.022 C 
ATOM     17  C   UNL     1      -8.788   2.250  -9.641  0.00  0.00    +0.002 C 
ATOM     18  C   UNL     1      -7.516   1.423  -9.595  0.00  0.00    +0.008 C 
ATOM     19  C   UNL     1      -6.386   2.190  -8.910  0.00  0.00    +0.074 C 
ATOM     20  C   UNL     1      -7.526   1.690  -2.370  0.00  0.00    +0.046 C 
ENDBRANCH   2   5
BRANCH   1  21
ATOM     21  C   UNL     1      -3.979  -1.499   0.027  0.00  0.00    +0.143 C 
BRANCH  21  27
ATOM     22  C   UNL     1      -1.498  -1.849   0.006  0.00  0.00    +0.126 A 
ATOM     23  C   UNL     1      -0.389  -2.683  -0.003  0.00  0.00    +0.053 A 
ATOM     24  C   UNL     1      -0.556  -4.050  -0.007  0.00  0.00    +0.001 A 
ATOM     25  C   UNL     1      -1.827  -4.611   0.005  0.00  0.00    +0.125 A 
ATOM     26  C   UNL     1      -2.936  -3.770   0.009  0.00  0.00    +0.054 A 
ATOM     27  C   UNL     1      -2.771  -2.400   0.016  0.00  0.00    +0.015 A 
ATOM     28  O   UNL     1      -1.764  -5.972   0.021  0.00  0.00    -0.488 OA
ATOM     29  C   UNL     1      -0.462  -6.391  -0.424  0.00  0.00    +0.175 C 
ATOM     30  C   UNL     1       0.436  -5.196  -0.028  0.00  0.00    +0.083 C 
ATOM     31  C   UNL     1      -0.026  -7.666   0.299  0.00  0.00    +0.052 C 
BRANCH  22  32
ATOM     32  O   UNL     1      -1.339  -0.499   0.012  0.00  0.00    -0.492 OA
BRANCH  32  34
ATOM     33  C   UNL     1      -0.019   1.526   0.010  0.00  0.00    +0.048 C 
ATOM     34  C   UNL     1       0.002  -0.004   0.002  0.00  0.00    +0.225 C 
ENDBRANCH  32  34
ENDBRANCH  22  32
ENDBRANCH  21  27
ENDBRANCH   1  21
TORSDOF 5
