REMARK  Name = ZINC28358062
REMARK  8 active torsions:
REMARK  status: ('A' for Active; 'I' for Inactive)
REMARK    1  A    between atoms: C_1  and  C_2
REMARK    2  A    between atoms: C_2  and  C_3
REMARK    3  A    between atoms: C_2  and  C_4
REMARK    4  A    between atoms: C_9  and  S_10
REMARK    5  A    between atoms: S_10  and  C_11
REMARK    6  A    between atoms: C_14  and  C_21
REMARK    7  A    between atoms: C_16  and  C_17
REMARK    8  A    between atoms: C_30  and  O_33
REMARK                            x       y       z     vdW  Elec       q    Type
REMARK                         _______ _______ _______ _____ _____    ______ ____
ROOT
ATOM      1  C   UNL     1       2.827   7.681  -6.612  0.00  0.00    +0.024 A 
ATOM      2  C   UNL     1       3.006   7.376  -5.267  0.00  0.00    +0.016 A 
ATOM      3  C   UNL     1       2.334   6.312  -4.706  0.00  0.00    +0.009 A 
ATOM      4  C   UNL     1       1.475   5.540  -5.488  0.00  0.00    -0.017 A 
ATOM      5  C   UNL     1       1.301   5.844  -6.838  0.00  0.00    +0.022 A 
ATOM      6  C   UNL     1       1.970   6.913  -7.394  0.00  0.00    +0.069 A 
ENDROOT
BRANCH   4   7
ATOM      7  C   UNL     1       0.751   4.394  -4.886  0.00  0.00    -0.013 A 
ATOM      8  C   UNL     1      -0.116   3.608  -5.655  0.00  0.00    +0.026 A 
ATOM      9  C   UNL     1      -0.770   2.552  -5.061  0.00  0.00    +0.085 A 
ATOM     10  N   UNL     1      -0.591   2.274  -3.782  0.00  0.00    -0.350 N 
ATOM     11  C   UNL     1       0.219   2.990  -3.017  0.00  0.00    +0.099 A 
ATOM     12  C   UNL     1       0.912   4.074  -3.538  0.00  0.00    +0.050 A 
ATOM     13  N   UNL     1       0.372   2.655  -1.676  0.00  0.00    -0.314 N 
ATOM     14  C   UNL     1       1.788   2.329  -1.367  0.00  0.00    +0.109 C 
ATOM     15  C   UNL     1       1.721   1.489  -0.074  0.00  0.00    +0.052 C 
ATOM     16  C   UNL     1       0.302   0.884  -0.062  0.00  0.00    +0.133 C 
ATOM     17  C   UNL     1      -0.369   1.409  -1.350  0.00  0.00    +0.137 C 
ATOM     18  H   UNL     1      -1.122   1.427  -3.324  0.00  0.00    +0.166 HD
BRANCH  16  19
ATOM     19  O   UNL     1      -0.417   1.326   1.090  0.00  0.00    -0.390 OA
ATOM     20  H   UNL     1      -1.451   0.989   1.257  0.00  0.00    +0.210 HD
ENDBRANCH  16  19
ENDBRANCH   4   7
BRANCH   6  21
ATOM     21  C   UNL     1       1.778   7.246  -8.851  0.00  0.00    +0.418 C 
ATOM     22  F   UNL     1       0.878   6.340  -9.422  0.00  0.00    -0.166 F 
ATOM     23  F   UNL     1       1.272   8.544  -8.970  0.00  0.00    -0.166 F 
ATOM     24  F   UNL     1       3.007   7.162  -9.514  0.00  0.00    -0.166 F 
ENDBRANCH   6  21
BRANCH   1  25
ATOM     25  S   UNL     1       3.686   9.044  -7.327  0.00  0.00    -0.089 S 
BRANCH  25  31
ATOM     26  C   UNL     1       5.699   9.201  -5.481  0.00  0.00    -0.031 A 
ATOM     27  C   UNL     1       6.359   9.778  -4.413  0.00  0.00    +0.005 A 
ATOM     28  C   UNL     1       5.859  10.927  -3.828  0.00  0.00    +0.000 A 
ATOM     29  C   UNL     1       4.697  11.502  -4.309  0.00  0.00    +0.001 A 
ATOM     30  C   UNL     1       4.034  10.934  -5.378  0.00  0.00    +0.015 A 
ATOM     31  C   UNL     1       4.531   9.776  -5.966  0.00  0.00    +0.016 A 
BRANCH  26  33
ATOM     32  C   UNL     1       7.651   8.223  -6.658  0.00  0.00    +0.012 C 
ATOM     33  C   UNL     1       6.245   7.950  -6.118  0.00  0.00    +0.014 C 
ATOM     34  C   UNL     1       6.309   6.832  -5.075  0.00  0.00    +0.012 C 
ENDBRANCH  26  33
ENDBRANCH  25  31
ENDBRANCH   1  25
TORSDOF 6
