REMARK  Name = ZINC04492940
REMARK  6 active torsions:
REMARK  status: ('A' for Active; 'I' for Inactive)
REMARK    1  A    between atoms: C_1  and  C_2
REMARK    2  A    between atoms: C_2  and  C_4
REMARK    3  A    between atoms: C_2  and  O_16
REMARK    4  A    between atoms: O_16  and  C_17
REMARK    5  A    between atoms: C_17  and  C_19
REMARK    6  A    between atoms: C_28  and  O_29
REMARK                            x       y       z     vdW  Elec       q    Type
REMARK                         _______ _______ _______ _____ _____    ______ ____
ROOT
ATOM      1  O   UNL     1       2.255   8.105   0.021  0.00  0.00    -0.450 OA
ENDROOT
BRANCH   1   3
ATOM      2  C   UNL     1       2.159  10.056   1.474  0.00  0.00    +0.060 C 
ATOM      3  C   UNL     1       2.173   9.555   0.029  0.00  0.00    +0.239 C 
BRANCH   3   4
ATOM      4  C   UNL     1       3.367  10.129  -0.690  0.00  0.00    +0.151 A 
ATOM      5  N   UNL     1       3.398  10.056  -2.047  0.00  0.00    -0.307 N 
ATOM      6  H   UNL     1       2.641   9.624  -2.537  0.00  0.00    +0.170 HD
ATOM      7  C   UNL     1       4.445  10.562  -2.740  0.00  0.00    +0.259 A 
ATOM      8  O   UNL     1       4.484  10.507  -3.955  0.00  0.00    -0.267 OA
ATOM      9  C   UNL     1       5.536  11.174  -1.967  0.00  0.00    +0.065 A 
ATOM     10  C   UNL     1       6.661  11.718  -2.583  0.00  0.00    +0.015 A 
ATOM     11  C   UNL     1       7.654  12.279  -1.811  0.00  0.00    +0.001 A 
ATOM     12  C   UNL     1       7.542  12.306  -0.426  0.00  0.00    +0.002 A 
ATOM     13  C   UNL     1       6.438  11.773   0.202  0.00  0.00    +0.028 A 
ATOM     14  C   UNL     1       5.418  11.199  -0.560  0.00  0.00    +0.078 A 
ATOM     15  N   UNL     1       4.315  10.663   0.018  0.00  0.00    -0.230 NA
ENDBRANCH   3   4
ENDBRANCH   1   3
BRANCH   1  16
ATOM     16  C   UNL     1       1.090   7.427   0.029  0.00  0.00    +0.343 C 
ATOM     17  O   UNL     1       0.035   8.030   0.042  0.00  0.00    -0.245 OA
BRANCH  16  18
ATOM     18  C   UNL     1       1.095   5.955   0.021  0.00  0.00    +0.101 A 
ATOM     19  C   UNL     1       2.319   5.259   0.006  0.00  0.00    +0.019 A 
ATOM     20  C   UNL     1       2.350   3.904  -0.000  0.00  0.00    +0.009 A 
ATOM     21  C   UNL     1       1.149   3.167   0.008  0.00  0.00    -0.014 A 
ATOM     22  C   UNL     1       1.163   1.763   0.000  0.00  0.00    +0.008 A 
ATOM     23  C   UNL     1      -0.013   1.076   0.008  0.00  0.00    +0.001 A 
ATOM     24  C   UNL     1      -1.234   1.745   0.017  0.00  0.00    +0.001 A 
ATOM     25  C   UNL     1      -1.285   3.106   0.030  0.00  0.00    +0.012 A 
ATOM     26  C   UNL     1      -0.093   3.848   0.023  0.00  0.00    +0.024 A 
ATOM     27  C   UNL     1      -0.111   5.257   0.029  0.00  0.00    +0.138 A 
BRANCH  27  28
ATOM     28  O   UNL     1      -1.288   5.926   0.043  0.00  0.00    -0.505 OA
ATOM     29  H   UNL     1      -1.622   6.117   0.931  0.00  0.00    +0.292 HD
ENDBRANCH  27  28
ENDBRANCH  16  18
ENDBRANCH   1  16
TORSDOF 5
