REMARK  Name = ZINC36186867
REMARK  9 active torsions:
REMARK  status: ('A' for Active; 'I' for Inactive)
REMARK    1  A    between atoms: C_1  and  C_2
REMARK    2  A    between atoms: C_2  and  O_3
REMARK    3  A    between atoms: O_3  and  C_4
REMARK    4  A    between atoms: C_4  and  C_6
REMARK    5  A    between atoms: C_9  and  N_12
REMARK    6  A    between atoms: C_25  and  C_33
REMARK    7  A    between atoms: C_26  and  C_28
REMARK    8  A    between atoms: N_30  and  C_31
REMARK    9  A    between atoms: N_30  and  C_32
REMARK                            x       y       z     vdW  Elec       q    Type
REMARK                         _______ _______ _______ _____ _____    ______ ____
ROOT
ATOM      1  N   UNL     1      -5.947  -4.921  -0.376  0.00  0.00    -0.243 N 
ATOM      2  C   UNL     1      -6.538  -3.723  -0.253  0.00  0.00    +0.141 C 
ATOM      3  S   UNL     1      -5.595  -2.312  -0.476  0.00  0.00    -0.018 S 
ATOM      4  N   UNL     1      -7.843  -3.590   0.039  0.00  0.00    -0.318 N 
ATOM      5  C   UNL     1      -8.656  -4.787   0.309  0.00  0.00    +0.123 C 
ATOM      6  C   UNL     1      -8.370  -5.214   1.732  0.00  0.00    +0.016 A 
ATOM      7  C   UNL     1      -9.119  -4.667   2.758  0.00  0.00    +0.024 A 
ATOM      8  C   UNL     1      -8.875  -5.035   4.069  0.00  0.00    +0.018 A 
ATOM      9  C   UNL     1      -7.879  -5.952   4.353  0.00  0.00    +0.019 A 
ATOM     10  C   UNL     1      -7.133  -6.502   3.331  0.00  0.00    +0.047 A 
ATOM     11  C   UNL     1      -7.377  -6.136   2.011  0.00  0.00    +0.128 A 
ATOM     12  O   UNL     1      -6.633  -6.709   1.030  0.00  0.00    -0.467 OA
ATOM     13  C   UNL     1      -6.701  -6.169  -0.292  0.00  0.00    +0.194 C 
ATOM     14  C   UNL     1      -8.185  -5.894  -0.648  0.00  0.00    +0.162 C 
ATOM     15  C   UNL     1      -6.129  -7.176  -1.292  0.00  0.00    +0.079 C 
ATOM     16 BR   UNL     1      -9.900  -4.285   5.469  0.00  0.00    -0.050 Br
ATOM     17  H   UNL     1      -8.247  -2.709   0.071  0.00  0.00    +0.148 HD
ENDROOT
BRANCH   1  21
ATOM     18  C   UNL     1      -1.838  -5.088  -1.035  0.00  0.00    +0.059 A 
ATOM     19  C   UNL     1      -2.345  -5.197   0.264  0.00  0.00    +0.017 A 
ATOM     20  C   UNL     1      -3.703  -5.141   0.478  0.00  0.00    +0.024 A 
ATOM     21  C   UNL     1      -4.572  -4.977  -0.597  0.00  0.00    +0.039 A 
ATOM     22  C   UNL     1      -4.072  -4.868  -1.891  0.00  0.00    +0.024 A 
ATOM     23  C   UNL     1      -2.714  -4.917  -2.111  0.00  0.00    +0.017 A 
BRANCH  18  24
ATOM     24  C   UNL     1      -0.384  -5.146  -1.268  0.00  0.00    +0.339 C 
ATOM     25  O   UNL     1       0.055  -5.046  -2.396  0.00  0.00    -0.245 OA
BRANCH  24  26
ATOM     26  O   UNL     1       0.459  -5.311  -0.229  0.00  0.00    -0.461 OA
BRANCH  26  28
ATOM     27  C   UNL     1       2.648  -5.549   0.767  0.00  0.00    +0.048 C 
ATOM     28  C   UNL     1       1.856  -5.359  -0.528  0.00  0.00    +0.229 C 
ENDBRANCH  26  28
ENDBRANCH  24  26
ENDBRANCH  18  24
ENDBRANCH   1  21
BRANCH  14  29
ATOM     29  C   UNL     1      -8.316  -5.431  -2.076  0.00  0.00    +0.226 C 
ATOM     30  O   UNL     1      -7.355  -4.971  -2.655  0.00  0.00    -0.275 OA
ATOM     31  N   UNL     1      -9.502  -5.527  -2.709  0.00  0.00    -0.307 N 
ATOM     32  C   UNL     1      -9.629  -5.076  -4.097  0.00  0.00    +0.131 C 
ATOM     33  C   UNL     1     -10.663  -6.082  -2.010  0.00  0.00    +0.131 C 
ENDBRANCH  14  29
TORSDOF 5
