REMARK  Name = ZINC04732936
REMARK  4 active torsions:
REMARK  status: ('A' for Active; 'I' for Inactive)
REMARK    1  A    between atoms: C_1  and  C_2
REMARK    2  A    between atoms: C_3  and  C_21
REMARK    3  A    between atoms: C_8  and  C_13
REMARK    4  A    between atoms: C_13  and  C_14
REMARK                            x       y       z     vdW  Elec       q    Type
REMARK                         _______ _______ _______ _____ _____    ______ ____
ROOT
ATOM      1  C   UNL     1      -0.018   1.503   0.010  0.00  0.00    +0.051 C 
ATOM      2  C   UNL     1       0.002  -0.004   0.002  0.00  0.00    +0.035 A 
ATOM      3  C   UNL     1      -1.157  -0.700   0.004  0.00  0.00    +0.024 A 
ATOM      4  N   UNL     1      -1.134  -2.063  -0.004  0.00  0.00    -0.328 N 
ATOM      5  H   UNL     1      -1.967  -2.561  -0.003  0.00  0.00    +0.168 HD
ATOM      6  C   UNL     1       0.066  -2.736  -0.013  0.00  0.00    +0.234 A 
ATOM      7  N   UNL     1       0.366  -4.018  -0.022  0.00  0.00    -0.195 NA
ATOM      8  C   UNL     1       1.689  -4.172  -0.029  0.00  0.00    +0.158 A 
ATOM      9  N   UNL     1       2.263  -2.996  -0.025  0.00  0.00    -0.145 NA
ATOM     10  N   UNL     1       1.236  -2.042  -0.015  0.00  0.00    -0.161 N 
ATOM     11  C   UNL     1       1.231  -0.697  -0.013  0.00  0.00    +0.279 A 
ATOM     12  O   UNL     1       2.282  -0.081  -0.020  0.00  0.00    -0.265 OA
ATOM     13  C   UNL     1      -2.475   0.031   0.015  0.00  0.00    +0.064 C 
ENDROOT
BRANCH   8  14
ATOM     14  C   UNL     1       2.413  -5.494  -0.040  0.00  0.00    +0.113 C 
BRANCH  14  15
ATOM     15  C   UNL     1       2.647  -5.926  -1.465  0.00  0.00    -0.040 A 
ATOM     16  C   UNL     1       1.701  -6.695  -2.118  0.00  0.00    +0.005 A 
ATOM     17  C   UNL     1       1.915  -7.092  -3.424  0.00  0.00    +0.020 A 
ATOM     18  C   UNL     1       3.076  -6.720  -4.078  0.00  0.00    +0.041 A 
ATOM     19  C   UNL     1       4.022  -5.951  -3.424  0.00  0.00    +0.020 A 
ATOM     20  C   UNL     1       3.804  -5.550  -2.120  0.00  0.00    +0.005 A 
ATOM     21 CL   UNL     1       3.346  -7.219  -5.719  0.00  0.00    -0.084 Cl
ENDBRANCH  14  15
ENDBRANCH   8  14
TORSDOF 2
