REMARK  Name = ZINC59437595
REMARK  8 active torsions:
REMARK  status: ('A' for Active; 'I' for Inactive)
REMARK    1  A    between atoms: C_6  and  C_7
REMARK    2  A    between atoms: N_9  and  C_10
REMARK    3  A    between atoms: C_10  and  N_12
REMARK    4  A    between atoms: N_12  and  C_13
REMARK    5  A    between atoms: C_13  and  C_14
REMARK    6  A    between atoms: C_14  and  N_15
REMARK    7  A    between atoms: N_15  and  C_16
REMARK    8  A    between atoms: C_19  and  N_23
REMARK                            x       y       z     vdW  Elec       q    Type
REMARK                         _______ _______ _______ _____ _____    ______ ____
ROOT
ATOM      1  N   UNL     1      -2.378  -4.151   0.003  0.00  0.00    -0.325 N 
ATOM      2  H   UNL     1      -1.531  -4.622  -0.007  0.00  0.00    +0.148 HD
ENDROOT
BRANCH   1   3
ATOM      3  C   UNL     1      -2.400  -2.803   0.011  0.00  0.00    +0.137 C 
ATOM      4  S   UNL     1      -3.896  -1.971   0.030  0.00  0.00    -0.018 S 
BRANCH   3   7
ATOM      5  C   UNL     1      -1.265  -0.763   0.011  0.00  0.00    +0.250 C 
ATOM      6  O   UNL     1      -2.327  -0.173   0.024  0.00  0.00    -0.270 OA
ATOM      7  N   UNL     1      -1.244  -2.111   0.003  0.00  0.00    -0.264 N 
ATOM      8  H   UNL     1      -0.396  -2.582  -0.008  0.00  0.00    +0.157 HD
BRANCH   5  14
ATOM      9  C   UNL     1      -0.017   1.392   0.010  0.00  0.00    +0.014 A 
ATOM     10  C   UNL     1       1.170   2.095   0.002  0.00  0.00    +0.015 A 
ATOM     11  C   UNL     1       2.378   1.419  -0.013  0.00  0.00    +0.013 A 
ATOM     12  C   UNL     1       2.404   0.035  -0.021  0.00  0.00    +0.015 A 
ATOM     13  C   UNL     1       1.224  -0.680  -0.014  0.00  0.00    +0.014 A 
ATOM     14  C   UNL     1       0.002  -0.004   0.002  0.00  0.00    +0.037 A 
ATOM     15  I   UNL     1       4.175   2.495  -0.025  0.00  0.00    -0.044 I 
ENDBRANCH   5  14
ENDBRANCH   3   7
ENDBRANCH   1   3
BRANCH   1  16
ATOM     16  C   UNL     1      -3.635  -4.904   0.012  0.00  0.00    +0.122 C 
BRANCH  16  17
ATOM     17  C   UNL     1      -3.332  -6.403   0.001  0.00  0.00    +0.120 C 
BRANCH  17  18
ATOM     18  N   UNL     1      -4.588  -7.156   0.009  0.00  0.00    -0.341 N 
ATOM     19  H   UNL     1      -5.436  -6.685   0.020  0.00  0.00    +0.146 HD
BRANCH  18  20
ATOM     20  C   UNL     1      -4.566  -8.553   0.002  0.00  0.00    +0.046 A 
ATOM     21  C   UNL     1      -3.353  -9.230  -0.008  0.00  0.00    +0.026 A 
ATOM     22  C   UNL     1      -3.334 -10.611  -0.015  0.00  0.00    +0.034 A 
ATOM     23  C   UNL     1      -4.521 -11.321  -0.013  0.00  0.00    +0.128 A 
ATOM     24  C   UNL     1      -5.731 -10.651  -0.004  0.00  0.00    +0.054 A 
ATOM     25  C   UNL     1      -5.757  -9.269   0.009  0.00  0.00    +0.064 A 
ATOM     26 CL   UNL     1      -7.276  -8.429   0.029  0.00  0.00    -0.082 Cl
BRANCH  23  27
ATOM     27  N   UNL     1      -4.497 -12.800  -0.022  0.00  0.00    +0.056 N 
ATOM     28  O   UNL     1      -3.440 -13.387  -0.031  0.00  0.00    -0.126 OA
ATOM     29  O   UNL     1      -5.534 -13.422  -0.020  0.00  0.00    -0.126 OA
ENDBRANCH  23  27
ENDBRANCH  18  20
ENDBRANCH  17  18
ENDBRANCH  16  17
ENDBRANCH   1  16
TORSDOF 8
