REMARK  Name = ZINC22130747
REMARK  5 active torsions:
REMARK  status: ('A' for Active; 'I' for Inactive)
REMARK    1  A    between atoms: C_4  and  C_7
REMARK    2  A    between atoms: N_9  and  C_10
REMARK    3  A    between atoms: C_10  and  C_12
REMARK    4  A    between atoms: C_10  and  C_17
REMARK    5  A    between atoms: C_26  and  O_27
REMARK                            x       y       z     vdW  Elec       q    Type
REMARK                         _______ _______ _______ _____ _____    ______ ____
ROOT
ATOM      1  C   UNL     1      -1.423   5.995   0.047  0.00  0.00    +0.174 C 
ENDROOT
BRANCH   1   2
ATOM      2  C   UNL     1      -0.112   5.253   0.031  0.00  0.00    +0.029 A 
ATOM      3  C   UNL     1      -0.095   3.849   0.024  0.00  0.00    -0.009 A 
ATOM      4  C   UNL     1      -1.288   3.105   0.031  0.00  0.00    +0.009 A 
ATOM      5  C   UNL     1      -1.235   1.746   0.018  0.00  0.00    +0.001 A 
ATOM      6  C   UNL     1      -0.013   1.076   0.008  0.00  0.00    +0.001 A 
ATOM      7  C   UNL     1       1.163   1.762   0.000  0.00  0.00    +0.008 A 
ATOM      8  C   UNL     1       1.148   3.167   0.008  0.00  0.00    -0.017 A 
ATOM      9  C   UNL     1       2.342   3.909   0.000  0.00  0.00    +0.012 A 
ATOM     10  C   UNL     1       2.292   5.268   0.007  0.00  0.00    +0.046 A 
ATOM     11  C   UNL     1       1.067   5.942   0.023  0.00  0.00    +0.123 A 
BRANCH  11  12
ATOM     12  O   UNL     1       1.050   7.301   0.030  0.00  0.00    -0.506 OA
ATOM     13  H   UNL     1       1.995   7.863   0.024  0.00  0.00    +0.292 HD
ENDBRANCH  11  12
ENDBRANCH   1   2
BRANCH   1  14
ATOM     14  C   UNL     1      -1.692   6.570  -1.319  0.00  0.00    +0.130 A 
ATOM     15  C   UNL     1      -2.510   6.042  -2.248  0.00  0.00    +0.047 A 
ATOM     16  C   UNL     1      -2.464   6.901  -3.370  0.00  0.00    +0.041 A 
ATOM     17  C   UNL     1      -1.621   7.902  -3.061  0.00  0.00    +0.195 A 
ATOM     18  O   UNL     1      -1.161   7.700  -1.815  0.00  0.00    -0.466 OA
ENDBRANCH   1  14
BRANCH   1  21
ATOM     19  C   UNL     1      -2.489   7.550   1.591  0.00  0.00    +0.245 C 
ATOM     20  O   UNL     1      -3.564   7.072   1.284  0.00  0.00    -0.270 OA
ATOM     21  N   UNL     1      -1.358   7.080   1.029  0.00  0.00    -0.297 N 
ATOM     22  H   UNL     1      -0.385   7.512   1.308  0.00  0.00    +0.150 HD
BRANCH  19  26
ATOM     23  C   UNL     1      -2.299  10.696   4.439  0.00  0.00    +0.000 A 
ATOM     24  C   UNL     1      -3.524  10.155   4.091  0.00  0.00    +0.001 A 
ATOM     25  C   UNL     1      -3.593   9.133   3.167  0.00  0.00    +0.013 A 
ATOM     26  C   UNL     1      -2.423   8.645   2.582  0.00  0.00    +0.037 A 
ATOM     27  C   UNL     1      -1.190   9.191   2.942  0.00  0.00    +0.013 A 
ATOM     28  C   UNL     1      -1.136  10.216   3.864  0.00  0.00    +0.001 A 
ENDBRANCH  19  26
ENDBRANCH   1  21
TORSDOF 5
