REMARK  Name = ZINC09197604
REMARK  9 active torsions:
REMARK  status: ('A' for Active; 'I' for Inactive)
REMARK    1  A    between atoms: C_1  and  C_2
REMARK    2  A    between atoms: C_2  and  C_3
REMARK    3  A    between atoms: C_9  and  C_25
REMARK    4  A    between atoms: C_11  and  C_14
REMARK    5  A    between atoms: N_16  and  C_17
REMARK    6  A    between atoms: C_22  and  C_23
REMARK    7  A    between atoms: C_28  and  O_31
REMARK    8  A    between atoms: O_31  and  C_32
REMARK    9  A    between atoms: C_32  and  C_33
REMARK                            x       y       z     vdW  Elec       q    Type
REMARK                         _______ _______ _______ _____ _____    ______ ____
ROOT
ATOM      1  C   UNL     1      -6.018   5.680   7.191  0.00  0.00    +0.151 A 
ATOM      2  N   UNL     1      -6.750   5.726   8.270  0.00  0.00    -0.132 NA
ATOM      3  N   UNL     1      -6.947   4.536   8.723  0.00  0.00    -0.121 NA
ATOM      4  C   UNL     1      -6.351   3.672   7.949  0.00  0.00    +0.209 A 
ATOM      5  N   UNL     1      -5.731   4.367   6.949  0.00  0.00    -0.225 N 
ATOM      6  N   UNL     1      -4.984   3.854   5.938  0.00  0.00    -0.272 N 
ATOM      7  C   UNL     1      -5.265   2.446   5.654  0.00  0.00    +0.140 C 
ATOM      8  C   UNL     1      -4.996   1.585   6.895  0.00  0.00    +0.166 C 
ATOM      9  S   UNL     1      -6.318   1.913   8.099  0.00  0.00    -0.069 S 
ATOM     10  H   UNL     1      -4.000   4.000   6.106  0.00  0.00    +0.167 HD
ENDROOT
BRANCH   7  11
ATOM     11  C   UNL     1      -4.384   1.980   4.524  0.00  0.00    -0.024 A 
ATOM     12  C   UNL     1      -4.894   1.141   3.551  0.00  0.00    +0.009 A 
ATOM     13  C   UNL     1      -4.089   0.713   2.514  0.00  0.00    +0.046 A 
ATOM     14  C   UNL     1      -2.766   1.126   2.449  0.00  0.00    +0.121 A 
ATOM     15  C   UNL     1      -2.254   1.963   3.429  0.00  0.00    +0.046 A 
ATOM     16  C   UNL     1      -3.065   2.393   4.461  0.00  0.00    +0.009 A 
BRANCH  14  17
ATOM     17  O   UNL     1      -1.971   0.706   1.429  0.00  0.00    -0.492 OA
BRANCH  17  18
ATOM     18  C   UNL     1      -0.620   1.171   1.426  0.00  0.00    +0.225 C 
ATOM     19  C   UNL     1       0.114   0.597   0.212  0.00  0.00    +0.048 C 
ENDBRANCH  17  18
ENDBRANCH  14  17
ENDBRANCH   7  11
BRANCH   8  20
ATOM     20  C   UNL     1      -3.661   1.950   7.490  0.00  0.00    +0.233 C 
ATOM     21  O   UNL     1      -3.500   3.043   7.992  0.00  0.00    -0.274 OA
ATOM     22  N   UNL     1      -2.646   1.064   7.466  0.00  0.00    -0.284 N 
ATOM     23  H   UNL     1      -2.755   0.215   7.009  0.00  0.00    +0.155 HD
BRANCH  22  24
ATOM     24  C   UNL     1      -1.437   1.367   8.100  0.00  0.00    +0.038 A 
ATOM     25  C   UNL     1      -1.033   2.689   8.232  0.00  0.00    +0.043 A 
ATOM     26  C   UNL     1       0.160   2.986   8.864  0.00  0.00    +0.043 A 
ATOM     27  C   UNL     1       0.957   1.966   9.354  0.00  0.00    +0.020 A 
ATOM     28  C   UNL     1       0.559   0.649   9.219  0.00  0.00    +0.006 A 
ATOM     29  C   UNL     1      -0.635   0.347   8.594  0.00  0.00    -0.029 A 
ATOM     30  C   UNL     1      -1.067  -1.090   8.447  0.00  0.00    +0.045 C 
ATOM     31 CL   UNL     1       0.664   4.638   9.035  0.00  0.00    -0.083 Cl
ENDBRANCH  22  24
ENDBRANCH   8  20
BRANCH   1  33
ATOM     32  C   UNL     1      -6.615   7.144   5.280  0.00  0.00    +0.012 C 
ATOM     33  C   UNL     1      -5.573   6.858   6.363  0.00  0.00    +0.074 C 
ENDBRANCH   1  33
TORSDOF 6
