REMARK  Name = ZINC36501674
REMARK  20 active torsions:
REMARK  status: ('A' for Active; 'I' for Inactive)
REMARK    1  A    between atoms: C_1  and  C_2
REMARK    2  A    between atoms: C_2  and  C_4
REMARK    3  A    between atoms: C_2  and  C_36
REMARK    4  A    between atoms: C_4  and  C_5
REMARK    5  A    between atoms: N_7  and  C_8
REMARK    6  A    between atoms: N_7  and  C_14
REMARK    7  A    between atoms: C_8  and  C_9
REMARK    8  A    between atoms: C_14  and  C_16
REMARK    9  A    between atoms: C_14  and  C_25
REMARK   10  A    between atoms: C_17  and  O_24
REMARK   11  A    between atoms: C_19  and  O_23
REMARK   12  A    between atoms: C_21  and  O_22
REMARK   13  A    between atoms: N_27  and  C_28
REMARK   14  A    between atoms: C_28  and  C_29
REMARK   15  A    between atoms: C_28  and  C_30
REMARK   16  A    between atoms: C_28  and  C_31
REMARK   17  A    between atoms: C_31  and  C_32
REMARK   18  A    between atoms: C_32  and  C_33
REMARK   19  A    between atoms: C_32  and  C_34
REMARK   20  A    between atoms: C_32  and  C_35
REMARK                            x       y       z     vdW  Elec       q    Type
REMARK                         _______ _______ _______ _____ _____    ______ ____
ROOT
ATOM      1  C   UNL     1      -6.951  -0.090   2.390  0.00  0.00    +0.200 C 
ENDROOT
BRANCH   1   2
ATOM      2  C   UNL     1      -8.326   0.413   2.748  0.00  0.00    +0.065 A 
ATOM      3  C   UNL     1      -9.446  -0.149   2.155  0.00  0.00    +0.129 A 
ATOM      4  C   UNL     1     -10.711   0.314   2.484  0.00  0.00    +0.091 A 
ATOM      5  C   UNL     1     -10.856   1.339   3.406  0.00  0.00    +0.124 A 
ATOM      6  C   UNL     1      -9.736   1.901   4.000  0.00  0.00    +0.091 A 
ATOM      7  C   UNL     1      -8.471   1.435   3.674  0.00  0.00    +0.129 A 
BRANCH   7   8
ATOM      8  O   UNL     1      -7.373   1.983   4.259  0.00  0.00    -0.506 OA
ATOM      9  H   UNL     1      -7.007   2.738   3.779  0.00  0.00    +0.292 HD
ENDBRANCH   7   8
BRANCH   5  10
ATOM     10  O   UNL     1     -12.095   1.793   3.728  0.00  0.00    -0.507 OA
ATOM     11  H   UNL     1     -12.502   1.331   4.474  0.00  0.00    +0.292 HD
ENDBRANCH   5  10
BRANCH   3  12
ATOM     12  O   UNL     1      -9.304  -1.154   1.251  0.00  0.00    -0.506 OA
ATOM     13  H   UNL     1      -9.389  -2.039   1.631  0.00  0.00    +0.292 HD
ENDBRANCH   3  12
ENDBRANCH   1   2
BRANCH   1  14
ATOM     14  C   UNL     1      -6.749  -1.462   2.980  0.00  0.00    +0.239 C 
ATOM     15  O   UNL     1      -6.186  -2.321   2.336  0.00  0.00    -0.273 OA
ATOM     16  N   UNL     1      -7.195  -1.734   4.222  0.00  0.00    -0.308 N 
ATOM     17  H   UNL     1      -7.705  -1.069   4.710  0.00  0.00    +0.149 HD
BRANCH  16  18
ATOM     18  C   UNL     1      -6.908  -3.033   4.835  0.00  0.00    +0.030 C 
ATOM     19  C   UNL     1      -7.654  -4.131   4.076  0.00  0.00    +0.031 C 
ATOM     20  C   UNL     1      -5.403  -3.304   4.776  0.00  0.00    +0.031 C 
BRANCH  18  21
ATOM     21  C   UNL     1      -7.366  -3.021   6.295  0.00  0.00    +0.031 C 
BRANCH  21  22
ATOM     22  C   UNL     1      -6.474  -2.075   7.102  0.00  0.00    -0.036 C 
ATOM     23  C   UNL     1      -6.158  -0.834   6.265  0.00  0.00    +0.010 C 
ATOM     24  C   UNL     1      -7.200  -1.657   8.382  0.00  0.00    +0.010 C 
ATOM     25  C   UNL     1      -5.171  -2.790   7.465  0.00  0.00    +0.010 C 
ENDBRANCH  21  22
ENDBRANCH  18  21
ENDBRANCH  16  18
ENDBRANCH   1  14
BRANCH   1  28
ATOM     26  C   UNL     1      -6.562   0.957   0.224  0.00  0.00    +0.217 C 
ATOM     27  O   UNL     1      -6.437   2.020   0.794  0.00  0.00    -0.276 OA
ATOM     28  N   UNL     1      -6.821  -0.160   0.933  0.00  0.00    -0.278 N 
BRANCH  26  29
ATOM     29  C   UNL     1      -6.428   0.884  -1.275  0.00  0.00    +0.104 C 
BRANCH  29  31
ATOM     30  C   UNL     1      -7.339   3.191  -1.574  0.00  0.00    +0.013 C 
ATOM     31  C   UNL     1      -6.137   2.280  -1.829  0.00  0.00    +0.025 C 
BRANCH  31  32
ATOM     32  C   UNL     1      -5.881   2.189  -3.312  0.00  0.00    -0.044 A 
ATOM     33  C   UNL     1      -6.862   1.699  -4.153  0.00  0.00    +0.004 A 
ATOM     34  C   UNL     1      -6.628   1.615  -5.513  0.00  0.00    +0.000 A 
ATOM     35  C   UNL     1      -5.413   2.022  -6.031  0.00  0.00    +0.000 A 
ATOM     36  C   UNL     1      -4.432   2.513  -5.190  0.00  0.00    +0.000 A 
ATOM     37  C   UNL     1      -4.668   2.601  -3.830  0.00  0.00    +0.004 A 
ENDBRANCH  31  32
ENDBRANCH  29  31
ENDBRANCH  26  29
BRANCH  28  38
ATOM     38  C   UNL     1      -6.972  -1.445   0.245  0.00  0.00    +0.183 C 
BRANCH  38  39
ATOM     39  C   UNL     1      -5.613  -1.971  -0.141  0.00  0.00    +0.122 A 
ATOM     40  C   UNL     1      -4.952  -2.968   0.472  0.00  0.00    +0.046 A 
ATOM     41  C   UNL     1      -3.726  -3.130  -0.214  0.00  0.00    +0.041 A 
ATOM     42  C   UNL     1      -3.712  -2.222  -1.206  0.00  0.00    +0.195 A 
ATOM     43  O   UNL     1      -4.860  -1.526  -1.161  0.00  0.00    -0.466 OA
ENDBRANCH  38  39
ENDBRANCH  28  38
ENDBRANCH   1  28
TORSDOF 14
