REMARK  Name = ZINC62620958
REMARK  8 active torsions:
REMARK  status: ('A' for Active; 'I' for Inactive)
REMARK    1  A    between atoms: C_1  and  C_2
REMARK    2  A    between atoms: C_2  and  C_4
REMARK    3  A    between atoms: C_2  and  N_14
REMARK    4  A    between atoms: C_8  and  S_10
REMARK    5  A    between atoms: S_10  and  N_13
REMARK    6  A    between atoms: N_20  and  S_23
REMARK    7  A    between atoms: S_23  and  C_26
REMARK    8  A    between atoms: C_31  and  C_32
REMARK                            x       y       z     vdW  Elec       q    Type
REMARK                         _______ _______ _______ _____ _____    ______ ____
ROOT
ATOM      1  N   UNL     1       0.711  -0.485   1.190  0.00  0.00    -0.293 N 
ATOM      2  C   UNL     1       2.054  -0.600   1.174  0.00  0.00    +0.303 C 
ATOM      3  O   UNL     1       2.670  -0.388   0.147  0.00  0.00    -0.253 OA
ATOM      4  N   UNL     1       2.714  -0.949   2.296  0.00  0.00    -0.283 N 
ATOM      5  C   UNL     1       1.977  -1.325   3.510  0.00  0.00    +0.126 C 
ATOM      6  C   UNL     1       2.446  -2.715   3.958  0.00  0.00    +0.128 C 
ATOM      7  N   UNL     1       3.916  -2.728   3.988  0.00  0.00    -0.174 NA
ATOM      8  C   UNL     1       4.652  -2.352   2.773  0.00  0.00    +0.128 C 
ATOM      9  C   UNL     1       4.183  -0.968   2.324  0.00  0.00    +0.126 C 
ATOM     10  H   UNL     1       0.213  -0.724   1.988  0.00  0.00    +0.151 HD
ENDROOT
BRANCH   7  11
ATOM     11  S   UNL     1       4.727  -3.157   5.366  0.00  0.00    +0.062 S 
ATOM     12  O   UNL     1       6.013  -2.558   5.284  0.00  0.00    -0.153 OA
ATOM     13  O   UNL     1       3.841  -2.915   6.451  0.00  0.00    -0.153 OA
BRANCH  11  14
ATOM     14  C   UNL     1       4.978  -4.900   5.301  0.00  0.00    +0.123 A 
ATOM     15  C   UNL     1       6.257  -5.412   5.220  0.00  0.00    +0.030 A 
ATOM     16  C   UNL     1       6.456  -6.780   5.169  0.00  0.00    +0.002 A 
ATOM     17  C   UNL     1       5.376  -7.644   5.198  0.00  0.00    +0.001 A 
ATOM     18  C   UNL     1       4.092  -7.146   5.279  0.00  0.00    +0.021 A 
ATOM     19  C   UNL     1       3.884  -5.767   5.338  0.00  0.00    +0.078 A 
BRANCH  19  20
ATOM     20  C   UNL     1       2.554  -5.243   5.428  0.00  0.00    +0.101 C 
ATOM     21  N   UNL     1       1.500  -4.827   5.500  0.00  0.00    -0.191 NA
ENDBRANCH  19  20
ENDBRANCH  11  14
ENDBRANCH   7  11
BRANCH   1  23
ATOM     22  C   UNL     1      -0.013   1.530   0.008  0.00  0.00    +0.033 C 
ATOM     23  C   UNL     1       0.003   0.000   0.003  0.00  0.00    +0.102 C 
BRANCH  23  24
ATOM     24  C   UNL     1      -1.413  -0.517   0.016  0.00  0.00    -0.026 A 
ATOM     25  C   UNL     1      -2.123  -0.557   1.202  0.00  0.00    +0.005 A 
ATOM     26  C   UNL     1      -3.421  -1.031   1.214  0.00  0.00    +0.002 A 
ATOM     27  C   UNL     1      -4.010  -1.465   0.040  0.00  0.00    +0.028 A 
ATOM     28  C   UNL     1      -3.300  -1.423  -1.145  0.00  0.00    +0.105 A 
ATOM     29  C   UNL     1      -2.003  -0.945  -1.158  0.00  0.00    +0.034 A 
BRANCH  28  30
ATOM     30  S   UNL     1      -4.050  -1.976  -2.641  0.00  0.00    +0.056 S 
ATOM     31  O   UNL     1      -2.991  -2.344  -3.514  0.00  0.00    -0.153 OA
ATOM     32  O   UNL     1      -5.080  -2.882  -2.268  0.00  0.00    -0.153 OA
BRANCH  30  33
ATOM     33  N   UNL     1      -4.796  -0.667  -3.327  0.00  0.00    -0.204 NA
ATOM     34  H   UNL     1      -4.886  -0.610  -4.291  0.00  0.00    +0.144 HD
ATOM     35  H   UNL     1      -5.144   0.043  -2.765  0.00  0.00    +0.144 HD
ENDBRANCH  30  33
ENDBRANCH  28  30
ENDBRANCH  23  24
ENDBRANCH   1  23
TORSDOF 7
