REMARK  Name = ZINC39767710
REMARK  17 active torsions:
REMARK  status: ('A' for Active; 'I' for Inactive)
REMARK    1  A    between atoms: C_1  and  C_2
REMARK    2  A    between atoms: C_2  and  N_3
REMARK    3  A    between atoms: C_4  and  C_22
REMARK    4  A    between atoms: C_7  and  S_8
REMARK    5  A    between atoms: S_8  and  C_9
REMARK    6  A    between atoms: C_9  and  C_11
REMARK    7  A    between atoms: C_9  and  C_12
REMARK    8  A    between atoms: N_14  and  C_15
REMARK    9  A    between atoms: C_20  and  O_21
REMARK   10  A    between atoms: C_22  and  C_24
REMARK   11  A    between atoms: C_22  and  N_28
REMARK   12  A    between atoms: C_24  and  C_25
REMARK   13  A    between atoms: C_25  and  S_26
REMARK   14  A    between atoms: S_26  and  C_27
REMARK   15  A    between atoms: C_29  and  C_31
REMARK   16  A    between atoms: C_34  and  O_37
REMARK   17  A    between atoms: O_37  and  C_38
REMARK                            x       y       z     vdW  Elec       q    Type
REMARK                         _______ _______ _______ _____ _____    ______ ____
ROOT
ATOM      1  N   UNL     1       0.712  -0.540   1.187  0.00  0.00    -0.305 N 
ATOM      2  C   UNL     1       2.050  -0.802   1.305  0.00  0.00    +0.155 A 
ATOM      3  N   UNL     1       2.259  -1.212   2.524  0.00  0.00    -0.132 NA
ATOM      4  N   UNL     1       1.154  -1.227   3.180  0.00  0.00    -0.122 NA
ATOM      5  C   UNL     1       0.172  -0.819   2.410  0.00  0.00    +0.192 A 
ENDROOT
BRANCH   1   7
ATOM      6  C   UNL     1      -0.003   1.475  -0.000  0.00  0.00    +0.027 C 
ATOM      7  C   UNL     1       0.007  -0.055  -0.002  0.00  0.00    +0.122 C 
ENDBRANCH   1   7
BRANCH   5   8
ATOM      8  S   UNL     1      -1.523  -0.665   2.866  0.00  0.00    -0.074 S 
BRANCH   8   9
ATOM      9  C   UNL     1      -1.559  -1.188   4.603  0.00  0.00    +0.137 C 
ATOM     10  C   UNL     1      -1.182  -2.668   4.697  0.00  0.00    +0.029 C 
BRANCH   9  11
ATOM     11  C   UNL     1      -2.945  -0.986   5.159  0.00  0.00    +0.230 C 
ATOM     12  O   UNL     1      -3.903  -0.980   4.414  0.00  0.00    -0.274 OA
ATOM     13  N   UNL     1      -3.121  -0.813   6.484  0.00  0.00    -0.282 N 
ATOM     14  H   UNL     1      -2.364  -0.882   7.087  0.00  0.00    +0.155 HD
BRANCH  13  15
ATOM     15  C   UNL     1      -4.397  -0.533   6.991  0.00  0.00    +0.075 A 
ATOM     16  C   UNL     1      -5.519  -1.094   6.399  0.00  0.00    +0.027 A 
ATOM     17  C   UNL     1      -6.776  -0.817   6.901  0.00  0.00    +0.002 A 
ATOM     18  C   UNL     1      -6.919   0.021   7.992  0.00  0.00    +0.004 A 
ATOM     19  C   UNL     1      -5.806   0.584   8.587  0.00  0.00    +0.047 A 
ATOM     20  C   UNL     1      -4.541   0.306   8.094  0.00  0.00    +0.138 A 
BRANCH  20  21
ATOM     21  O   UNL     1      -3.445   0.855   8.681  0.00  0.00    -0.505 OA
ATOM     22  H   UNL     1      -3.188   1.711   8.312  0.00  0.00    +0.292 HD
ENDBRANCH  20  21
ENDBRANCH  13  15
ENDBRANCH   9  11
ENDBRANCH   8   9
ENDBRANCH   5   8
BRANCH   2  23
ATOM     23  C   UNL     1       3.089  -0.645   0.225  0.00  0.00    +0.142 C 
BRANCH  23  24
ATOM     24  N   UNL     1       4.271   0.021   0.777  0.00  0.00    -0.301 N 
ATOM     25  C   UNL     1       5.095   0.712  -0.035  0.00  0.00    +0.245 C 
ATOM     26  O   UNL     1       4.858   0.783  -1.225  0.00  0.00    -0.270 OA
ATOM     27  H   UNL     1       4.460  -0.036   1.727  0.00  0.00    +0.150 HD
BRANCH  25  28
ATOM     28  C   UNL     1       6.286   1.383   0.522  0.00  0.00    +0.037 A 
ATOM     29  C   UNL     1       6.564   1.298   1.889  0.00  0.00    +0.016 A 
ATOM     30  C   UNL     1       7.676   1.925   2.404  0.00  0.00    +0.046 A 
ATOM     31  C   UNL     1       8.523   2.643   1.566  0.00  0.00    +0.120 A 
ATOM     32  C   UNL     1       8.250   2.730   0.206  0.00  0.00    +0.046 A 
ATOM     33  C   UNL     1       7.143   2.101  -0.318  0.00  0.00    +0.016 A 
BRANCH  31  34
ATOM     34  O   UNL     1       9.617   3.260   2.078  0.00  0.00    -0.495 OA
ATOM     35  C   UNL     1      10.444   3.980   1.161  0.00  0.00    +0.277 C 
ENDBRANCH  31  34
ENDBRANCH  25  28
ENDBRANCH  23  24
BRANCH  23  36
ATOM     36  C   UNL     1       3.482  -2.025  -0.308  0.00  0.00    +0.041 C 
BRANCH  36  37
ATOM     37  C   UNL     1       4.443  -1.861  -1.487  0.00  0.00    +0.071 C 
BRANCH  37  38
ATOM     38  S   UNL     1       4.910  -3.496  -2.119  0.00  0.00    -0.164 S 
ATOM     39  C   UNL     1       6.034  -3.131  -3.494  0.00  0.00    +0.084 C 
ENDBRANCH  37  38
ENDBRANCH  36  37
ENDBRANCH  23  36
ENDBRANCH   2  23
TORSDOF 13
