REMARK  Name = ZINC26443526
REMARK  1 active torsions:
REMARK  status: ('A' for Active; 'I' for Inactive)
REMARK    1  A    between atoms: C_3  and  C_6
REMARK                            x       y       z     vdW  Elec       q    Type
REMARK                         _______ _______ _______ _____ _____    ______ ____
ROOT
ATOM      1  C   UNL     1       0.433  -4.532   1.335  0.00  0.00    +0.164 A 
ATOM      2  C   UNL     1       1.275  -3.848   2.326  0.00  0.00    +0.301 A 
ATOM      3  O   UNL     1       1.882  -4.471   3.179  0.00  0.00    -0.263 OA
ATOM      4  N   UNL     1       1.359  -2.498   2.249  0.00  0.00    -0.174 NA
ATOM      5  H   UNL     1      -0.658  -1.981  -0.356  0.00  0.00    +0.192 HD
ATOM      6  C   UNL     1       0.656  -1.856   1.273  0.00  0.00    +0.215 A 
ATOM      7  N   UNL     1      -0.093  -2.523   0.416  0.00  0.00    -0.247 N 
ATOM      8  N   UNL     1      -0.203  -3.802   0.433  0.00  0.00    -0.165 NA
ATOM      9  N   UNL     1       0.729  -0.491   1.181  0.00  0.00    -0.300 N 
ATOM     10  C   UNL     1       0.002  -0.004   0.002  0.00  0.00    +0.108 C 
ATOM     11  C   UNL     1      -0.019   1.526   0.010  0.00  0.00    +0.019 C 
ATOM     12  C   UNL     1       1.420   2.051  -0.001  0.00  0.00    +0.003 C 
ATOM     13  C   UNL     1       2.169   1.490   1.211  0.00  0.00    +0.019 C 
ATOM     14  C   UNL     1       2.126  -0.039   1.168  0.00  0.00    +0.108 C 
ENDROOT
BRANCH   1  17
ATOM     15  C   UNL     1      -0.401  -8.170   0.718  0.00  0.00    +0.008 A 
ATOM     16  C   UNL     1      -0.431  -6.808   0.513  0.00  0.00    +0.018 A 
ATOM     17  C   UNL     1       0.300  -6.001   1.346  0.00  0.00    +0.045 A 
ATOM     18  S   UNL     1       1.054  -7.191   2.443  0.00  0.00    -0.095 S 
ATOM     19  C   UNL     1       0.348  -8.670   1.735  0.00  0.00    +0.046 A 
ENDBRANCH   1  17
TORSDOF 1
