REMARK  Name = ZINC18157712
REMARK  5 active torsions:
REMARK  status: ('A' for Active; 'I' for Inactive)
REMARK    1  A    between atoms: C_1  and  C_2
REMARK    2  A    between atoms: C_2  and  C_3
REMARK    3  A    between atoms: C_2  and  C_4
REMARK    4  A    between atoms: C_4  and  C_5
REMARK    5  A    between atoms: C_5  and  N_6
REMARK                            x       y       z     vdW  Elec       q    Type
REMARK                         _______ _______ _______ _____ _____    ______ ____
ROOT
ATOM      1  N   UNL     1      -2.790  -2.565  -0.111  0.00  0.00    -0.268 N 
ATOM      2  C   UNL     1      -3.472  -2.927   1.037  0.00  0.00    +0.044 A 
ATOM      3  C   UNL     1      -3.047  -2.900   2.366  0.00  0.00    +0.024 A 
ATOM      4  C   UNL     1      -3.949  -3.325   3.329  0.00  0.00    +0.002 A 
ATOM      5  C   UNL     1      -5.217  -3.759   3.001  0.00  0.00    +0.001 A 
ATOM      6  C   UNL     1      -5.653  -3.792   1.681  0.00  0.00    +0.010 A 
ATOM      7  C   UNL     1      -4.761  -3.371   0.718  0.00  0.00    +0.024 A 
ATOM      8  C   UNL     1      -4.883  -3.273  -0.771  0.00  0.00    +0.206 C 
ATOM      9  C   UNL     1      -3.542  -2.728  -1.219  0.00  0.00    +0.267 C 
ATOM     10  O   UNL     1      -3.207  -2.486  -2.359  0.00  0.00    -0.271 OA
ATOM     11  N   UNL     1      -5.942  -2.333  -1.144  0.00  0.00    -0.312 N 
ATOM     12  C   UNL     1      -7.261  -2.773  -1.118  0.00  0.00    +0.041 A 
ATOM     13  C   UNL     1      -8.316  -1.910  -0.873  0.00  0.00    +0.024 A 
ATOM     14  C   UNL     1      -9.608  -2.398  -0.856  0.00  0.00    +0.002 A 
ATOM     15  C   UNL     1      -9.857  -3.743  -1.080  0.00  0.00    +0.001 A 
ATOM     16  C   UNL     1      -8.818  -4.616  -1.326  0.00  0.00    +0.015 A 
ATOM     17  C   UNL     1      -7.510  -4.138  -1.349  0.00  0.00    +0.058 A 
ATOM     18  C   UNL     1      -6.365  -5.028  -1.615  0.00  0.00    +0.248 C 
ATOM     19  O   UNL     1      -6.546  -6.147  -2.055  0.00  0.00    -0.270 OA
ATOM     20  N   UNL     1      -5.115  -4.586  -1.364  0.00  0.00    -0.279 N 
ATOM     21  H   UNL     1      -5.729  -1.423  -1.403  0.00  0.00    +0.149 HD
ATOM     22  H   UNL     1      -4.357  -5.151  -1.583  0.00  0.00    +0.152 HD
ENDROOT
BRANCH   1  23
ATOM     23  C   UNL     1      -1.416  -2.058  -0.121  0.00  0.00    +0.114 C 
BRANCH  23  24
ATOM     24  C   UNL     1      -1.433  -0.534   0.013  0.00  0.00    +0.022 C 
BRANCH  24  26
ATOM     25  C   UNL     1      -0.019   1.526   0.010  0.00  0.00    +0.007 C 
ATOM     26  C   UNL     1       0.002  -0.004   0.002  0.00  0.00    -0.016 C 
ATOM     27  C   UNL     1       0.742  -0.511   1.242  0.00  0.00    +0.007 C 
ENDBRANCH  24  26
ENDBRANCH  23  24
ENDBRANCH   1  23
TORSDOF 3
