REMARK  Name = ZINC39770257
REMARK  10 active torsions:
REMARK  status: ('A' for Active; 'I' for Inactive)
REMARK    1  A    between atoms: C_1  and  C_2
REMARK    2  A    between atoms: C_2  and  C_3
REMARK    3  A    between atoms: C_3  and  N_4
REMARK    4  A    between atoms: C_5  and  N_24
REMARK    5  A    between atoms: C_6  and  C_14
REMARK    6  A    between atoms: C_7  and  C_13
REMARK    7  A    between atoms: C_8  and  C_11
REMARK    8  A    between atoms: N_18  and  C_22
REMARK    9  A    between atoms: C_22  and  C_23
REMARK   10  A    between atoms: N_27  and  C_30
REMARK                            x       y       z     vdW  Elec       q    Type
REMARK                         _______ _______ _______ _____ _____    ______ ____
ROOT
ATOM      1  N   UNL     1      -1.512  -2.268   0.488  0.00  0.00    -0.295 N 
ATOM      2  C   UNL     1      -1.395  -2.772  -0.767  0.00  0.00    +0.112 A 
ATOM      3  C   UNL     1      -1.777  -4.095  -1.044  0.00  0.00    +0.019 A 
ATOM      4  C   UNL     1      -2.284  -4.899  -0.008  0.00  0.00    -0.017 A 
ATOM      5  C   UNL     1      -2.395  -4.358   1.270  0.00  0.00    +0.120 A 
ATOM      6  C   UNL     1      -1.990  -3.018   1.497  0.00  0.00    +0.270 A 
ATOM      7  O   UNL     1      -2.080  -2.541   2.615  0.00  0.00    -0.266 OA
ATOM      8  C   UNL     1      -2.702  -6.321  -0.278  0.00  0.00    +0.046 C 
ENDROOT
BRANCH   3   9
ATOM      9  C   UNL     1      -1.648  -4.633  -2.399  0.00  0.00    +0.032 C 
ATOM     10  C   UNL     1      -0.763  -5.635  -2.653  0.00  0.00    +0.077 C 
ATOM     11  C   UNL     1       0.199  -6.238  -1.786  0.00  0.00    +0.258 C 
ATOM     12  O   UNL     1       0.322  -5.870  -0.632  0.00  0.00    -0.269 OA
ATOM     13  N   UNL     1       0.951  -7.209  -2.275  0.00  0.00    -0.256 N 
ATOM     14  C   UNL     1       0.815  -7.618  -3.556  0.00  0.00    +0.121 C 
ATOM     15  S   UNL     1       1.673  -8.842  -4.389  0.00  0.00    -0.027 S 
ATOM     16  S   UNL     1      -0.494  -6.561  -4.158  0.00  0.00    -0.061 S 
BRANCH  13  17
ATOM     17  C   UNL     1       1.949  -7.851  -1.415  0.00  0.00    +0.111 C 
ATOM     18  C   UNL     1       1.314  -9.045  -0.701  0.00  0.00    +0.025 C 
ENDBRANCH  13  17
ENDBRANCH   3   9
BRANCH   2  19
ATOM     19  N   UNL     1      -0.901  -1.987  -1.768  0.00  0.00    -0.313 N 
ATOM     20  C   UNL     1       0.525  -2.033  -2.121  0.00  0.00    +0.125 C 
ATOM     21  C   UNL     1       0.650  -2.346  -3.617  0.00  0.00    +0.124 C 
ATOM     22  N   UNL     1      -0.235  -1.440  -4.362  0.00  0.00    -0.327 N 
ATOM     23  C   UNL     1      -1.661  -1.394  -4.009  0.00  0.00    +0.124 C 
ATOM     24  C   UNL     1      -1.787  -1.085  -2.517  0.00  0.00    +0.125 C 
BRANCH  22  25
ATOM     25  C   UNL     1       0.270  -0.635  -5.388  0.00  0.00    +0.030 A 
ATOM     26  C   UNL     1      -0.545   0.310  -5.995  0.00  0.00    +0.026 A 
ATOM     27  C   UNL     1      -0.043   1.104  -7.008  0.00  0.00    +0.040 A 
ATOM     28  C   UNL     1       1.272   0.958  -7.417  0.00  0.00    +0.124 A 
ATOM     29  C   UNL     1       2.086   0.015  -6.813  0.00  0.00    +0.040 A 
ATOM     30  C   UNL     1       1.590  -0.777  -5.796  0.00  0.00    +0.026 A 
ATOM     31  F   UNL     1       1.760   1.735  -8.408  0.00  0.00    -0.205 F 
ENDBRANCH  22  25
ENDBRANCH   2  19
BRANCH   5  32
ATOM     32  C   UNL     1      -2.908  -5.151   2.347  0.00  0.00    +0.105 C 
ATOM     33  N   UNL     1      -3.316  -5.779   3.201  0.00  0.00    -0.191 NA
ENDBRANCH   5  32
BRANCH   1  34
ATOM     34  C   UNL     1      -1.107  -0.885   0.749  0.00  0.00    +0.126 C 
BRANCH  34  36
ATOM     35  C   UNL     1       0.758   0.581   1.533  0.00  0.00    +0.005 C 
ATOM     36  C   UNL     1       0.335  -0.864   1.261  0.00  0.00    +0.018 C 
ENDBRANCH  34  36
ENDBRANCH   1  34
TORSDOF 7
