REMARK  Name = ZINC39491172
REMARK  15 active torsions:
REMARK  status: ('A' for Active; 'I' for Inactive)
REMARK    1  A    between atoms: C_1  and  C_2
REMARK    2  A    between atoms: C_2  and  C_3
REMARK    3  A    between atoms: C_3  and  N_4
REMARK    4  A    between atoms: N_4  and  C_5
REMARK    5  A    between atoms: C_5  and  C_6
REMARK    6  A    between atoms: N_8  and  C_19
REMARK    7  A    between atoms: C_12  and  C_15
REMARK    8  A    between atoms: C_15  and  O_17
REMARK    9  A    between atoms: O_17  and  C_18
REMARK   10  A    between atoms: C_19  and  C_20
REMARK   11  A    between atoms: C_20  and  C_22
REMARK   12  A    between atoms: C_20  and  S_29
REMARK   13  A    between atoms: C_22  and  C_23
REMARK   14  A    between atoms: S_29  and  O_32
REMARK   15  A    between atoms: O_32  and  C_33
REMARK                            x       y       z     vdW  Elec       q    Type
REMARK                         _______ _______ _______ _____ _____    ______ ____
ROOT
ATOM      1  C   UNL     1      -1.416  -4.373  -1.817  0.00  0.00    -0.039 A 
ATOM      2  C   UNL     1      -2.098  -5.328  -2.468  0.00  0.00    +0.088 A 
ATOM      3  N   UNL     1      -2.052  -6.499  -1.761  0.00  0.00    -0.344 N 
ATOM      4  C   UNL     1      -1.322  -6.325  -0.610  0.00  0.00    +0.049 A 
ATOM      5  C   UNL     1      -0.884  -4.985  -0.596  0.00  0.00    +0.002 A 
ATOM      6  C   UNL     1      -0.109  -4.518   0.462  0.00  0.00    +0.025 A 
ATOM      7  C   UNL     1       0.230  -5.386   1.496  0.00  0.00    +0.060 A 
ATOM      8  C   UNL     1      -0.208  -6.717   1.468  0.00  0.00    +0.017 A 
ATOM      9  C   UNL     1      -0.975  -7.175   0.438  0.00  0.00    +0.027 A 
ENDROOT
BRANCH   7  10
ATOM     10  C   UNL     1       1.052  -4.904   2.623  0.00  0.00    +0.339 C 
ATOM     11  O   UNL     1       1.433  -3.750   2.648  0.00  0.00    -0.245 OA
BRANCH  10  12
ATOM     12  O   UNL     1       1.381  -5.743   3.624  0.00  0.00    -0.464 OA
ATOM     13  C   UNL     1       2.179  -5.210   4.683  0.00  0.00    +0.280 C 
ENDBRANCH  10  12
ENDBRANCH   7  10
BRANCH   1  14
ATOM     14  C   UNL     1      -1.226  -2.945  -2.260  0.00  0.00    -0.045 C 
BRANCH  14  15
ATOM     15  N   UNL     1       0.097  -2.796  -2.879  0.00  0.00    +0.382 N 
ATOM     16  H   UNL     1       0.166  -3.408  -3.678  0.00  0.00    -0.085 HD
ATOM     17  H   UNL     1       0.811  -3.037  -2.208  0.00  0.00    -0.085 HD
BRANCH  15  18
ATOM     18  C   UNL     1       0.282  -1.404  -3.311  0.00  0.00    -0.082 C 
BRANCH  18  20
ATOM     19  C   UNL     1       1.853   0.202  -4.405  0.00  0.00    +0.002 C 
ATOM     20  C   UNL     1       1.661  -1.248  -3.955  0.00  0.00    -0.022 C 
ENDBRANCH  18  20
ENDBRANCH  15  18
ENDBRANCH  14  15
ENDBRANCH   1  14
BRANCH   3  21
ATOM     21  C   UNL     1      -2.688  -7.753  -2.171  0.00  0.00    +0.152 C 
BRANCH  21  22
ATOM     22  C   UNL     1      -4.169  -7.723  -1.789  0.00  0.00    +0.195 C 
BRANCH  22  23
ATOM     23  S   UNL     1      -4.328  -7.751   0.018  0.00  0.00    +0.126 S 
ATOM     24  O   UNL     1      -5.699  -7.733   0.389  0.00  0.00    -0.136 OA
ATOM     25  O   UNL     1      -3.440  -8.712   0.572  0.00  0.00    -0.136 OA
BRANCH  23  26
ATOM     26  O   UNL     1      -3.783  -6.407   0.479  0.00  0.00    -0.346 OA
BRANCH  26  27
ATOM     27  C   UNL     1      -4.651  -5.374   0.318  0.00  0.00    +0.156 A 
ATOM     28  C   UNL     1      -4.745  -4.729  -0.907  0.00  0.00    +0.048 A 
ATOM     29  C   UNL     1      -5.628  -3.680  -1.068  0.00  0.00    +0.004 A 
ATOM     30  C   UNL     1      -6.419  -3.271  -0.010  0.00  0.00    +0.000 A 
ATOM     31  C   UNL     1      -6.327  -3.912   1.212  0.00  0.00    +0.004 A 
ATOM     32  C   UNL     1      -5.450  -4.966   1.377  0.00  0.00    +0.048 A 
ENDBRANCH  26  27
ENDBRANCH  23  26
ENDBRANCH  22  23
BRANCH  22  33
ATOM     33  C   UNL     1      -4.874  -8.945  -2.382  0.00  0.00    +0.066 C 
BRANCH  33  34
ATOM     34  C   UNL     1      -6.354  -8.849  -2.116  0.00  0.00    -0.045 A 
ATOM     35  C   UNL     1      -6.909  -9.527  -1.047  0.00  0.00    +0.004 A 
ATOM     36  C   UNL     1      -8.267  -9.439  -0.803  0.00  0.00    +0.000 A 
ATOM     37  C   UNL     1      -9.069  -8.673  -1.628  0.00  0.00    +0.000 A 
ATOM     38  C   UNL     1      -8.514  -7.995  -2.696  0.00  0.00    +0.000 A 
ATOM     39  C   UNL     1      -7.155  -8.079  -2.938  0.00  0.00    +0.004 A 
ENDBRANCH  33  34
ENDBRANCH  22  33
ENDBRANCH  21  22
ENDBRANCH   3  21
TORSDOF 13
