REMARK  Name = ZINC65292052
REMARK  5 active torsions:
REMARK  status: ('A' for Active; 'I' for Inactive)
REMARK    1  A    between atoms: C_1  and  C_2
REMARK    2  A    between atoms: C_2  and  C_3
REMARK    3  A    between atoms: C_3  and  N_12
REMARK    4  A    between atoms: N_10  and  C_11
REMARK    5  A    between atoms: C_18  and  C_20
REMARK                            x       y       z     vdW  Elec       q    Type
REMARK                         _______ _______ _______ _____ _____    ______ ____
ROOT
ATOM      1  N   UNL     1       0.750  -2.002  -1.368  0.00  0.00    -0.292 NA
ATOM      2  C   UNL     1      -0.621  -2.516  -1.492  0.00  0.00    +0.104 C 
ATOM      3  C   UNL     1      -0.577  -4.035  -1.687  0.00  0.00    +0.123 C 
ATOM      4  N   UNL     1       0.211  -4.624  -0.594  0.00  0.00    -0.295 N 
ATOM      5  C   UNL     1       1.544  -4.067  -0.320  0.00  0.00    +0.123 C 
ATOM      6  C   UNL     1       1.417  -2.547  -0.178  0.00  0.00    +0.104 C 
ATOM      7  C   UNL     1      -0.275  -5.647   0.136  0.00  0.00    +0.248 C 
ATOM      8  O   UNL     1      -1.418  -6.026  -0.034  0.00  0.00    -0.270 OA
ENDROOT
BRANCH   1   9
ATOM      9  C   UNL     1       0.762  -0.533  -1.352  0.00  0.00    +0.039 C 
ATOM     10  C   UNL     1       0.089   0.026  -2.627  0.00  0.00    +0.043 C 
ATOM     11  C   UNL     1       0.984   1.240  -2.984  0.00  0.00    +0.111 C 
ATOM     12  N   UNL     1       2.347   0.768  -2.647  0.00  0.00    -0.284 N 
ATOM     13  C   UNL     1       2.209  -0.009  -1.401  0.00  0.00    +0.131 C 
ATOM     14  C   UNL     1       3.480   1.001  -3.337  0.00  0.00    +0.302 C 
ATOM     15  O   UNL     1       4.537   0.549  -2.941  0.00  0.00    -0.253 OA
ATOM     16  N   UNL     1       3.443   1.736  -4.466  0.00  0.00    -0.302 N 
ATOM     17  C   UNL     1       4.675   1.989  -5.217  0.00  0.00    +0.129 C 
ATOM     18  H   UNL     1       2.600   2.097  -4.782  0.00  0.00    +0.150 HD
BRANCH   9  20
ATOM     19  C   UNL     1       0.041   1.520  -0.123  0.00  0.00    +0.006 C 
ATOM     20  C   UNL     1       0.049  -0.010  -0.103  0.00  0.00    +0.020 C 
ENDBRANCH   9  20
ENDBRANCH   1   9
BRANCH   7  21
ATOM     21  C   UNL     1       0.580  -6.308   1.143  0.00  0.00    +0.058 A 
ATOM     22  C   UNL     1       1.832  -6.808   0.780  0.00  0.00    +0.052 A 
ATOM     23  C   UNL     1       2.627  -7.425   1.726  0.00  0.00    +0.124 A 
ATOM     24  C   UNL     1       2.183  -7.548   3.034  0.00  0.00    +0.040 A 
ATOM     25  C   UNL     1       0.945  -7.055   3.399  0.00  0.00    +0.023 A 
ATOM     26  C   UNL     1       0.142  -6.431   2.464  0.00  0.00    +0.053 A 
ATOM     27 CL   UNL     1      -1.409  -5.806   2.927  0.00  0.00    -0.083 Cl
ATOM     28  F   UNL     1       3.839  -7.910   1.377  0.00  0.00    -0.205 F 
ENDBRANCH   7  21
TORSDOF 3
