REMARK  Name = ZINC64870623
REMARK  7 active torsions:
REMARK  status: ('A' for Active; 'I' for Inactive)
REMARK    1  A    between atoms: C_1  and  C_2
REMARK    2  A    between atoms: C_2  and  C_3
REMARK    3  A    between atoms: C_3  and  C_4
REMARK    4  A    between atoms: C_4  and  N_5
REMARK    5  A    between atoms: C_11  and  C_18
REMARK    6  A    between atoms: C_21  and  C_25
REMARK    7  A    between atoms: C_29  and  C_31
REMARK                            x       y       z     vdW  Elec       q    Type
REMARK                         _______ _______ _______ _____ _____    ______ ____
ROOT
ATOM      1  N   UNL     1      -2.787  -2.571   0.015  0.00  0.00    -0.261 N 
ATOM      2  C   UNL     1      -3.399  -2.801   1.197  0.00  0.00    +0.264 A 
ATOM      3  O   UNL     1      -2.824  -2.593   2.248  0.00  0.00    -0.267 OA
ATOM      4  C   UNL     1      -4.782  -3.311   1.179  0.00  0.00    +0.063 A 
ATOM      5  C   UNL     1      -5.481  -3.572   2.355  0.00  0.00    +0.016 A 
ATOM      6  C   UNL     1      -6.774  -4.048   2.285  0.00  0.00    +0.008 A 
ATOM      7  C   UNL     1      -7.376  -4.266   1.055  0.00  0.00    -0.000 A 
ATOM      8  C   UNL     1      -6.694  -4.010  -0.117  0.00  0.00    +0.034 A 
ATOM      9  C   UNL     1      -5.394  -3.531  -0.067  0.00  0.00    +0.056 A 
ATOM     10  N   UNL     1      -4.673  -3.261  -1.222  0.00  0.00    -0.307 N 
ATOM     11  H   UNL     1      -5.083  -3.408  -2.088  0.00  0.00    +0.170 HD
ATOM     12  C   UNL     1      -3.416  -2.792  -1.150  0.00  0.00    +0.330 A 
ATOM     13  O   UNL     1      -2.820  -2.564  -2.185  0.00  0.00    -0.246 OA
ENDROOT
BRANCH   7  14
ATOM     14  C   UNL     1      -8.789  -4.787   0.998  0.00  0.00    +0.242 C 
ATOM     15  N   UNL     1      -9.086  -5.605   2.196  0.00  0.00    -0.265 NA
ATOM     16  C   UNL     1     -10.490  -5.316   2.557  0.00  0.00    +0.180 C 
ATOM     17  N   UNL     1     -10.969  -4.332   1.558  0.00  0.00    -0.177 NA
ATOM     18  O   UNL     1      -9.732  -3.692   1.054  0.00  0.00    -0.274 OA
ATOM     19  H   UNL     1      -8.956  -6.587   2.004  0.00  0.00    +0.127 HD
ATOM     20  H   UNL     1     -11.468  -4.790   0.810  0.00  0.00    +0.156 HD
BRANCH  16  21
ATOM     21  C   UNL     1     -11.315  -6.575   2.486  0.00  0.00    -0.014 A 
ATOM     22  C   UNL     1     -10.730  -7.800   2.745  0.00  0.00    +0.006 A 
ATOM     23  C   UNL     1     -11.486  -8.955   2.680  0.00  0.00    +0.001 A 
ATOM     24  C   UNL     1     -12.828  -8.885   2.355  0.00  0.00    +0.012 A 
ATOM     25  C   UNL     1     -13.414  -7.660   2.097  0.00  0.00    +0.055 A 
ATOM     26  C   UNL     1     -12.658  -6.504   2.166  0.00  0.00    +0.019 A 
BRANCH  25  27
ATOM     27  C   UNL     1     -14.876  -7.584   1.742  0.00  0.00    +0.417 C 
ATOM     28  F   UNL     1     -15.423  -8.871   1.739  0.00  0.00    -0.166 F 
ATOM     29  F   UNL     1     -15.544  -6.796   2.686  0.00  0.00    -0.166 F 
ATOM     30  F   UNL     1     -15.020  -7.013   0.473  0.00  0.00    -0.166 F 
ENDBRANCH  25  27
ENDBRANCH  16  21
ENDBRANCH   7  14
BRANCH   1  31
ATOM     31  C   UNL     1      -1.413  -2.063   0.004  0.00  0.00    +0.130 C 
BRANCH  31  32
ATOM     32  C   UNL     1      -1.433  -0.534   0.013  0.00  0.00    +0.022 C 
BRANCH  32  34
ATOM     33  C   UNL     1      -0.019   1.526   0.010  0.00  0.00    +0.004 C 
ATOM     34  C   UNL     1       0.002  -0.004   0.002  0.00  0.00    -0.002 C 
ENDBRANCH  32  34
ENDBRANCH  31  32
ENDBRANCH   1  31
TORSDOF 6
