REMARK  Name = ZINC44866136
REMARK  7 active torsions:
REMARK  status: ('A' for Active; 'I' for Inactive)
REMARK    1  A    between atoms: C_1  and  C_2
REMARK    2  A    between atoms: C_2  and  C_3
REMARK    3  A    between atoms: C_3  and  C_4
REMARK    4  A    between atoms: C_4  and  C_6
REMARK    5  A    between atoms: C_4  and  C_10
REMARK    6  A    between atoms: N_7  and  O_8
REMARK    7  A    between atoms: N_12  and  C_13
REMARK                            x       y       z     vdW  Elec       q    Type
REMARK                         _______ _______ _______ _____ _____    ______ ____
ROOT
ATOM      1  C   UNL     1      -0.736  -2.944   1.168  0.00  0.00    +0.228 C 
ATOM      2  O   UNL     1      -1.173  -3.954   1.679  0.00  0.00    -0.275 OA
ATOM      3  N   UNL     1       0.209  -2.223   1.802  0.00  0.00    -0.282 N 
ATOM      4  H   UNL     1       0.591  -1.441   1.374  0.00  0.00    +0.155 HD
ENDROOT
BRANCH   3   5
ATOM      5  C   UNL     1       0.640  -2.603   3.081  0.00  0.00    +0.083 A 
ATOM      6  C   UNL     1      -0.263  -3.149   3.986  0.00  0.00    +0.148 A 
ATOM      7  C   UNL     1       0.165  -3.523   5.247  0.00  0.00    +0.078 A 
ATOM      8  C   UNL     1       1.491  -3.352   5.608  0.00  0.00    +0.127 A 
ATOM      9  C   UNL     1       2.391  -2.808   4.708  0.00  0.00    +0.055 A 
ATOM     10  C   UNL     1       1.970  -2.439   3.444  0.00  0.00    +0.045 A 
ATOM     11 BR   UNL     1       3.203  -1.704   2.212  0.00  0.00    -0.048 Br
ATOM     12  F   UNL     1       1.907  -3.717   6.840  0.00  0.00    -0.205 F 
ATOM     13  F   UNL     1      -1.557  -3.314   3.635  0.00  0.00    -0.203 F 
ENDBRANCH   3   5
BRANCH   1  14
ATOM     14  C   UNL     1      -1.250  -2.497  -0.176  0.00  0.00    +0.141 C 
BRANCH  14  15
ATOM     15  C   UNL     1      -0.445  -3.154  -1.267  0.00  0.00    +0.144 C 
ATOM     16  N   UNL     1      -0.867  -4.246  -1.813  0.00  0.00    -0.076 NA
ATOM     17  N   UNL     1       0.742  -2.591  -1.681  0.00  0.00    -0.343 N 
ATOM     18  H   UNL     1       1.060  -1.772  -1.270  0.00  0.00    +0.144 HD
ATOM     19  H   UNL     1       1.261  -3.015  -2.383  0.00  0.00    +0.144 HD
BRANCH  16  20
ATOM     20  O   UNL     1      -0.110  -4.864  -2.838  0.00  0.00    -0.408 OA
ATOM     21  H   UNL     1      -0.506  -5.675  -3.185  0.00  0.00    +0.328 HD
ENDBRANCH  16  20
ENDBRANCH  14  15
BRANCH  14  22
ATOM     22  C   UNL     1      -2.721  -2.894  -0.318  0.00  0.00    +0.020 C 
BRANCH  22  24
ATOM     23  C   UNL     1      -4.778  -2.612  -1.707  0.00  0.00    +0.004 C 
ATOM     24  C   UNL     1      -3.274  -2.341  -1.633  0.00  0.00    -0.002 C 
ENDBRANCH  22  24
ENDBRANCH  14  22
ENDBRANCH   1  14
TORSDOF 6
