REMARK  Name = ZINC41303948
REMARK  5 active torsions:
REMARK  status: ('A' for Active; 'I' for Inactive)
REMARK    1  A    between atoms: C_1  and  N_2
REMARK    2  A    between atoms: C_11  and  C_13
REMARK    3  A    between atoms: C_16  and  C_19
REMARK    4  A    between atoms: C_19  and  N_20
REMARK    5  A    between atoms: C_21  and  C_23
REMARK                            x       y       z     vdW  Elec       q    Type
REMARK                         _______ _______ _______ _____ _____    ______ ____
ROOT
ATOM      1  C   UNL     1      -0.018   1.465   0.010  0.00  0.00    +0.105 C 
ATOM      2  N   UNL     1       0.002  -0.004   0.002  0.00  0.00    -0.300 NA
ATOM      3  C   UNL     1      -1.362  -0.549   0.020  0.00  0.00    +0.090 C 
ATOM      4  C   UNL     1      -1.348  -2.033  -0.362  0.00  0.00    +0.071 C 
ATOM      5  C   UNL     1      -0.326  -2.739   0.518  0.00  0.00    +0.056 A 
ATOM      6  C   UNL     1       0.616  -2.008   1.173  0.00  0.00    +0.028 A 
ATOM      7  S   UNL     1       1.534  -3.250   2.037  0.00  0.00    -0.055 S 
ATOM      8  C   UNL     1       0.655  -4.585   1.500  0.00  0.00    +0.165 A 
ATOM      9  N   UNL     1      -0.259  -4.049   0.721  0.00  0.00    -0.229 NA
ATOM     10  N   UNL     1       0.850  -5.926   1.806  0.00  0.00    -0.261 N 
ATOM     11  C   UNL     1       1.850  -6.290   2.633  0.00  0.00    +0.250 C 
ATOM     12  O   UNL     1       2.581  -5.445   3.112  0.00  0.00    -0.270 OA
ATOM     13  C   UNL     1       0.790  -0.529   1.135  0.00  0.00    +0.128 C 
ATOM     14  H   UNL     1       0.266  -6.600   1.425  0.00  0.00    +0.157 HD
ENDROOT
BRANCH  11  15
ATOM     15  C   UNL     1       2.057  -7.717   2.959  0.00  0.00    +0.037 A 
ATOM     16  C   UNL     1       1.222  -8.690   2.407  0.00  0.00    +0.013 A 
ATOM     17  C   UNL     1       1.421 -10.020   2.715  0.00  0.00    +0.006 A 
ATOM     18  C   UNL     1       2.445 -10.390   3.569  0.00  0.00    -0.030 A 
ATOM     19  C   UNL     1       3.276  -9.430   4.120  0.00  0.00    +0.006 A 
ATOM     20  C   UNL     1       3.091  -8.097   3.816  0.00  0.00    +0.013 A 
BRANCH  18  21
ATOM     21  C   UNL     1       2.656 -11.845   3.900  0.00  0.00    +0.139 C 
BRANCH  21  22
ATOM     22  N   UNL     1       3.580 -12.438   2.930  0.00  0.00    -0.311 N 
ATOM     23  C   UNL     1       3.918 -13.739   3.029  0.00  0.00    +0.216 C 
ATOM     24  O   UNL     1       3.458 -14.418   3.922  0.00  0.00    -0.276 OA
ATOM     25  H   UNL     1       3.948 -11.894   2.216  0.00  0.00    +0.149 HD
BRANCH  23  26
ATOM     26  C   UNL     1       4.868 -14.348   2.031  0.00  0.00    +0.075 C 
ATOM     27  C   UNL     1       4.300 -15.381   1.055  0.00  0.00    +0.013 C 
ATOM     28  C   UNL     1       5.213 -15.830   2.198  0.00  0.00    +0.013 C 
ENDBRANCH  23  26
ENDBRANCH  21  22
ENDBRANCH  18  21
ENDBRANCH  11  15
TORSDOF 4
