REMARK  Name = ZINC67393449
REMARK  8 active torsions:
REMARK  status: ('A' for Active; 'I' for Inactive)
REMARK    1  A    between atoms: C_1  and  C_2
REMARK    2  A    between atoms: C_2  and  C_3
REMARK    3  A    between atoms: C_3  and  N_4
REMARK    4  A    between atoms: C_7  and  C_10
REMARK    5  A    between atoms: C_10  and  N_11
REMARK    6  A    between atoms: C_12  and  C_14
REMARK    7  A    between atoms: N_16  and  C_17
REMARK    8  A    between atoms: C_18  and  C_26
REMARK                            x       y       z     vdW  Elec       q    Type
REMARK                         _______ _______ _______ _____ _____    ______ ____
ROOT
ATOM      1  C   UNL     1       5.337  -7.238  -3.013  0.00  0.00    +0.304 C 
ATOM      2  O   UNL     1       6.057  -6.864  -2.110  0.00  0.00    -0.265 OA
ATOM      3  N   UNL     1       5.628  -8.371  -3.682  0.00  0.00    -0.271 N 
ATOM      4  H   UNL     1       5.053  -8.669  -4.404  0.00  0.00    +0.156 HD
ENDROOT
BRANCH   3   5
ATOM      5  C   UNL     1       6.748  -9.110  -3.338  0.00  0.00    +0.090 A 
ATOM      6  C   UNL     1       7.221 -10.290  -3.900  0.00  0.00    +0.084 A 
ATOM      7  C   UNL     1       8.432 -10.867  -3.347  0.00  0.00    -0.018 A 
ATOM      8  C   UNL     1       9.000 -10.195  -2.319  0.00  0.00    -0.004 A 
ATOM      9  S   UNL     1       7.955  -8.786  -2.066  0.00  0.00    -0.077 S 
ATOM     10  C   UNL     1      10.242 -10.565  -1.569  0.00  0.00    +0.043 C 
ATOM     11  C   UNL     1      10.585 -12.027  -1.891  0.00  0.00    +0.005 C 
ATOM     12  C   UNL     1      10.512 -12.226  -3.407  0.00  0.00    +0.005 C 
ATOM     13  C   UNL     1       9.056 -12.157  -3.872  0.00  0.00    +0.037 C 
BRANCH   6  14
ATOM     14  C   UNL     1       6.534 -10.916  -4.990  0.00  0.00    +0.102 C 
ATOM     15  N   UNL     1       5.990 -11.413  -5.855  0.00  0.00    -0.191 NA
ENDBRANCH   6  14
ENDBRANCH   3   5
BRANCH   1  17
ATOM     16  N   UNL     1       3.840  -5.308  -2.716  0.00  0.00    -0.307 N 
ATOM     17  C   UNL     1       4.130  -6.441  -3.384  0.00  0.00    +0.299 C 
ATOM     18  O   UNL     1       3.411  -6.814  -4.288  0.00  0.00    -0.265 OA
ATOM     19  H   UNL     1       4.415  -5.009  -1.993  0.00  0.00    +0.149 HD
BRANCH  16  20
ATOM     20  C   UNL     1       2.655  -4.526  -3.079  0.00  0.00    +0.106 C 
BRANCH  20  24
ATOM     21  N   UNL     1       0.738  -1.966  -1.265  0.00  0.00    +0.380 N 
ATOM     22  C   UNL     1       1.571  -2.459  -0.147  0.00  0.00    -0.079 C 
ATOM     23  C   UNL     1       2.278  -3.719  -0.706  0.00  0.00    -0.016 C 
ATOM     24  C   UNL     1       2.557  -3.297  -2.173  0.00  0.00    -0.012 C 
ATOM     25  C   UNL     1       1.319  -2.448  -2.531  0.00  0.00    -0.074 C 
ATOM     26  H   UNL     1      -0.202  -2.320  -1.167  0.00  0.00    -0.082 HD
BRANCH  21  27
ATOM     27  C   UNL     1       0.718  -0.497  -1.257  0.00  0.00    -0.079 C 
BRANCH  27  29
ATOM     28  C   UNL     1      -0.019   1.526   0.010  0.00  0.00    +0.002 C 
ATOM     29  C   UNL     1       0.002  -0.004   0.002  0.00  0.00    -0.022 C 
ENDBRANCH  27  29
ENDBRANCH  21  27
ENDBRANCH  20  24
ENDBRANCH  16  20
ENDBRANCH   1  17
TORSDOF 7
