REMARK  Name = ZINC28470016
REMARK  8 active torsions:
REMARK  status: ('A' for Active; 'I' for Inactive)
REMARK    1  A    between atoms: C_1  and  C_2
REMARK    2  A    between atoms: C_2  and  N_3
REMARK    3  A    between atoms: N_3  and  C_4
REMARK    4  A    between atoms: C_4  and  C_5
REMARK    5  A    between atoms: C_6  and  C_8
REMARK    6  A    between atoms: C_9  and  C_26
REMARK    7  A    between atoms: C_14  and  C_16
REMARK    8  A    between atoms: C_20  and  N_22
REMARK                            x       y       z     vdW  Elec       q    Type
REMARK                         _______ _______ _______ _____ _____    ______ ____
ROOT
ATOM      1  C   UNL     1      -5.964   1.464  -1.605  0.00  0.00    +0.056 C 
ATOM      2  C   UNL     1      -6.898   2.369  -1.966  0.00  0.00    +0.017 C 
ATOM      3  N   UNL     1      -7.730   2.931  -1.040  0.00  0.00    -0.300 N 
ATOM      4  C   UNL     1      -7.690   2.641   0.266  0.00  0.00    +0.135 C 
ATOM      5  S   UNL     1      -8.792   3.420   1.321  0.00  0.00    -0.019 S 
ATOM      6  N   UNL     1      -6.812   1.756   0.778  0.00  0.00    -0.315 N 
ATOM      7  C   UNL     1      -5.870   1.093  -0.139  0.00  0.00    +0.139 C 
ATOM      8  C   UNL     1      -7.025   2.765  -3.414  0.00  0.00    +0.061 C 
ATOM      9  H   UNL     1      -8.485   3.666  -1.354  0.00  0.00    +0.154 HD
ATOM     10  H   UNL     1      -6.788   1.525   1.853  0.00  0.00    +0.149 HD
ENDROOT
BRANCH   7  11
ATOM     11  C   UNL     1      -4.471   1.401   0.329  0.00  0.00    -0.020 A 
ATOM     12  C   UNL     1      -4.164   2.663   0.806  0.00  0.00    +0.007 A 
ATOM     13  C   UNL     1      -2.881   2.946   1.235  0.00  0.00    +0.022 A 
ATOM     14  C   UNL     1      -1.904   1.967   1.188  0.00  0.00    +0.071 A 
ATOM     15  C   UNL     1      -2.212   0.706   0.711  0.00  0.00    +0.145 A 
ATOM     16  C   UNL     1      -3.494   0.425   0.276  0.00  0.00    +0.040 A 
ATOM     17 CL   UNL     1      -0.293   2.322   1.728  0.00  0.00    -0.081 Cl
BRANCH  15  18
ATOM     18  N   UNL     1      -1.167  -0.341   0.659  0.00  0.00    +0.058 N 
ATOM     19  O   UNL     1      -1.438  -1.452   0.239  0.00  0.00    -0.126 OA
ATOM     20  O   UNL     1      -0.035  -0.091   1.033  0.00  0.00    -0.126 OA
ENDBRANCH  15  18
ENDBRANCH   7  11
BRANCH   1  22
ATOM     21  N   UNL     1      -4.185   1.638  -3.198  0.00  0.00    -0.298 N 
ATOM     22  C   UNL     1      -5.101   0.879  -2.565  0.00  0.00    +0.246 C 
ATOM     23  O   UNL     1      -5.187  -0.308  -2.818  0.00  0.00    -0.270 OA
BRANCH  21  25
ATOM     24  C   UNL     1      -2.841   3.153  -1.826  0.00  0.00    +0.024 C 
ATOM     25  C   UNL     1      -4.004   3.041  -2.814  0.00  0.00    +0.104 C 
ENDBRANCH  21  25
BRANCH  21  26
ATOM     26  C   UNL     1      -3.370   1.061  -4.270  0.00  0.00    +0.104 C 
ATOM     27  C   UNL     1      -4.081   1.254  -5.611  0.00  0.00    +0.024 C 
ENDBRANCH  21  26
ENDBRANCH   1  22
TORSDOF 5
