REMARK  Name = ZINC24090455
REMARK  10 active torsions:
REMARK  status: ('A' for Active; 'I' for Inactive)
REMARK    1  A    between atoms: C_1  and  C_2
REMARK    2  A    between atoms: C_2  and  C_3
REMARK    3  A    between atoms: C_3  and  C_4
REMARK    4  A    between atoms: C_4  and  C_5
REMARK    5  A    between atoms: C_5  and  C_31
REMARK    6  A    between atoms: N_8  and  C_12
REMARK    7  A    between atoms: C_12  and  C_13
REMARK    8  A    between atoms: N_15  and  C_16
REMARK    9  A    between atoms: C_16  and  C_18
REMARK   10  A    between atoms: C_16  and  C_24
REMARK                            x       y       z     vdW  Elec       q    Type
REMARK                         _______ _______ _______ _____ _____    ______ ____
ROOT
ATOM      1  C   UNL     1      -4.426   1.912   1.389  0.00  0.00    +0.213 C 
ENDROOT
BRANCH   1   5
ATOM      2  C   UNL     1      -0.729   1.579   1.267  0.00  0.00    +0.138 C 
ATOM      3  C   UNL     1      -2.120   0.984   1.357  0.00  0.00    +0.251 C 
ATOM      4  O   UNL     1      -2.410  -0.191   1.441  0.00  0.00    -0.272 OA
ATOM      5  N   UNL     1      -2.967   2.031   1.325  0.00  0.00    -0.215 N 
ATOM      6  C   UNL     1      -2.312   3.193   1.228  0.00  0.00    +0.310 C 
ATOM      7  O   UNL     1      -2.861   4.277   1.183  0.00  0.00    -0.252 OA
ATOM      8  N   UNL     1      -0.977   3.029   1.187  0.00  0.00    -0.281 N 
ATOM      9  H   UNL     1      -0.132   3.729   1.111  0.00  0.00    +0.152 HD
BRANCH   2  10
ATOM     10  C   UNL     1       0.073   1.242   2.498  0.00  0.00    -0.015 A 
ATOM     11  C   UNL     1       0.875   0.117   2.513  0.00  0.00    +0.006 A 
ATOM     12  C   UNL     1       1.614  -0.190   3.641  0.00  0.00    +0.000 A 
ATOM     13  C   UNL     1       1.544   0.624   4.755  0.00  0.00    +0.000 A 
ATOM     14  C   UNL     1       0.737   1.747   4.742  0.00  0.00    +0.000 A 
ATOM     15  C   UNL     1       0.002   2.056   3.613  0.00  0.00    +0.006 A 
ENDBRANCH   2  10
BRANCH   2  16
ATOM     16  C   UNL     1      -0.013   1.086   0.008  0.00  0.00    +0.040 C 
BRANCH  16  17
ATOM     17  C   UNL     1      -0.753   1.593  -1.232  0.00  0.00    +0.003 C 
BRANCH  17  19
ATOM     18  C   UNL     1      -0.777   1.606  -3.730  0.00  0.00    +0.004 C 
ATOM     19  C   UNL     1      -0.037   1.099  -2.490  0.00  0.00    -0.003 C 
ENDBRANCH  17  19
ENDBRANCH  16  17
ENDBRANCH   2  16
ENDBRANCH   1   5
BRANCH   1  20
ATOM     20  C   UNL     1      -4.871   1.959   2.829  0.00  0.00    +0.232 C 
ATOM     21  O   UNL     1      -4.050   2.080   3.713  0.00  0.00    -0.274 OA
ATOM     22  N   UNL     1      -6.181   1.866   3.132  0.00  0.00    -0.303 N 
ATOM     23  H   UNL     1      -6.925   1.756   2.330  0.00  0.00    +0.150 HD
BRANCH  22  24
ATOM     24  C   UNL     1      -6.613   1.911   4.531  0.00  0.00    +0.134 C 
BRANCH  24  25
ATOM     25  C   UNL     1      -8.038   2.399   4.601  0.00  0.00    -0.023 A 
ATOM     26  C   UNL     1      -8.959   1.976   3.662  0.00  0.00    +0.007 A 
ATOM     27  C   UNL     1     -10.267   2.418   3.729  0.00  0.00    +0.020 A 
ATOM     28  C   UNL     1     -10.651   3.293   4.729  0.00  0.00    +0.041 A 
ATOM     29  C   UNL     1      -9.726   3.721   5.666  0.00  0.00    +0.020 A 
ATOM     30  C   UNL     1      -8.420   3.273   5.601  0.00  0.00    +0.007 A 
ATOM     31 CL   UNL     1     -12.292   3.854   4.810  0.00  0.00    -0.084 Cl
ENDBRANCH  24  25
BRANCH  24  32
ATOM     32  C   UNL     1      -6.525   0.531   5.130  0.00  0.00    -0.023 A 
ATOM     33  C   UNL     1      -6.907  -0.570   4.387  0.00  0.00    +0.006 A 
ATOM     34  C   UNL     1      -6.822  -1.837   4.934  0.00  0.00    +0.000 A 
ATOM     35  C   UNL     1      -6.363  -2.001   6.228  0.00  0.00    +0.000 A 
ATOM     36  C   UNL     1      -5.986  -0.899   6.973  0.00  0.00    +0.000 A 
ATOM     37  C   UNL     1      -6.066   0.367   6.423  0.00  0.00    +0.006 A 
ENDBRANCH  24  32
ENDBRANCH  22  24
ENDBRANCH   1  20
TORSDOF 9
