REMARK  Name = ZINC06878692
REMARK  9 active torsions:
REMARK  status: ('A' for Active; 'I' for Inactive)
REMARK    1  A    between atoms: C_1  and  N_2
REMARK    2  A    between atoms: N_2  and  C_3
REMARK    3  A    between atoms: N_2  and  S_4
REMARK    4  A    between atoms: S_4  and  C_7
REMARK    5  A    between atoms: C_10  and  C_13
REMARK    6  A    between atoms: C_13  and  C_15
REMARK    7  A    between atoms: C_17  and  C_29
REMARK    8  A    between atoms: C_23  and  C_24
REMARK    9  A    between atoms: C_23  and  O_28
REMARK                            x       y       z     vdW  Elec       q    Type
REMARK                         _______ _______ _______ _____ _____    ______ ____
ROOT
ATOM      1  C   UNL     1      -2.037  -3.137  -6.726  0.00  0.00    +0.144 C 
ATOM      2  C   UNL     1      -2.152  -2.630  -8.167  0.00  0.00    +0.120 C 
ATOM      3  N   UNL     1      -3.478  -2.043  -8.367  0.00  0.00    -0.292 N 
ATOM      4  C   UNL     1      -4.542  -2.471  -7.670  0.00  0.00    +0.302 C 
ATOM      5  O   UNL     1      -5.623  -1.957  -7.882  0.00  0.00    -0.253 OA
ATOM      6  N   UNL     1      -4.460  -3.444  -6.750  0.00  0.00    -0.264 N 
ATOM      7  C   UNL     1      -3.187  -4.113  -6.456  0.00  0.00    +0.243 C 
ATOM      8  H   UNL     1      -3.590  -1.330  -9.015  0.00  0.00    +0.151 HD
ATOM      9  H   UNL     1      -5.258  -3.710  -6.269  0.00  0.00    +0.153 HD
ENDROOT
BRANCH   2  10
ATOM     10  C   UNL     1      -1.095  -1.585  -8.419  0.00  0.00    -0.026 A 
ATOM     11  C   UNL     1      -1.325  -0.269  -8.066  0.00  0.00    +0.005 A 
ATOM     12  C   UNL     1      -0.356   0.689  -8.297  0.00  0.00    +0.000 A 
ATOM     13  C   UNL     1       0.845   0.330  -8.880  0.00  0.00    +0.000 A 
ATOM     14  C   UNL     1       1.076  -0.986  -9.233  0.00  0.00    +0.000 A 
ATOM     15  C   UNL     1       0.108  -1.945  -8.998  0.00  0.00    +0.005 A 
ENDBRANCH   2  10
BRANCH   7  16
ATOM     16  C   UNL     1      -3.157  -4.545  -4.988  0.00  0.00    +0.436 C 
ATOM     17  F   UNL     1      -3.431  -3.442  -4.172  0.00  0.00    -0.166 F 
ATOM     18  F   UNL     1      -4.122  -5.535  -4.773  0.00  0.00    -0.166 F 
ATOM     19  F   UNL     1      -1.891  -5.052  -4.677  0.00  0.00    -0.166 F 
ENDBRANCH   7  16
BRANCH   1  20
ATOM     20  C   UNL     1      -2.126  -1.974  -5.772  0.00  0.00    +0.173 C 
ATOM     21  O   UNL     1      -3.149  -1.327  -5.698  0.00  0.00    -0.292 OA
BRANCH  20  25
ATOM     22  C   UNL     1       1.202  -0.965  -3.343  0.00  0.00    +0.105 A 
ATOM     23  C   UNL     1       0.078  -0.157  -3.340  0.00  0.00    +0.029 A 
ATOM     24  C   UNL     1      -1.008  -0.478  -4.127  0.00  0.00    +0.013 A 
ATOM     25  C   UNL     1      -0.971  -1.623  -4.929  0.00  0.00    +0.018 A 
ATOM     26  C   UNL     1       0.168  -2.434  -4.926  0.00  0.00    +0.013 A 
ATOM     27  C   UNL     1       1.248  -2.096  -4.138  0.00  0.00    +0.029 A 
BRANCH  22  28
ATOM     28  S   UNL     1       2.584  -0.546  -2.333  0.00  0.00    +0.060 S 
ATOM     29  O   UNL     1       3.300  -1.752  -2.104  0.00  0.00    -0.153 OA
ATOM     30  O   UNL     1       2.084   0.256  -1.272  0.00  0.00    -0.153 OA
BRANCH  28  32
ATOM     31  C   UNL     1       3.391   1.881  -3.213  0.00  0.00    +0.131 C 
ATOM     32  N   UNL     1       3.573   0.427  -3.237  0.00  0.00    -0.183 NA
ATOM     33  C   UNL     1       4.630  -0.165  -4.060  0.00  0.00    +0.131 C 
ENDBRANCH  28  32
ENDBRANCH  22  28
ENDBRANCH  20  25
ENDBRANCH   1  20
BRANCH   7  34
ATOM     34  O   UNL     1      -3.046  -5.261  -7.295  0.00  0.00    -0.364 OA
ATOM     35  H   UNL     1      -3.742  -5.922  -7.177  0.00  0.00    +0.212 HD
ENDBRANCH   7  34
TORSDOF 7
