REMARK  Name = ZINC13041103
REMARK  10 active torsions:
REMARK  status: ('A' for Active; 'I' for Inactive)
REMARK    1  A    between atoms: C_1  and  C_2
REMARK    2  A    between atoms: C_2  and  O_3
REMARK    3  A    between atoms: O_3  and  C_4
REMARK    4  A    between atoms: C_7  and  C_10
REMARK    5  A    between atoms: C_10  and  C_12
REMARK    6  A    between atoms: C_16  and  N_17
REMARK    7  A    between atoms: C_18  and  C_20
REMARK    8  A    between atoms: C_20  and  N_67
REMARK    9  A    between atoms: C_23  and  C_26
REMARK   10  A    between atoms: C_30  and  C_34
REMARK                            x       y       z     vdW  Elec       q    Type
REMARK                         _______ _______ _______ _____ _____    ______ ____
ROOT
ATOM      1  C   UNL     1      -0.532  -4.062   1.009  0.00  0.00    +0.054 A 
ATOM      2  C   UNL     1      -0.393  -2.631   0.796  0.00  0.00    -0.024 A 
ATOM      3  C   UNL     1      -1.487  -2.014   0.301  0.00  0.00    -0.004 A 
ATOM      4  S   UNL     1      -2.689  -3.300   0.117  0.00  0.00    -0.077 S 
ATOM      5  C   UNL     1      -1.754  -4.642   0.689  0.00  0.00    +0.083 A 
ATOM      6  C   UNL     1      -1.635  -0.558  -0.018  0.00  0.00    +0.046 C 
ATOM      7  C   UNL     1      -0.237   0.074  -0.054  0.00  0.00    -0.009 C 
ATOM      8  C   UNL     1       0.535  -0.363   1.194  0.00  0.00    +0.008 C 
ATOM      9  C   UNL     1       0.881  -1.850   1.097  0.00  0.00    +0.037 C 
ATOM     10  C   UNL     1      -0.363   1.599  -0.071  0.00  0.00    +0.008 C 
ENDROOT
BRANCH   5  11
ATOM     11  N   UNL     1      -2.132  -5.970   0.800  0.00  0.00    -0.281 N 
ATOM     12  C   UNL     1      -3.405  -6.332   0.544  0.00  0.00    +0.201 C 
ATOM     13  O   UNL     1      -4.220  -5.495   0.217  0.00  0.00    -0.278 OA
ATOM     14  H   UNL     1      -1.481  -6.640   1.061  0.00  0.00    +0.155 HD
BRANCH  12  15
ATOM     15  C   UNL     1      -3.817  -7.777   0.665  0.00  0.00    +0.019 C 
BRANCH  15  21
ATOM     16  C   UNL     1      -6.077  -7.218   1.329  0.00  0.00    -0.077 C 
ATOM     17  C   UNL     1      -7.539  -7.252   0.880  0.00  0.00    -0.006 C 
ATOM     18  C   UNL     1      -7.989  -8.708   0.732  0.00  0.00    +0.071 C 
ATOM     19  C   UNL     1      -7.074  -9.417  -0.270  0.00  0.00    -0.006 C 
ATOM     20  C   UNL     1      -5.625  -9.321   0.212  0.00  0.00    -0.077 C 
ATOM     21  N   UNL     1      -5.246  -7.895   0.311  0.00  0.00    +0.385 N 
ATOM     22  H   UNL     1      -5.402  -7.446  -0.599  0.00  0.00    -0.081 HD
BRANCH  18  23
ATOM     23  C   UNL     1      -9.411  -8.749   0.232  0.00  0.00    +0.213 C 
ATOM     24  O   UNL     1      -9.668  -9.292  -0.821  0.00  0.00    -0.276 OA
ATOM     25  N   UNL     1     -10.396  -8.182   0.957  0.00  0.00    -0.329 N 
ATOM     26  H   UNL     1     -10.190  -7.748   1.799  0.00  0.00    +0.145 HD
ATOM     27  H   UNL     1     -11.311  -8.208   0.635  0.00  0.00    +0.145 HD
ENDBRANCH  18  23
ENDBRANCH  15  21
ENDBRANCH  12  15
ENDBRANCH   5  11
BRANCH   1  28
ATOM     28  C   UNL     1       0.574  -4.863   1.540  0.00  0.00    +0.196 C 
ATOM     29  O   UNL     1       0.646  -5.085   2.735  0.00  0.00    -0.287 OA
BRANCH  28  33
ATOM     30  C   UNL     1       3.529  -6.412  -1.089  0.00  0.00    +0.121 A 
ATOM     31  C   UNL     1       3.554  -6.752   0.259  0.00  0.00    +0.046 A 
ATOM     32  C   UNL     1       2.597  -6.252   1.115  0.00  0.00    +0.015 A 
ATOM     33  C   UNL     1       1.602  -5.402   0.626  0.00  0.00    +0.023 A 
ATOM     34  C   UNL     1       1.577  -5.067  -0.730  0.00  0.00    +0.015 A 
ATOM     35  C   UNL     1       2.540  -5.567  -1.578  0.00  0.00    +0.046 A 
BRANCH  30  36
ATOM     36  O   UNL     1       4.473  -6.907  -1.929  0.00  0.00    -0.492 OA
BRANCH  36  38
ATOM     37  C   UNL     1       5.529  -7.170  -4.087  0.00  0.00    +0.048 C 
ATOM     38  C   UNL     1       4.389  -6.518  -3.301  0.00  0.00    +0.225 C 
ENDBRANCH  36  38
ENDBRANCH  30  36
ENDBRANCH  28  33
ENDBRANCH   1  28
TORSDOF 8
