REMARK  Name = ZINC38777210
REMARK  5 active torsions:
REMARK  status: ('A' for Active; 'I' for Inactive)
REMARK    1  A    between atoms: C_1  and  C_2
REMARK    2  A    between atoms: C_2  and  C_3
REMARK    3  A    between atoms: C_2  and  C_4
REMARK    4  A    between atoms: C_6  and  C_10
REMARK    5  A    between atoms: C_14  and  C_17
REMARK                            x       y       z     vdW  Elec       q    Type
REMARK                         _______ _______ _______ _____ _____    ______ ____
ROOT
ATOM      1  C   UNL     1       0.938  -0.952   4.528  0.00  0.00    +0.232 C 
ATOM      2  N   UNL     1       2.066  -1.099   5.485  0.00  0.00    -0.225 NA
ATOM      3  N   UNL     1       1.408  -1.117   6.796  0.00  0.00    -0.223 NA
ATOM      4  C   UNL     1       0.012  -1.530   6.541  0.00  0.00    +0.233 C 
ATOM      5  O   UNL     1      -0.109  -1.751   5.122  0.00  0.00    -0.335 OA
ATOM      6  H   UNL     1       2.706  -0.321   5.412  0.00  0.00    +0.143 HD
ATOM      7  H   UNL     1       1.442  -0.206   7.230  0.00  0.00    +0.144 HD
ENDROOT
BRANCH   4   8
ATOM      8  C   UNL     1      -0.293  -2.801   7.291  0.00  0.00    -0.003 A 
ATOM      9  C   UNL     1      -1.024  -3.804   6.682  0.00  0.00    +0.008 A 
ATOM     10  C   UNL     1      -1.304  -4.970   7.370  0.00  0.00    +0.015 A 
ATOM     11  C   UNL     1      -0.853  -5.133   8.667  0.00  0.00    +0.018 A 
ATOM     12  C   UNL     1      -0.122  -4.129   9.276  0.00  0.00    +0.015 A 
ATOM     13  C   UNL     1       0.162  -2.966   8.586  0.00  0.00    +0.008 A 
ATOM     14 BR   UNL     1      -1.236  -6.728   9.608  0.00  0.00    -0.050 Br
ENDBRANCH   4   8
BRANCH   1  17
ATOM     15  C   UNL     1       0.731  -0.503   1.223  0.00  0.00    +0.064 C 
ATOM     16  C   UNL     1       0.194  -1.291   2.157  0.00  0.00    +0.030 C 
ATOM     17  C   UNL     1       1.322  -1.500   3.152  0.00  0.00    +0.197 C 
ATOM     18  N   UNL     1       2.427  -0.722   2.567  0.00  0.00    -0.176 NA
ATOM     19  N   UNL     1       2.019  -0.219   1.517  0.00  0.00    -0.158 NA
BRANCH  15  21
ATOM     20  C   UNL     1      -0.019   1.526   0.010  0.00  0.00    +0.014 C 
ATOM     21  C   UNL     1       0.002  -0.004   0.002  0.00  0.00    +0.033 C 
ATOM     22  C   UNL     1       0.718  -0.497  -1.257  0.00  0.00    +0.014 C 
ENDBRANCH  15  21
ENDBRANCH   1  17
TORSDOF 3
