REMARK  Name = ZINC36500689
REMARK  12 active torsions:
REMARK  status: ('A' for Active; 'I' for Inactive)
REMARK    1  A    between atoms: C_1  and  C_2
REMARK    2  A    between atoms: C_2  and  C_3
REMARK    3  A    between atoms: C_2  and  C_4
REMARK    4  A    between atoms: C_2  and  N_5
REMARK    5  A    between atoms: C_6  and  C_8
REMARK    6  A    between atoms: C_8  and  C_10
REMARK    7  A    between atoms: C_8  and  N_16
REMARK    8  A    between atoms: N_16  and  C_17
REMARK    9  A    between atoms: C_17  and  C_18
REMARK   10  A    between atoms: C_23  and  C_25
REMARK   11  A    between atoms: C_29  and  O_32
REMARK   12  A    between atoms: C_30  and  O_31
REMARK                            x       y       z     vdW  Elec       q    Type
REMARK                         _______ _______ _______ _____ _____    ______ ____
ROOT
ATOM      1  N   UNL     1       4.195   0.262  -2.554  0.00  0.00    -0.278 N 
ATOM      2  C   UNL     1       5.031   0.784  -3.474  0.00  0.00    +0.251 C 
ATOM      3  O   UNL     1       4.710   0.801  -4.647  0.00  0.00    -0.270 OA
ENDROOT
BRANCH   2   4
ATOM      4  C   UNL     1       6.334   1.336  -3.058  0.00  0.00    +0.082 A 
ATOM      5  C   UNL     1       7.000   0.805  -1.948  0.00  0.00    +0.017 A 
ATOM      6  C   UNL     1       8.217   1.323  -1.563  0.00  0.00    +0.005 A 
ATOM      7  C   UNL     1       8.789   2.368  -2.270  0.00  0.00    +0.049 A 
ATOM      8  C   UNL     1       8.142   2.904  -3.370  0.00  0.00    +0.159 A 
ATOM      9  C   UNL     1       6.914   2.388  -3.775  0.00  0.00    +0.171 A 
BRANCH   9  10
ATOM     10  O   UNL     1       6.280   2.907  -4.857  0.00  0.00    -0.503 OA
ATOM     11  H   UNL     1       5.684   3.640  -4.650  0.00  0.00    +0.292 HD
ENDBRANCH   9  10
BRANCH   8  12
ATOM     12  O   UNL     1       8.709   3.930  -4.059  0.00  0.00    -0.503 OA
ATOM     13  H   UNL     1       9.285   3.648  -4.782  0.00  0.00    +0.292 HD
ENDBRANCH   8  12
ENDBRANCH   2   4
BRANCH   1  14
ATOM     14  C   UNL     1       2.862  -0.196  -2.952  0.00  0.00    +0.166 C 
BRANCH  14  15
ATOM     15  C   UNL     1       2.720  -1.687  -2.638  0.00  0.00    +0.019 C 
ATOM     16  C   UNL     1       3.837  -2.464  -3.337  0.00  0.00    +0.006 C 
ATOM     17  C   UNL     1       3.695  -3.954  -3.022  0.00  0.00    +0.000 C 
ATOM     18  C   UNL     1       2.338  -4.454  -3.521  0.00  0.00    +0.000 C 
ATOM     19  C   UNL     1       1.220  -3.677  -2.822  0.00  0.00    +0.000 C 
ATOM     20  C   UNL     1       1.362  -2.186  -3.136  0.00  0.00    +0.006 C 
ENDBRANCH  14  15
BRANCH  14  22
ATOM     21  N   UNL     1       0.545   0.611  -2.637  0.00  0.00    -0.309 N 
ATOM     22  C   UNL     1       1.817   0.579  -2.192  0.00  0.00    +0.234 C 
ATOM     23  O   UNL     1       2.120   1.175  -1.180  0.00  0.00    -0.274 OA
ATOM     24  H   UNL     1       0.317   0.197  -3.484  0.00  0.00    +0.149 HD
BRANCH  21  26
ATOM     25  C   UNL     1      -0.130   2.746  -1.654  0.00  0.00    +0.031 C 
ATOM     26  C   UNL     1      -0.493   1.272  -1.843  0.00  0.00    +0.026 C 
ATOM     27  C   UNL     1      -0.597   0.594  -0.475  0.00  0.00    +0.031 C 
ATOM     28  C   UNL     1      -1.836   1.166  -2.568  0.00  0.00    +0.031 C 
ENDBRANCH  21  26
ENDBRANCH  14  22
ENDBRANCH   1  14
BRANCH   1  29
ATOM     29  C   UNL     1       4.620   0.153  -1.156  0.00  0.00    +0.183 C 
BRANCH  29  30
ATOM     30  C   UNL     1       4.887  -1.292  -0.824  0.00  0.00    +0.122 A 
ATOM     31  C   UNL     1       5.999  -1.980  -1.140  0.00  0.00    +0.046 A 
ATOM     32  C   UNL     1       5.827  -3.290  -0.639  0.00  0.00    +0.041 A 
ATOM     33  C   UNL     1       4.620  -3.325  -0.046  0.00  0.00    +0.195 A 
ATOM     34  O   UNL     1       4.058  -2.110  -0.156  0.00  0.00    -0.466 OA
ENDBRANCH  29  30
ENDBRANCH   1  29
TORSDOF 9
