REMARK  Name = ZINC28120861
REMARK  11 active torsions:
REMARK  status: ('A' for Active; 'I' for Inactive)
REMARK    1  A    between atoms: C_1  and  C_2
REMARK    2  A    between atoms: C_2  and  C_3
REMARK    3  A    between atoms: C_8  and  C_28
REMARK    4  A    between atoms: C_9  and  C_25
REMARK    5  A    between atoms: C_12  and  C_15
REMARK    6  A    between atoms: C_13  and  O_14
REMARK    7  A    between atoms: C_15  and  N_16
REMARK    8  A    between atoms: C_21  and  C_23
REMARK    9  A    between atoms: C_23  and  C_24
REMARK   10  A    between atoms: C_25  and  C_26
REMARK   11  A    between atoms: C_25  and  C_27
REMARK                            x       y       z     vdW  Elec       q    Type
REMARK                         _______ _______ _______ _____ _____    ______ ____
ROOT
ATOM      1  C   UNL     1      -6.405   0.338   1.439  0.00  0.00    -0.005 A 
ATOM      2  C   UNL     1      -6.498  -0.961   1.026  0.00  0.00    +0.022 A 
ATOM      3  C   UNL     1      -5.389  -1.587   0.456  0.00  0.00    +0.065 A 
ATOM      4  C   UNL     1      -5.454  -2.987  -0.001  0.00  0.00    +0.202 A 
ATOM      5  O   UNL     1      -6.473  -3.647   0.103  0.00  0.00    -0.286 OA
ATOM      6  C   UNL     1      -4.225  -3.551  -0.589  0.00  0.00    +0.093 A 
ATOM      7  C   UNL     1      -3.120  -2.759  -0.675  0.00  0.00    +0.122 A 
ATOM      8  O   UNL     1      -3.108  -1.496  -0.248  0.00  0.00    -0.458 OA
ATOM      9  C   UNL     1      -4.180  -0.888   0.298  0.00  0.00    +0.144 A 
ATOM     10  C   UNL     1      -4.101   0.430   0.728  0.00  0.00    +0.021 A 
ATOM     11  C   UNL     1      -5.209   1.038   1.293  0.00  0.00    +0.125 A 
ENDROOT
BRANCH   6  12
ATOM     12  C   UNL     1      -4.192  -4.944  -1.074  0.00  0.00    +0.116 A 
ATOM     13  N   UNL     1      -3.230  -5.573  -1.716  0.00  0.00    -0.239 NA
ATOM     14  C   UNL     1      -3.337  -6.861  -2.099  0.00  0.00    +0.079 A 
ATOM     15  C   UNL     1      -2.384  -7.651  -2.785  0.00  0.00    +0.029 A 
ATOM     16  C   UNL     1      -2.652  -8.945  -3.106  0.00  0.00    +0.002 A 
ATOM     17  C   UNL     1      -3.861  -9.542  -2.776  0.00  0.00    +0.001 A 
ATOM     18  C   UNL     1      -4.820  -8.805  -2.105  0.00  0.00    +0.017 A 
ATOM     19  C   UNL     1      -4.559  -7.498  -1.777  0.00  0.00    +0.040 A 
ATOM     20  S   UNL     1      -5.452  -6.206  -0.947  0.00  0.00    -0.067 S 
ENDBRANCH   6  12
BRANCH   7  21
ATOM     21  C   UNL     1      -1.863  -3.333  -1.276  0.00  0.00    +0.050 C 
ATOM     22  C   UNL     1      -1.824  -3.019  -2.773  0.00  0.00    +0.015 C 
ATOM     23  C   UNL     1      -0.642  -2.712  -0.594  0.00  0.00    +0.015 C 
ENDBRANCH   7  21
BRANCH   1  25
ATOM     24  C   UNL     1      -8.357   1.796   0.979  0.00  0.00    +0.009 C 
ATOM     25  C   UNL     1      -7.600   1.017   2.057  0.00  0.00    +0.035 C 
ENDBRANCH   1  25
BRANCH  11  26
ATOM     26  O   UNL     1      -5.130   2.328   1.708  0.00  0.00    -0.506 OA
ATOM     27  H   UNL     1      -4.189   2.886   1.594  0.00  0.00    +0.292 HD
ENDBRANCH  11  26
BRANCH  10  28
ATOM     28  C   UNL     1      -2.813   1.198   0.575  0.00  0.00    -0.035 C 
BRANCH  28  29
ATOM     29  N   UNL     1      -1.991   1.021   1.778  0.00  0.00    +0.384 N 
ATOM     30  C   UNL     1      -2.682   1.533   2.969  0.00  0.00    -0.078 C 
ATOM     31  C   UNL     1      -1.863   1.202   4.218  0.00  0.00    -0.019 C 
ATOM     32  C   UNL     1      -0.476   1.839   4.097  0.00  0.00    -0.003 C 
ATOM     33  C   UNL     1       0.203   1.326   2.824  0.00  0.00    -0.015 C 
ATOM     34  C   UNL     1      -0.676   1.654   1.615  0.00  0.00    -0.068 C 
ATOM     35  H   UNL     1      -1.828  -0.057   1.923  0.00  0.00    -0.081 HD
BRANCH  34  36
ATOM     36  C   UNL     1      -0.010   1.125   0.343  0.00  0.00    -0.019 C 
ATOM     37  C   UNL     1       1.323   1.845   0.128  0.00  0.00    +0.002 C 
ENDBRANCH  34  36
ENDBRANCH  28  29
ENDBRANCH  10  28
TORSDOF 7
