REMARK  Name = ZINC39716625
REMARK  9 active torsions:
REMARK  status: ('A' for Active; 'I' for Inactive)
REMARK    1  A    between atoms: C_1  and  C_2
REMARK    2  A    between atoms: C_2  and  C_3
REMARK    3  A    between atoms: C_2  and  C_4
REMARK    4  A    between atoms: C_4  and  C_5
REMARK    5  A    between atoms: C_5  and  N_6
REMARK    6  A    between atoms: C_7  and  C_9
REMARK    7  A    between atoms: C_9  and  C_20
REMARK    8  A    between atoms: C_10  and  C_11
REMARK    9  A    between atoms: C_14  and  C_17
REMARK                            x       y       z     vdW  Elec       q    Type
REMARK                         _______ _______ _______ _____ _____    ______ ____
ROOT
ATOM      1  C   UNL     1      -4.486  -4.479  -0.407  0.00  0.00    +0.057 C 
ATOM      2  C   UNL     1      -4.560  -5.799  -0.148  0.00  0.00    +0.020 C 
ENDROOT
BRANCH   1   3
ATOM      3  C   UNL     1      -5.747  -3.661  -0.520  0.00  0.00    +0.211 C 
ATOM      4  N   UNL     1      -5.763  -2.933  -1.794  0.00  0.00    -0.360 N 
ATOM      5  C   UNL     1      -5.805  -1.662  -1.518  0.00  0.00    +0.060 A 
ATOM      6  C   UNL     1      -5.838  -0.457  -2.358  0.00  0.00    +0.027 A 
ATOM      7  C   UNL     1      -5.879   0.759  -1.776  0.00  0.00    +0.002 A 
ATOM      8  C   UNL     1      -5.891   0.931  -0.381  0.00  0.00    +0.002 A 
ATOM      9  C   UNL     1      -5.862  -0.106   0.480  0.00  0.00    +0.027 A 
ATOM     10  C   UNL     1      -5.818  -1.479  -0.040  0.00  0.00    +0.060 A 
ATOM     11  N   UNL     1      -5.784  -2.644   0.539  0.00  0.00    -0.360 N 
ATOM     12  H   UNL     1      -5.747  -3.327  -2.681  0.00  0.00    +0.162 HD
ATOM     13  H   UNL     1      -5.784  -2.810   1.494  0.00  0.00    +0.162 HD
ENDBRANCH   1   3
BRANCH   2  14
ATOM     14  C   UNL     1      -5.854  -6.409   0.202  0.00  0.00    -0.024 A 
ATOM     15  C   UNL     1      -6.165  -7.697  -0.248  0.00  0.00    +0.009 A 
ATOM     16  C   UNL     1      -7.374  -8.267   0.080  0.00  0.00    +0.016 A 
ATOM     17  C   UNL     1      -8.291  -7.559   0.861  0.00  0.00    +0.063 A 
ATOM     18  C   UNL     1      -7.981  -6.273   1.311  0.00  0.00    +0.016 A 
ATOM     19  C   UNL     1      -6.770  -5.704   0.989  0.00  0.00    +0.009 A 
BRANCH  17  20
ATOM     20  C   UNL     1      -9.588  -8.171   1.212  0.00  0.00    +0.387 C 
ATOM     21  O   UNL     1      -9.860  -9.297   0.818  0.00  0.00    -0.241 OA
ATOM     22  O   UNL     1     -10.391  -7.552   1.896  0.00  0.00    -0.241 OA
ENDBRANCH  17  20
ENDBRANCH   2  14
BRANCH   1  24
ATOM     23  N   UNL     1      -3.104  -2.517  -0.839  0.00  0.00    -0.311 N 
ATOM     24  C   UNL     1      -3.178  -3.838  -0.580  0.00  0.00    +0.244 C 
ATOM     25  O   UNL     1      -2.160  -4.498  -0.489  0.00  0.00    -0.270 OA
ATOM     26  H   UNL     1      -3.916  -1.991  -0.911  0.00  0.00    +0.149 HD
BRANCH  23  27
ATOM     27  C   UNL     1      -1.798  -1.877  -1.011  0.00  0.00    +0.105 C 
BRANCH  27  28
ATOM     28  C   UNL     1      -1.994  -0.386  -1.293  0.00  0.00    +0.022 C 
BRANCH  28  30
ATOM     29  C   UNL     1      -0.829   1.746  -1.877  0.00  0.00    +0.007 C 
ATOM     30  C   UNL     1      -0.630   0.283  -1.473  0.00  0.00    -0.016 C 
ATOM     31  C   UNL     1       0.147   0.219  -0.156  0.00  0.00    +0.007 C 
ENDBRANCH  28  30
ENDBRANCH  27  28
ENDBRANCH  23  27
ENDBRANCH   1  24
TORSDOF 7
