REMARK  Name = ZINC63974374
REMARK  9 active torsions:
REMARK  status: ('A' for Active; 'I' for Inactive)
REMARK    1  A    between atoms: C_1  and  C_2
REMARK    2  A    between atoms: C_4  and  C_16
REMARK    3  A    between atoms: C_6  and  C_14
REMARK    4  A    between atoms: C_7  and  N_13
REMARK    5  A    between atoms: C_19  and  O_24
REMARK    6  A    between atoms: C_20  and  O_22
REMARK    7  A    between atoms: O_22  and  C_23
REMARK    8  A    between atoms: O_24  and  C_25
REMARK    9  A    between atoms: C_25  and  C_26
REMARK                            x       y       z     vdW  Elec       q    Type
REMARK                         _______ _______ _______ _____ _____    ______ ____
ROOT
ATOM      1  C   UNL     1      -2.755   0.867   0.756  0.00  0.00    -0.031 A 
ATOM      2  C   UNL     1      -2.246   1.150   2.010  0.00  0.00    +0.008 A 
ATOM      3  C   UNL     1      -2.445   2.396   2.575  0.00  0.00    +0.050 A 
ATOM      4  C   UNL     1      -3.155   3.364   1.884  0.00  0.00    +0.162 A 
ATOM      5  C   UNL     1      -3.668   3.079   0.622  0.00  0.00    +0.162 A 
ATOM      6  C   UNL     1      -3.461   1.830   0.060  0.00  0.00    +0.054 A 
ENDROOT
BRANCH   1  10
ATOM      7  C   UNL     1      -0.018   1.503   0.010  0.00  0.00    +0.067 C 
ATOM      8  C   UNL     1       0.002  -0.004   0.002  0.00  0.00    +0.066 C 
ATOM      9  C   UNL     1      -1.064  -0.768   0.003  0.00  0.00    +0.030 C 
ATOM     10  C   UNL     1      -2.536  -0.493   0.145  0.00  0.00    +0.098 C 
ATOM     11  C   UNL     1      -3.065  -1.577   1.066  0.00  0.00    +0.097 C 
ATOM     12  C   UNL     1      -2.303  -2.628   1.436  0.00  0.00    +0.195 C 
ATOM     13  O   UNL     1      -1.023  -2.853   1.091  0.00  0.00    -0.448 OA
ATOM     14  C   UNL     1      -0.529  -2.198  -0.081  0.00  0.00    +0.343 C 
ATOM     15  N   UNL     1       0.921  -1.985  -0.028  0.00  0.00    -0.138 NA
ATOM     16  N   UNL     1       1.127  -0.765  -0.013  0.00  0.00    -0.155 NA
BRANCH  12  17
ATOM     17  N   UNL     1      -2.896  -3.562   2.247  0.00  0.00    -0.329 N 
ATOM     18  H   UNL     1      -3.818  -3.448   2.526  0.00  0.00    +0.145 HD
ATOM     19  H   UNL     1      -2.393  -4.337   2.542  0.00  0.00    +0.145 HD
ENDBRANCH  12  17
BRANCH  11  20
ATOM     20  C   UNL     1      -4.407  -1.482   1.556  0.00  0.00    +0.101 C 
ATOM     21  N   UNL     1      -5.472  -1.407   1.944  0.00  0.00    -0.191 NA
ENDBRANCH  11  20
ENDBRANCH   1  10
BRANCH   5  22
ATOM     22  O   UNL     1      -4.366   4.027  -0.059  0.00  0.00    -0.491 OA
ATOM     23  C   UNL     1      -4.862   3.664  -1.349  0.00  0.00    +0.277 C 
ENDBRANCH   5  22
BRANCH   4  24
ATOM     24  O   UNL     1      -3.352   4.590   2.439  0.00  0.00    -0.484 OA
BRANCH  24  25
ATOM     25  C   UNL     1      -2.798   4.811   3.737  0.00  0.00    +0.267 C 
BRANCH  25  26
ATOM     26  C   UNL     1      -3.114   6.215   4.186  0.00  0.00    +0.026 A 
ATOM     27  C   UNL     1      -2.246   7.249   3.888  0.00  0.00    +0.049 A 
ATOM     28  C   UNL     1      -2.537   8.537   4.300  0.00  0.00    +0.020 A 
ATOM     29  C   UNL     1      -3.695   8.791   5.011  0.00  0.00    +0.003 A 
ATOM     30  C   UNL     1      -4.563   7.757   5.310  0.00  0.00    +0.020 A 
ATOM     31  C   UNL     1      -4.276   6.470   4.893  0.00  0.00    +0.049 A 
ATOM     32 CL   UNL     1      -5.370   5.173   5.261  0.00  0.00    -0.083 Cl
ATOM     33 CL   UNL     1      -0.791   6.931   2.996  0.00  0.00    -0.083 Cl
ENDBRANCH  25  26
ENDBRANCH  24  25
ENDBRANCH   4  24
TORSDOF 7
