REMARK  Name = ZINC12420035
REMARK  10 active torsions:
REMARK  status: ('A' for Active; 'I' for Inactive)
REMARK    1  A    between atoms: C_1  and  C_2
REMARK    2  A    between atoms: C_2  and  C_3
REMARK    3  A    between atoms: C_3  and  C_4
REMARK    4  A    between atoms: C_4  and  N_5
REMARK    5  A    between atoms: C_10  and  C_35
REMARK    6  A    between atoms: N_24  and  C_27
REMARK    7  A    between atoms: C_27  and  C_28
REMARK    8  A    between atoms: C_35  and  C_36
REMARK    9  A    between atoms: C_36  and  S_37
REMARK   10  A    between atoms: S_37  and  C_38
REMARK                            x       y       z     vdW  Elec       q    Type
REMARK                         _______ _______ _______ _____ _____    ______ ____
ROOT
ATOM      1  N   UNL     1       1.425  -2.500  -2.470  0.00  0.00    -0.242 N 
ATOM      2  C   UNL     1       0.789  -2.748  -3.654  0.00  0.00    +0.227 C 
ATOM      3  O   UNL     1      -0.316  -2.375  -3.983  0.00  0.00    -0.275 OA
ATOM      4  C   UNL     1       1.745  -3.581  -4.464  0.00  0.00    +0.107 C 
ATOM      5  C   UNL     1       1.931  -3.271  -5.954  0.00  0.00    +0.068 C 
ATOM      6  N   UNL     1       3.383  -3.576  -6.176  0.00  0.00    -0.295 NA
ATOM      7  C   UNL     1       4.086  -3.372  -4.871  0.00  0.00    +0.136 C 
ATOM      8  C   UNL     1       3.059  -2.869  -3.944  0.00  0.00    +0.122 C 
ATOM      9  C   UNL     1       2.776  -2.735  -2.534  0.00  0.00    +0.228 C 
ATOM     10  O   UNL     1       3.558  -2.813  -1.611  0.00  0.00    -0.275 OA
ATOM     11  C   UNL     1       4.706  -4.671  -4.427  0.00  0.00    +0.004 A 
ATOM     12  C   UNL     1       4.182  -5.898  -4.084  0.00  0.00    +0.008 A 
ATOM     13  C   UNL     1       5.024  -6.929  -3.705  0.00  0.00    +0.000 A 
ATOM     14  C   UNL     1       6.391  -6.724  -3.674  0.00  0.00    +0.002 A 
ATOM     15  C   UNL     1       6.920  -5.497  -4.018  0.00  0.00    +0.024 A 
ATOM     16  C   UNL     1       6.079  -4.454  -4.400  0.00  0.00    +0.042 A 
ATOM     17  N   UNL     1       6.369  -3.145  -4.788  0.00  0.00    -0.265 N 
ATOM     18  C   UNL     1       5.258  -2.445  -5.081  0.00  0.00    +0.246 C 
ATOM     19  O   UNL     1       5.209  -1.288  -5.445  0.00  0.00    -0.273 OA
ATOM     20  H   UNL     1       3.507  -4.521  -6.509  0.00  0.00    +0.123 HD
ENDROOT
BRANCH   1  21
ATOM     21  C   UNL     1       0.739  -2.027  -1.265  0.00  0.00    +0.116 C 
BRANCH  21  22
ATOM     22  C   UNL     1       0.718  -0.497  -1.257  0.00  0.00    +0.019 C 
BRANCH  22  24
ATOM     23  C   UNL     1      -0.019   1.526   0.010  0.00  0.00    +0.004 C 
ATOM     24  C   UNL     1       0.002  -0.004   0.002  0.00  0.00    -0.002 C 
ENDBRANCH  22  24
ENDBRANCH  21  22
ENDBRANCH   1  21
BRANCH  17  25
ATOM     25  C   UNL     1       7.725  -2.597  -4.866  0.00  0.00    +0.150 C 
BRANCH  25  26
ATOM     26  C   UNL     1       8.282  -2.830  -6.247  0.00  0.00    -0.011 A 
ATOM     27  C   UNL     1       9.149  -3.882  -6.474  0.00  0.00    +0.006 A 
ATOM     28  C   UNL     1       9.660  -4.096  -7.740  0.00  0.00    +0.000 A 
ATOM     29  C   UNL     1       9.305  -3.257  -8.781  0.00  0.00    +0.001 A 
ATOM     30  C   UNL     1       8.438  -2.205  -8.555  0.00  0.00    +0.020 A 
ATOM     31  C   UNL     1       7.922  -1.994  -7.288  0.00  0.00    +0.046 A 
ATOM     32 CL   UNL     1       6.828  -0.676  -7.005  0.00  0.00    -0.083 Cl
ENDBRANCH  25  26
ENDBRANCH  17  25
BRANCH   5  33
ATOM     33  C   UNL     1       1.633  -1.798  -6.243  0.00  0.00    +0.030 C 
BRANCH  33  34
ATOM     34  C   UNL     1       1.705  -1.549  -7.751  0.00  0.00    +0.070 C 
BRANCH  34  35
ATOM     35  S   UNL     1       1.351   0.197  -8.093  0.00  0.00    -0.164 S 
ATOM     36  C   UNL     1       1.475   0.324  -9.898  0.00  0.00    +0.084 C 
ENDBRANCH  34  35
ENDBRANCH  33  34
ENDBRANCH   5  33
TORSDOF 8
