REMARK  Name = ZINC02889958
REMARK  13 active torsions:
REMARK  status: ('A' for Active; 'I' for Inactive)
REMARK    1  A    between atoms: C_1  and  C_2
REMARK    2  A    between atoms: C_2  and  O_3
REMARK    3  A    between atoms: O_3  and  C_4
REMARK    4  A    between atoms: C_6  and  C_20
REMARK    5  A    between atoms: C_9  and  O_10
REMARK    6  A    between atoms: O_10  and  C_11
REMARK    7  A    between atoms: C_11  and  C_12
REMARK    8  A    between atoms: C_20  and  N_21
REMARK    9  A    between atoms: N_21  and  C_22
REMARK   10  A    between atoms: C_22  and  C_23
REMARK   11  A    between atoms: C_23  and  S_24
REMARK   12  A    between atoms: S_24  and  C_25
REMARK   13  A    between atoms: N_29  and  C_30
REMARK                            x       y       z     vdW  Elec       q    Type
REMARK                         _______ _______ _______ _____ _____    ______ ____
ROOT
ATOM      1  C   UNL     1      -1.498  -1.849   0.006  0.00  0.00    +0.163 A 
ATOM      2  C   UNL     1      -0.389  -2.680  -0.003  0.00  0.00    +0.051 A 
ATOM      3  C   UNL     1      -0.553  -4.052  -0.009  0.00  0.00    -0.060 A 
ATOM      4  C   UNL     1      -1.822  -4.600  -0.006  0.00  0.00    +0.021 A 
ATOM      5  C   UNL     1      -2.934  -3.777   0.003  0.00  0.00    +0.063 A 
ATOM      6  C   UNL     1      -2.776  -2.400   0.016  0.00  0.00    +0.176 A 
ATOM      7 BR   UNL     1      -4.668  -4.531   0.006  0.00  0.00    -0.046 Br
ENDROOT
BRANCH   1   8
ATOM      8  O   UNL     1      -1.339  -0.499   0.012  0.00  0.00    -0.489 OA
BRANCH   8  10
ATOM      9  C   UNL     1      -0.019   1.526   0.010  0.00  0.00    +0.048 C 
ATOM     10  C   UNL     1       0.002  -0.004   0.002  0.00  0.00    +0.226 C 
ENDBRANCH   8  10
ENDBRANCH   1   8
BRANCH   6  11
ATOM     11  O   UNL     1      -3.868  -1.589   0.030  0.00  0.00    -0.483 OA
BRANCH  11  12
ATOM     12  C   UNL     1      -4.401  -1.195  -1.236  0.00  0.00    +0.264 C 
BRANCH  12  13
ATOM     13  C   UNL     1      -5.598  -0.305  -1.022  0.00  0.00    -0.010 A 
ATOM     14  C   UNL     1      -6.860  -0.859  -0.917  0.00  0.00    +0.010 A 
ATOM     15  C   UNL     1      -7.959  -0.044  -0.720  0.00  0.00    +0.039 A 
ATOM     16  C   UNL     1      -7.795   1.327  -0.629  0.00  0.00    +0.123 A 
ATOM     17  C   UNL     1      -6.530   1.881  -0.735  0.00  0.00    +0.039 A 
ATOM     18  C   UNL     1      -5.433   1.064  -0.926  0.00  0.00    +0.010 A 
ATOM     19  F   UNL     1      -8.868   2.125  -0.437  0.00  0.00    -0.205 F 
ENDBRANCH  12  13
ENDBRANCH  11  12
ENDBRANCH   6  11
BRANCH   3  20
ATOM     20  C   UNL     1       0.655  -4.954  -0.020  0.00  0.00    -0.047 C 
BRANCH  20  21
ATOM     21  N   UNL     1       1.054  -5.253   1.362  0.00  0.00    +0.382 N 
ATOM     22  H   UNL     1       1.280  -4.394   1.841  0.00  0.00    -0.085 HD
ATOM     23  H   UNL     1       0.294  -5.715   1.839  0.00  0.00    -0.085 HD
BRANCH  21  24
ATOM     24  C   UNL     1       2.232  -6.132   1.351  0.00  0.00    -0.071 C 
BRANCH  24  25
ATOM     25  C   UNL     1       2.648  -6.444   2.790  0.00  0.00    +0.058 C 
BRANCH  25  26
ATOM     26  S   UNL     1       4.101  -7.529   2.777  0.00  0.00    -0.086 S 
BRANCH  26  27
ATOM     27  C   UNL     1       4.452  -7.793   4.484  0.00  0.00    +0.209 A 
ATOM     28  N   UNL     1       3.782  -7.302   5.504  0.00  0.00    -0.102 NA
ATOM     29  N   UNL     1       4.302  -7.690   6.612  0.00  0.00    -0.022 NA
ATOM     30  N   UNL     1       5.324  -8.443   6.388  0.00  0.00    -0.043 NA
ATOM     31  N   UNL     1       5.457  -8.544   4.992  0.00  0.00    -0.223 N 
ATOM     32  C   UNL     1       6.468  -9.298   4.247  0.00  0.00    +0.177 C 
ENDBRANCH  26  27
ENDBRANCH  25  26
ENDBRANCH  24  25
ENDBRANCH  21  24
ENDBRANCH  20  21
ENDBRANCH   3  20
TORSDOF 11
