REMARK  Name = ZINC20990193
REMARK  6 active torsions:
REMARK  status: ('A' for Active; 'I' for Inactive)
REMARK    1  A    between atoms: C_1  and  C_2
REMARK    2  A    between atoms: C_7  and  S_8
REMARK    3  A    between atoms: S_8  and  N_11
REMARK    4  A    between atoms: N_14  and  C_17
REMARK    5  A    between atoms: C_22  and  O_23
REMARK    6  A    between atoms: O_23  and  C_24
REMARK                            x       y       z     vdW  Elec       q    Type
REMARK                         _______ _______ _______ _____ _____    ______ ____
ROOT
ATOM      1  S   UNL     1       1.401   4.002  -0.453  0.00  0.00    +0.061 S 
ATOM      2  O   UNL     1       0.736   4.513   0.695  0.00  0.00    -0.153 OA
ATOM      3  O   UNL     1       2.702   4.428  -0.833  0.00  0.00    -0.153 OA
ENDROOT
BRANCH   1  10
ATOM      4  C   UNL     1       2.718   2.135  -2.426  0.00  0.00    +0.046 C 
ATOM      5  C   UNL     1       2.107   1.478  -1.215  0.00  0.00    -0.023 A 
ATOM      6  C   UNL     1       2.178   0.110  -1.069  0.00  0.00    +0.016 A 
ATOM      7  C   UNL     1       1.619  -0.497   0.053  0.00  0.00    +0.011 A 
ATOM      8  C   UNL     1       0.984   0.289   1.032  0.00  0.00    +0.049 A 
ATOM      9  C   UNL     1       0.924   1.668   0.865  0.00  0.00    +0.055 A 
ATOM     10  C   UNL     1       1.482   2.253  -0.250  0.00  0.00    +0.110 A 
ATOM     11  N   UNL     1       0.526  -0.559   2.024  0.00  0.00    -0.357 N 
ATOM     12  H   UNL     1      -0.009  -0.149   2.894  0.00  0.00    +0.166 HD
ATOM     13  C   UNL     1       0.832  -1.831   1.738  0.00  0.00    +0.028 A 
ATOM     14  C   UNL     1       1.508  -1.878   0.528  0.00  0.00    +0.046 A 
ATOM     15  C   UNL     1       1.960  -3.090  -0.048  0.00  0.00    +0.165 C 
ATOM     16  O   UNL     1       2.579  -3.097  -1.092  0.00  0.00    -0.292 OA
ATOM     17  C   UNL     1       1.643  -4.376   0.685  0.00  0.00    +0.080 C 
ATOM     18  C   UNL     1       1.609  -4.124   2.192  0.00  0.00    +0.014 C 
ATOM     19  C   UNL     1       0.542  -3.079   2.539  0.00  0.00    +0.054 C 
ENDBRANCH   1  10
BRANCH   1  20
ATOM     20  N   UNL     1       0.409   4.299  -1.745  0.00  0.00    -0.174 NA
ATOM     21  C   UNL     1       0.967   4.556  -3.082  0.00  0.00    +0.128 C 
ATOM     22  C   UNL     1       0.270   3.622  -4.083  0.00  0.00    +0.122 C 
ATOM     23  N   UNL     1      -1.185   3.795  -3.974  0.00  0.00    -0.325 N 
ATOM     24  C   UNL     1      -1.671   3.401  -2.645  0.00  0.00    +0.122 C 
ATOM     25  C   UNL     1      -1.053   4.319  -1.586  0.00  0.00    +0.128 C 
BRANCH  23  26
ATOM     26  C   UNL     1      -1.851   3.087  -4.982  0.00  0.00    +0.072 A 
ATOM     27  C   UNL     1      -1.158   2.176  -5.766  0.00  0.00    +0.027 A 
ATOM     28  C   UNL     1      -1.819   1.475  -6.757  0.00  0.00    +0.002 A 
ATOM     29  C   UNL     1      -3.167   1.687  -6.977  0.00  0.00    +0.004 A 
ATOM     30  C   UNL     1      -3.863   2.597  -6.203  0.00  0.00    +0.047 A 
ATOM     31  C   UNL     1      -3.209   3.300  -5.205  0.00  0.00    +0.141 A 
BRANCH  31  32
ATOM     32  O   UNL     1      -3.892   4.197  -4.443  0.00  0.00    -0.493 OA
ATOM     33  C   UNL     1      -5.283   4.364  -4.728  0.00  0.00    +0.277 C 
ENDBRANCH  31  32
ENDBRANCH  23  26
ENDBRANCH   1  20
TORSDOF 4
