REMARK  Name = ZINC34830617
REMARK  8 active torsions:
REMARK  status: ('A' for Active; 'I' for Inactive)
REMARK    1  A    between atoms: C_1  and  C_2
REMARK    2  A    between atoms: C_7  and  C_8
REMARK    3  A    between atoms: N_17  and  C_18
REMARK    4  A    between atoms: C_18  and  C_20
REMARK    5  A    between atoms: C_18  and  C_21
REMARK    6  A    between atoms: N_26  and  S_29
REMARK    7  A    between atoms: S_29  and  C_32
REMARK    8  A    between atoms: C_32  and  C_33
REMARK                            x       y       z     vdW  Elec       q    Type
REMARK                         _______ _______ _______ _____ _____    ______ ____
ROOT
ATOM      1  C   UNL     1      -1.354  -1.104   3.139  0.00  0.00    +0.018 C 
ATOM      2  C   UNL     1      -0.621  -2.046   2.181  0.00  0.00    -0.004 C 
ENDROOT
BRANCH   1  11
ATOM      3  C   UNL     1      -1.104   0.337   5.035  0.00  0.00    -0.005 C 
ATOM      4  C   UNL     1      -0.103   0.891   6.043  0.00  0.00    -0.047 A 
ATOM      5  C   UNL     1      -0.346   1.994   6.858  0.00  0.00    +0.010 A 
ATOM      6  C   UNL     1       0.604   2.418   7.724  0.00  0.00    +0.045 A 
ATOM      7  S   UNL     1       1.925   1.253   7.423  0.00  0.00    -0.101 S 
ATOM      8  C   UNL     1       1.115   0.294   6.176  0.00  0.00    -0.010 A 
ATOM      9  C   UNL     1       1.605  -0.899   5.421  0.00  0.00    +0.024 C 
ATOM     10  C   UNL     1       0.391  -1.538   4.725  0.00  0.00    -0.071 C 
ATOM     11  N   UNL     1      -0.385  -0.485   4.054  0.00  0.00    +0.395 N 
ATOM     12  H   UNL     1       0.242   0.101   3.525  0.00  0.00    -0.079 HD
BRANCH   3  19
ATOM     13  C   UNL     1      -3.483   1.513   6.176  0.00  0.00    +0.044 C 
ATOM     14  C   UNL     1      -2.933   2.038   4.875  0.00  0.00    -0.049 A 
ATOM     15  C   UNL     1      -3.563   3.087   4.231  0.00  0.00    +0.003 A 
ATOM     16  C   UNL     1      -3.058   3.569   3.038  0.00  0.00    +0.000 A 
ATOM     17  C   UNL     1      -1.923   3.002   2.489  0.00  0.00    +0.000 A 
ATOM     18  C   UNL     1      -1.292   1.955   3.134  0.00  0.00    +0.002 A 
ATOM     19  C   UNL     1      -1.795   1.476   4.329  0.00  0.00    -0.054 A 
ENDBRANCH   3  19
ENDBRANCH   1  11
BRANCH   1  20
ATOM     20  C   UNL     1      -2.368  -1.885   3.934  0.00  0.00    +0.202 C 
ATOM     21  O   UNL     1      -2.086  -2.296   5.039  0.00  0.00    -0.277 OA
ATOM     22  N   UNL     1      -3.589  -2.127   3.416  0.00  0.00    -0.300 N 
ATOM     23  C   UNL     1      -3.904  -1.741   2.033  0.00  0.00    +0.125 C 
ATOM     24  C   UNL     1      -4.402  -2.981   1.280  0.00  0.00    +0.128 C 
ATOM     25  N   UNL     1      -5.441  -3.636   2.088  0.00  0.00    -0.178 NA
ATOM     26  C   UNL     1      -5.125  -4.021   3.470  0.00  0.00    +0.128 C 
ATOM     27  C   UNL     1      -4.626  -2.786   4.221  0.00  0.00    +0.125 C 
BRANCH  25  28
ATOM     28  S   UNL     1      -6.940  -3.933   1.451  0.00  0.00    +0.036 S 
ATOM     29  O   UNL     1      -7.811  -3.967   2.574  0.00  0.00    -0.158 OA
ATOM     30  O   UNL     1      -7.105  -2.952   0.437  0.00  0.00    -0.158 OA
BRANCH  28  31
ATOM     31  C   UNL     1      -6.813  -5.583   0.709  0.00  0.00    +0.220 C 
BRANCH  31  32
ATOM     32  C   UNL     1      -8.136  -5.961   0.093  0.00  0.00    -0.025 A 
ATOM     33  C   UNL     1      -9.087  -6.621   0.849  0.00  0.00    +0.005 A 
ATOM     34  C   UNL     1     -10.300  -6.967   0.284  0.00  0.00    +0.000 A 
ATOM     35  C   UNL     1     -10.563  -6.652  -1.036  0.00  0.00    +0.000 A 
ATOM     36  C   UNL     1      -9.612  -5.991  -1.791  0.00  0.00    +0.000 A 
ATOM     37  C   UNL     1      -8.400  -5.641  -1.225  0.00  0.00    +0.005 A 
ENDBRANCH  31  32
ENDBRANCH  28  31
ENDBRANCH  25  28
ENDBRANCH   1  20
TORSDOF 6
