REMARK  Name = ZINC38702171
REMARK  11 active torsions:
REMARK  status: ('A' for Active; 'I' for Inactive)
REMARK    1  A    between atoms: C_1  and  C_2
REMARK    2  A    between atoms: C_4  and  C_40
REMARK    3  A    between atoms: C_5  and  O_39
REMARK    4  A    between atoms: C_6  and  C_8
REMARK    5  A    between atoms: N_16  and  C_31
REMARK    6  A    between atoms: C_17  and  C_19
REMARK    7  A    between atoms: C_22  and  O_27
REMARK    8  A    between atoms: C_23  and  O_25
REMARK    9  A    between atoms: O_25  and  C_26
REMARK   10  A    between atoms: O_27  and  C_28
REMARK   11  A    between atoms: C_28  and  C_29
REMARK                            x       y       z     vdW  Elec       q    Type
REMARK                         _______ _______ _______ _____ _____    ______ ____
ROOT
ATOM      1  C   UNL     1      -0.337  -2.315   2.252  0.00  0.00    +0.102 A 
ATOM      2  C   UNL     1      -0.018  -2.059   3.590  0.00  0.00    +0.035 A 
ATOM      3  C   UNL     1       0.185  -3.295   4.173  0.00  0.00    +0.126 A 
ATOM      4  N   UNL     1      -0.017  -4.218   3.185  0.00  0.00    -0.272 N 
ATOM      5  H   UNL     1       0.056  -5.178   3.297  0.00  0.00    +0.189 HD
ATOM      6  N   UNL     1      -0.322  -3.623   2.087  0.00  0.00    -0.173 NA
ATOM      7  C   UNL     1       0.526  -3.095   5.585  0.00  0.00    +0.266 C 
ATOM      8  O   UNL     1       0.764  -3.988   6.375  0.00  0.00    -0.268 OA
ATOM      9  N   UNL     1       0.538  -1.783   5.883  0.00  0.00    -0.280 N 
ATOM     10  C   UNL     1       0.201  -1.032   4.667  0.00  0.00    +0.142 C 
ENDROOT
BRANCH   1  16
ATOM     11  C   UNL     1      -1.153   2.437   0.960  0.00  0.00    +0.044 C 
ATOM     12  C   UNL     1      -1.036   0.982   0.586  0.00  0.00    -0.049 A 
ATOM     13  C   UNL     1      -1.216   0.592  -0.730  0.00  0.00    +0.010 A 
ATOM     14  C   UNL     1      -1.111  -0.741  -1.082  0.00  0.00    -0.008 A 
ATOM     15  C   UNL     1      -0.825  -1.693  -0.117  0.00  0.00    +0.129 A 
ATOM     16  C   UNL     1      -0.643  -1.302   1.212  0.00  0.00    +0.044 A 
ATOM     17  C   UNL     1      -0.745   0.044   1.555  0.00  0.00    +0.017 A 
ATOM     18  C   UNL     1      -1.308  -1.158  -2.517  0.00  0.00    +0.047 C 
BRANCH  15  19
ATOM     19  O   UNL     1      -0.722  -3.003  -0.462  0.00  0.00    -0.506 OA
ATOM     20  H   UNL     1       0.171  -3.275  -0.712  0.00  0.00    +0.292 HD
ENDBRANCH  15  19
ENDBRANCH   1  16
BRANCH   9  21
ATOM     21  C   UNL     1       0.837  -1.204   7.195  0.00  0.00    +0.100 C 
ATOM     22  C   UNL     1       2.243  -1.632   7.644  0.00  0.00    +0.047 C 
ATOM     23  C   UNL     1       2.442  -1.300   9.143  0.00  0.00    +0.168 C 
ATOM     24  S   UNL     1       0.729  -1.383   9.806  0.00  0.00    -0.029 S 
ATOM     25  O   UNL     1       0.619  -2.512  10.662  0.00  0.00    -0.174 OA
ATOM     26  O   UNL     1       0.358  -0.100  10.290  0.00  0.00    -0.174 OA
ATOM     27  C   UNL     1      -0.187  -1.724   8.244  0.00  0.00    +0.188 C 
ENDBRANCH   9  21
BRANCH  10  28
ATOM     28  C   UNL     1       1.339  -0.119   4.290  0.00  0.00    -0.019 A 
ATOM     29  C   UNL     1       1.078   1.174   3.874  0.00  0.00    +0.009 A 
ATOM     30  C   UNL     1       2.119   2.015   3.527  0.00  0.00    +0.050 A 
ATOM     31  C   UNL     1       3.427   1.564   3.596  0.00  0.00    +0.162 A 
ATOM     32  C   UNL     1       3.690   0.263   4.015  0.00  0.00    +0.162 A 
ATOM     33  C   UNL     1       2.642  -0.574   4.366  0.00  0.00    +0.055 A 
BRANCH  32  34
ATOM     34  O   UNL     1       4.972  -0.185   4.084  0.00  0.00    -0.491 OA
ATOM     35  C   UNL     1       5.170  -1.514   4.570  0.00  0.00    +0.277 C 
ENDBRANCH  32  34
BRANCH  31  36
ATOM     36  O   UNL     1       4.452   2.390   3.254  0.00  0.00    -0.484 OA
BRANCH  36  37
ATOM     37  C   UNL     1       4.107   3.711   2.833  0.00  0.00    +0.256 C 
BRANCH  37  38
ATOM     38  C   UNL     1       5.362   4.475   2.498  0.00  0.00    +0.006 C 
ATOM     39  C   UNL     1       5.418   5.196   1.406  0.00  0.00    +0.007 C 
ENDBRANCH  37  38
ENDBRANCH  36  37
ENDBRANCH  31  36
ENDBRANCH  10  28
TORSDOF 8
