REMARK  Name = ZINC66704240
REMARK  4 active torsions:
REMARK  status: ('A' for Active; 'I' for Inactive)
REMARK    1  A    between atoms: C_3  and  C_6
REMARK    2  A    between atoms: C_8  and  C_12
REMARK    3  A    between atoms: C_12  and  N_13
REMARK    4  A    between atoms: N_16  and  C_17
REMARK                            x       y       z     vdW  Elec       q    Type
REMARK                         _______ _______ _______ _____ _____    ______ ____
ROOT
ATOM      1  N   UNL     1       7.773   1.057   1.298  0.00  0.00    -0.292 N 
ATOM      2  C   UNL     1       9.024   0.611   1.526  0.00  0.00    +0.300 C 
ATOM      3  O   UNL     1       9.788   0.443   0.595  0.00  0.00    -0.253 OA
ATOM      4  N   UNL     1       9.429   0.350   2.785  0.00  0.00    -0.293 N 
ATOM      5  H   UNL     1       7.164   1.191   2.041  0.00  0.00    +0.151 HD
ATOM      6  H   UNL     1       8.819   0.484   3.527  0.00  0.00    +0.151 HD
ENDROOT
BRANCH   4   7
ATOM      7  C   UNL     1      10.789  -0.135   3.032  0.00  0.00    +0.105 C 
ATOM      8  C   UNL     1      11.220   0.193   4.477  0.00  0.00    +0.032 C 
ATOM      9  C   UNL     1      12.095  -1.024   4.846  0.00  0.00    +0.037 C 
ATOM     10  C   UNL     1      11.584  -2.156   3.981  0.00  0.00    -0.042 A 
ATOM     11  C   UNL     1      10.834  -1.645   2.935  0.00  0.00    -0.021 A 
ATOM     12  C   UNL     1      10.264  -2.501   2.009  0.00  0.00    +0.044 A 
ATOM     13  C   UNL     1      10.444  -3.869   2.123  0.00  0.00    +0.124 A 
ATOM     14  C   UNL     1      11.195  -4.381   3.167  0.00  0.00    +0.038 A 
ATOM     15  C   UNL     1      11.762  -3.524   4.097  0.00  0.00    +0.007 A 
ATOM     16  F   UNL     1       9.886  -4.702   1.218  0.00  0.00    -0.205 F 
ENDBRANCH   4   7
BRANCH   1  17
ATOM     17  C   UNL     1       7.333   1.339  -0.070  0.00  0.00    +0.181 C 
BRANCH  17  20
ATOM     18  C   UNL     1       3.740   1.825  -0.024  0.00  0.00    +0.188 A 
ATOM     19  N   UNL     1       4.842   1.062  -0.044  0.00  0.00    -0.209 NA
ATOM     20  C   UNL     1       5.906   1.821  -0.050  0.00  0.00    +0.143 A 
ATOM     21  N   UNL     1       5.508   3.106  -0.033  0.00  0.00    -0.261 N 
ATOM     22  H   UNL     1       6.080   3.890  -0.033  0.00  0.00    +0.190 HD
ATOM     23  N   UNL     1       4.104   3.091  -0.022  0.00  0.00    -0.152 NA
BRANCH  18  26
ATOM     24  C   UNL     1      -0.016   1.353   0.009  0.00  0.00    +0.008 A 
ATOM     25  C   UNL     1       1.178   2.041   0.002  0.00  0.00    +0.019 A 
ATOM     26  C   UNL     1       2.347   1.329  -0.013  0.00  0.00    +0.058 A 
ATOM     27  S   UNL     1       1.752  -0.354  -0.017  0.00  0.00    -0.093 S 
ATOM     28  C   UNL     1       0.002  -0.004   0.002  0.00  0.00    +0.046 A 
ENDBRANCH  18  26
ENDBRANCH  17  20
ENDBRANCH   1  17
TORSDOF 4
