REMARK  Name = ZINC20610765
REMARK  7 active torsions:
REMARK  status: ('A' for Active; 'I' for Inactive)
REMARK    1  A    between atoms: C_1  and  C_2
REMARK    2  A    between atoms: C_2  and  C_4
REMARK    3  A    between atoms: C_2  and  O_36
REMARK    4  A    between atoms: N_12  and  C_15
REMARK    5  A    between atoms: C_15  and  C_16
REMARK    6  A    between atoms: C_19  and  O_22
REMARK    7  A    between atoms: O_22  and  C_23
REMARK                            x       y       z     vdW  Elec       q    Type
REMARK                         _______ _______ _______ _____ _____    ______ ____
ROOT
ATOM      1  C   UNL     1      -1.433  -0.534   0.013  0.00  0.00    +0.096 C 
ATOM      2  C   UNL     1      -1.436  -2.076   0.043  0.00  0.00    +0.109 C 
ATOM      3  C   UNL     1      -2.625  -2.456   0.969  0.00  0.00    +0.123 C 
ATOM      4  C   UNL     1      -1.949  -3.126   2.145  0.00  0.00    +0.229 C 
ATOM      5  O   UNL     1      -2.519  -3.588   3.110  0.00  0.00    -0.275 OA
ATOM      6  N   UNL     1      -0.625  -3.129   1.954  0.00  0.00    -0.237 N 
ATOM      7  C   UNL     1      -0.218  -2.564   0.794  0.00  0.00    +0.228 C 
ATOM      8  O   UNL     1       0.928  -2.460   0.413  0.00  0.00    -0.275 OA
ATOM      9  C   UNL     1      -3.223  -1.111   1.399  0.00  0.00    +0.136 C 
ATOM     10  N   UNL     1      -2.127  -0.124   1.263  0.00  0.00    -0.293 NA
ATOM     11  C   UNL     1      -4.422  -0.751   0.569  0.00  0.00    +0.005 A 
ATOM     12  C   UNL     1      -4.616  -0.550  -0.780  0.00  0.00    +0.008 A 
ATOM     13  C   UNL     1      -5.871  -0.220  -1.258  0.00  0.00    +0.002 A 
ATOM     14  C   UNL     1      -6.931  -0.092  -0.379  0.00  0.00    +0.022 A 
ATOM     15  C   UNL     1      -6.742  -0.291   0.973  0.00  0.00    +0.062 A 
ATOM     16  C   UNL     1      -5.480  -0.623   1.463  0.00  0.00    +0.057 A 
ATOM     17  N   UNL     1      -5.042  -0.868   2.767  0.00  0.00    -0.282 N 
ATOM     18  C   UNL     1      -3.728  -1.161   2.815  0.00  0.00    +0.243 C 
ATOM     19  O   UNL     1      -3.078  -1.417   3.806  0.00  0.00    -0.273 OA
ATOM     20 CL   UNL     1      -8.080  -0.127   2.068  0.00  0.00    -0.082 Cl
ATOM     21  H   UNL     1      -1.499  -0.157   2.052  0.00  0.00    +0.124 HD
ATOM     22  H   UNL     1      -5.617  -0.831   3.547  0.00  0.00    +0.155 HD
ENDROOT
BRANCH   1  24
ATOM     23  C   UNL     1      -0.019   1.526   0.010  0.00  0.00    +0.039 C 
ATOM     24  C   UNL     1       0.002  -0.004   0.002  0.00  0.00    +0.129 C 
BRANCH  24  25
ATOM     25  O   UNL     1       0.671  -0.465  -1.174  0.00  0.00    -0.390 OA
ATOM     26  H   UNL     1       1.588  -0.167  -1.247  0.00  0.00    +0.210 HD
ENDBRANCH  24  25
ENDBRANCH   1  24
BRANCH   6  27
ATOM     27  C   UNL     1       0.313  -3.704   2.921  0.00  0.00    +0.151 C 
BRANCH  27  28
ATOM     28  C   UNL     1       0.538  -5.159   2.599  0.00  0.00    -0.029 A 
ATOM     29  C   UNL     1      -0.280  -6.124   3.159  0.00  0.00    +0.009 A 
ATOM     30  C   UNL     1      -0.076  -7.458   2.865  0.00  0.00    +0.046 A 
ATOM     31  C   UNL     1       0.950  -7.830   2.008  0.00  0.00    +0.120 A 
ATOM     32  C   UNL     1       1.768  -6.860   1.448  0.00  0.00    +0.046 A 
ATOM     33  C   UNL     1       1.557  -5.527   1.740  0.00  0.00    +0.009 A 
BRANCH  31  34
ATOM     34  O   UNL     1       1.153  -9.142   1.719  0.00  0.00    -0.495 OA
ATOM     35  C   UNL     1       2.227  -9.451   0.829  0.00  0.00    +0.277 C 
ENDBRANCH  31  34
ENDBRANCH  27  28
ENDBRANCH   6  27
TORSDOF 5
