REMARK  Name = ZINC08065742
REMARK  9 active torsions:
REMARK  status: ('A' for Active; 'I' for Inactive)
REMARK    1  A    between atoms: C_1  and  C_2
REMARK    2  A    between atoms: C_9  and  S_12
REMARK    3  A    between atoms: S_12  and  C_13
REMARK    4  A    between atoms: C_13  and  C_14
REMARK    5  A    between atoms: N_16  and  C_17
REMARK    6  A    between atoms: C_17  and  C_19
REMARK    7  A    between atoms: C_17  and  C_30
REMARK    8  A    between atoms: C_30  and  C_31
REMARK    9  A    between atoms: C_30  and  C_32
REMARK                            x       y       z     vdW  Elec       q    Type
REMARK                         _______ _______ _______ _____ _____    ______ ____
ROOT
ATOM      1  C   UNL     1       0.117  -6.425   5.169  0.00  0.00    +0.224 C 
ATOM      2  O   UNL     1       0.130  -7.535   4.682  0.00  0.00    -0.275 OA
ATOM      3  N   UNL     1       0.121  -6.275   6.508  0.00  0.00    -0.308 N 
ATOM      4  H   UNL     1       0.111  -5.387   6.897  0.00  0.00    +0.149 HD
ENDROOT
BRANCH   1   5
ATOM      5  C   UNL     1       0.095  -5.211   4.276  0.00  0.00    +0.173 C 
BRANCH   5   6
ATOM      6  S   UNL     1       0.094  -5.738   2.540  0.00  0.00    -0.079 S 
BRANCH   6  15
ATOM      7  C   UNL     1      -0.018   1.503   0.010  0.00  0.00    +0.044 C 
ATOM      8  C   UNL     1       0.002  -0.004   0.002  0.00  0.00    -0.048 A 
ATOM      9  C   UNL     1       0.006  -0.686  -1.206  0.00  0.00    +0.005 A 
ATOM     10  C   UNL     1       0.024  -2.065  -1.230  0.00  0.00    +0.028 A 
ATOM     11  C   UNL     1       0.040  -2.776  -0.040  0.00  0.00    +0.067 A 
ATOM     12  C   UNL     1       0.037  -2.091   1.187  0.00  0.00    +0.090 A 
ATOM     13  C   UNL     1       0.023  -0.694   1.194  0.00  0.00    +0.033 A 
ATOM     14  N   UNL     1       0.055  -3.029   2.169  0.00  0.00    -0.222 NA
ATOM     15  C   UNL     1       0.068  -4.226   1.635  0.00  0.00    +0.168 A 
ATOM     16  N   UNL     1       0.060  -4.126   0.273  0.00  0.00    -0.333 N 
ATOM     17  H   UNL     1       0.066  -4.862  -0.358  0.00  0.00    +0.168 HD
ENDBRANCH   6  15
ENDBRANCH   5   6
ENDBRANCH   1   5
BRANCH   3  18
ATOM     18  C   UNL     1       0.142  -7.455   7.377  0.00  0.00    +0.106 C 
BRANCH  18  19
ATOM     19  C   UNL     1       0.744  -7.088   8.708  0.00  0.00    -0.023 A 
ATOM     20  C   UNL     1       0.431  -5.876   9.296  0.00  0.00    +0.009 A 
ATOM     21  C   UNL     1       0.980  -5.532  10.518  0.00  0.00    +0.050 A 
ATOM     22  C   UNL     1       1.844  -6.408  11.153  0.00  0.00    +0.162 A 
ATOM     23  C   UNL     1       2.158  -7.625  10.564  0.00  0.00    +0.162 A 
ATOM     24  C   UNL     1       1.604  -7.967   9.342  0.00  0.00    +0.055 A 
ATOM     25  O   UNL     1       3.010  -8.481  11.198  0.00  0.00    -0.488 OA
ATOM     26  C   UNL     1       4.371  -8.055  11.290  0.00  0.00    +0.232 C 
ATOM     27  C   UNL     1       4.571  -7.143  12.491  0.00  0.00    +0.082 C 
ATOM     28  C   UNL     1       3.800  -5.839  12.363  0.00  0.00    +0.232 C 
ATOM     29  O   UNL     1       2.391  -6.082  12.360  0.00  0.00    -0.488 OA
ENDBRANCH  18  19
BRANCH  18  30
ATOM     30  C   UNL     1      -1.287  -7.960   7.585  0.00  0.00    +0.008 C 
ATOM     31  C   UNL     1      -1.265  -9.193   8.492  0.00  0.00    +0.009 C 
ATOM     32  C   UNL     1      -2.127  -6.861   8.238  0.00  0.00    +0.009 C 
ENDBRANCH  18  30
ENDBRANCH   3  18
TORSDOF 6
