REMARK  Name = ZINC15947836
REMARK  7 active torsions:
REMARK  status: ('A' for Active; 'I' for Inactive)
REMARK    1  A    between atoms: C_1  and  C_2
REMARK    2  A    between atoms: C_5  and  C_8
REMARK    3  A    between atoms: C_8  and  O_10
REMARK    4  A    between atoms: O_10  and  C_11
REMARK    5  A    between atoms: C_14  and  C_17
REMARK    6  A    between atoms: C_26  and  C_30
REMARK    7  A    between atoms: C_31  and  O_33
REMARK                            x       y       z     vdW  Elec       q    Type
REMARK                         _______ _______ _______ _____ _____    ______ ____
ROOT
ATOM      1  C   UNL     1       0.285 -10.522   0.504  0.00  0.00    +0.224 C 
ATOM      2  N   UNL     1       0.924 -11.118   1.691  0.00  0.00    -0.313 N 
ATOM      3  C   UNL     1       2.301 -11.132   1.701  0.00  0.00    +0.080 A 
ATOM      4  C   UNL     1       3.049 -11.105   0.518  0.00  0.00    +0.068 A 
ATOM      5  C   UNL     1       4.491 -11.111   0.686  0.00  0.00    -0.023 A 
ATOM      6  C   UNL     1       4.906 -11.150   1.973  0.00  0.00    -0.004 A 
ATOM      7  S   UNL     1       3.414 -11.178   2.929  0.00  0.00    -0.078 S 
ATOM      8  C   UNL     1       6.320 -11.167   2.462  0.00  0.00    +0.046 C 
ATOM      9  C   UNL     1       7.239 -10.756   1.302  0.00  0.00    -0.009 C 
ATOM     10  C   UNL     1       6.849 -11.554   0.055  0.00  0.00    +0.008 C 
ATOM     11  C   UNL     1       5.489 -11.079  -0.463  0.00  0.00    +0.037 C 
ATOM     12  C   UNL     1       8.694 -11.053   1.670  0.00  0.00    +0.008 C 
ATOM     13  C   UNL     1       2.301 -11.079  -0.766  0.00  0.00    +0.220 C 
ATOM     14  N   UNL     1       1.021 -10.835  -0.715  0.00  0.00    -0.223 NA
ATOM     15  H   UNL     1       0.404 -11.480   2.425  0.00  0.00    +0.149 HD
ENDROOT
BRANCH   1  19
ATOM     16  C   UNL     1       0.126  -6.279   0.988  0.00  0.00    +0.132 A 
ATOM     17  C   UNL     1       0.204  -6.832  -0.283  0.00  0.00    +0.047 A 
ATOM     18  C   UNL     1       0.256  -8.203  -0.436  0.00  0.00    +0.011 A 
ATOM     19  C   UNL     1       0.230  -9.026   0.675  0.00  0.00    -0.005 A 
ATOM     20  C   UNL     1       0.152  -8.478   1.942  0.00  0.00    +0.011 A 
ATOM     21  C   UNL     1       0.105  -7.107   2.101  0.00  0.00    +0.047 A 
BRANCH  16  22
ATOM     22  O   UNL     1       0.075  -4.930   1.142  0.00  0.00    -0.422 OA
BRANCH  22  23
ATOM     23  C   UNL     1       1.198  -4.295   1.530  0.00  0.00    +0.344 C 
ATOM     24  O   UNL     1       2.189  -4.935   1.817  0.00  0.00    -0.245 OA
BRANCH  23  29
ATOM     25  C   UNL     1       1.298   1.450   1.824  0.00  0.00    +0.044 C 
ATOM     26  C   UNL     1       1.272  -0.055   1.747  0.00  0.00    -0.050 A 
ATOM     27  C   UNL     1       2.403  -0.781   2.076  0.00  0.00    +0.004 A 
ATOM     28  C   UNL     1       2.386  -2.159   2.007  0.00  0.00    +0.015 A 
ATOM     29  C   UNL     1       1.223  -2.820   1.606  0.00  0.00    +0.059 A 
ATOM     30  C   UNL     1       0.086  -2.081   1.276  0.00  0.00    +0.015 A 
ATOM     31  C   UNL     1       0.115  -0.704   1.353  0.00  0.00    +0.004 A 
ENDBRANCH  23  29
ENDBRANCH  22  23
ENDBRANCH  16  22
ENDBRANCH   1  19
BRANCH  13  32
ATOM     32  O   UNL     1       2.926 -11.302  -1.945  0.00  0.00    -0.492 OA
ATOM     33  H   UNL     1       2.341 -11.261  -2.714  0.00  0.00    +0.294 HD
ENDBRANCH  13  32
TORSDOF 5
