REMARK  Name = ZINC62511889
REMARK  4 active torsions:
REMARK  status: ('A' for Active; 'I' for Inactive)
REMARK    1  A    between atoms: C_3  and  C_6
REMARK    2  A    between atoms: C_8  and  C_11
REMARK    3  A    between atoms: C_11  and  N_12
REMARK    4  A    between atoms: C_13  and  C_15
REMARK                            x       y       z     vdW  Elec       q    Type
REMARK                         _______ _______ _______ _____ _____    ______ ____
ROOT
ATOM      1  N   UNL     1       7.775   1.164  -1.456  0.00  0.00    -0.302 N 
ATOM      2  C   UNL     1       9.030   0.750  -1.722  0.00  0.00    +0.250 C 
ATOM      3  O   UNL     1       9.821   0.585  -0.812  0.00  0.00    -0.270 OA
ATOM      4  H   UNL     1       7.167   1.367  -2.184  0.00  0.00    +0.150 HD
ENDROOT
BRANCH   2   5
ATOM      5  C   UNL     1       9.443   0.499  -3.112  0.00  0.00    +0.101 A 
ATOM      6  C   UNL     1      10.689  -0.038  -3.385  0.00  0.00    +0.028 A 
ATOM      7  C   UNL     1      11.058  -0.269  -4.731  0.00  0.00    -0.001 A 
ATOM      8  C   UNL     1      12.316  -0.814  -5.037  0.00  0.00    +0.013 A 
ATOM      9  C   UNL     1      12.664  -1.034  -6.336  0.00  0.00    +0.039 A 
ATOM     10  C   UNL     1      11.782  -0.723  -7.367  0.00  0.00    +0.125 A 
ATOM     11  C   UNL     1      10.540  -0.187  -7.091  0.00  0.00    +0.064 A 
ATOM     12  C   UNL     1      10.162   0.046  -5.772  0.00  0.00    +0.052 A 
ATOM     13  N   UNL     1       8.922   0.581  -5.492  0.00  0.00    -0.321 N 
ATOM     14  H   UNL     1       8.317   0.792  -6.221  0.00  0.00    +0.169 HD
ATOM     15  C   UNL     1       8.537   0.808  -4.223  0.00  0.00    +0.261 A 
ATOM     16  O   UNL     1       7.436   1.277  -3.996  0.00  0.00    -0.267 OA
ATOM     17  F   UNL     1      12.144  -0.947  -8.649  0.00  0.00    -0.205 F 
ENDBRANCH   2   5
BRANCH   1  18
ATOM     18  C   UNL     1       7.329   1.306  -0.068  0.00  0.00    +0.203 C 
BRANCH  18  21
ATOM     19  C   UNL     1       3.728   1.767  -0.018  0.00  0.00    +0.209 A 
ATOM     20  N   UNL     1       4.845   1.014  -0.038  0.00  0.00    -0.190 NA
ATOM     21  C   UNL     1       5.898   1.779  -0.046  0.00  0.00    +0.245 A 
ATOM     22  O   UNL     1       5.497   3.057  -0.030  0.00  0.00    -0.336 OA
ATOM     23  N   UNL     1       4.077   3.032  -0.018  0.00  0.00    -0.055 NA
BRANCH  19  26
ATOM     24  C   UNL     1      -0.020   1.251   0.022  0.00  0.00    +0.008 A 
ATOM     25  C   UNL     1       1.164   1.952   0.012  0.00  0.00    +0.019 A 
ATOM     26  C   UNL     1       2.343   1.254  -0.004  0.00  0.00    +0.060 A 
ATOM     27  S   UNL     1       1.768  -0.436  -0.004  0.00  0.00    -0.093 S 
ATOM     28  C   UNL     1       0.014  -0.107   0.017  0.00  0.00    +0.046 A 
ENDBRANCH  19  26
ENDBRANCH  18  21
ENDBRANCH   1  18
TORSDOF 4
