REMARK  Name = ZINC27557882
REMARK  15 active torsions:
REMARK  status: ('A' for Active; 'I' for Inactive)
REMARK    1  A    between atoms: C_1  and  C_2
REMARK    2  A    between atoms: C_2  and  C_4
REMARK    3  A    between atoms: C_2  and  N_11
REMARK    4  A    between atoms: N_11  and  C_12
REMARK    5  A    between atoms: N_11  and  C_13
REMARK    6  A    between atoms: C_13  and  C_14
REMARK    7  A    between atoms: N_16  and  C_17
REMARK    8  A    between atoms: N_16  and  C_22
REMARK    9  A    between atoms: C_17  and  C_18
REMARK   10  A    between atoms: C_18  and  C_19
REMARK   11  A    between atoms: C_19  and  O_20
REMARK   12  A    between atoms: O_20  and  C_21
REMARK   13  A    between atoms: C_23  and  N_38
REMARK   14  A    between atoms: N_24  and  C_31
REMARK   15  A    between atoms: C_31  and  C_32
REMARK                            x       y       z     vdW  Elec       q    Type
REMARK                         _______ _______ _______ _____ _____    ______ ____
ROOT
ATOM      1  C   UNL     1       2.320   5.023  -0.094  0.00  0.00    +0.203 C 
ATOM      2  O   UNL     1       1.252   5.598  -0.129  0.00  0.00    -0.277 OA
ATOM      3  N   UNL     1       2.359   3.681   0.046  0.00  0.00    -0.266 N 
ENDROOT
BRANCH   3   4
ATOM      4  C   UNL     1       1.160   2.937   0.045  0.00  0.00    +0.140 A 
ATOM      5  C   UNL     1       0.748   2.269   1.180  0.00  0.00    +0.128 A 
ATOM      6  N   UNL     1      -0.425   1.552   1.149  0.00  0.00    -0.276 N 
ATOM      7  C   UNL     1      -1.165   1.506   0.026  0.00  0.00    +0.331 A 
ATOM      8  O   UNL     1      -2.202   0.871   0.020  0.00  0.00    -0.246 OA
ATOM      9  N   UNL     1      -0.777   2.147  -1.091  0.00  0.00    -0.273 N 
ATOM     10  H   UNL     1      -1.394   2.089  -2.000  0.00  0.00    +0.173 HD
ATOM     11  C   UNL     1       0.364   2.863  -1.113  0.00  0.00    +0.277 A 
ATOM     12  O   UNL     1       0.704   3.443  -2.130  0.00  0.00    -0.266 OA
BRANCH   5  13
ATOM     13  N   UNL     1       1.502   2.319   2.328  0.00  0.00    -0.343 N 
ATOM     14  H   UNL     1       1.167   1.784   3.230  0.00  0.00    +0.144 HD
ATOM     15  H   UNL     1       2.439   2.894   2.346  0.00  0.00    +0.144 HD
ENDBRANCH   5  13
BRANCH   6  16
ATOM     16  C   UNL     1      -0.874   0.838   2.347  0.00  0.00    +0.163 C 
BRANCH  16  17
ATOM     17  C   UNL     1      -1.744   1.746   3.176  0.00  0.00    -0.028 A 
ATOM     18  C   UNL     1      -1.178   2.544   4.153  0.00  0.00    +0.005 A 
ATOM     19  C   UNL     1      -1.975   3.381   4.910  0.00  0.00    +0.000 A 
ATOM     20  C   UNL     1      -3.341   3.413   4.699  0.00  0.00    +0.000 A 
ATOM     21  C   UNL     1      -3.908   2.611   3.726  0.00  0.00    +0.000 A 
ATOM     22  C   UNL     1      -3.110   1.778   2.965  0.00  0.00    +0.005 A 
ENDBRANCH  16  17
ENDBRANCH   6  16
ENDBRANCH   3   4
BRANCH   1  23
ATOM     23  C   UNL     1       3.602   5.807  -0.205  0.00  0.00    +0.020 C 
BRANCH  23  24
ATOM     24  N   UNL     1       3.292   7.235  -0.347  0.00  0.00    +0.388 N 
ATOM     25  C   UNL     1       2.665   7.762   0.873  0.00  0.00    -0.095 C 
ATOM     26  H   UNL     1       2.571   7.345  -1.171  0.00  0.00    -0.081 HD
BRANCH  24  28
ATOM     27  C   UNL     1       5.063   7.490  -2.019  0.00  0.00    -0.008 C 
ATOM     28  C   UNL     1       4.495   8.003  -0.695  0.00  0.00    -0.041 C 
BRANCH  28  29
ATOM     29  C   UNL     1       4.139   9.461  -0.832  0.00  0.00    -0.061 A 
ATOM     30  C   UNL     1       2.956   9.828  -1.447  0.00  0.00    +0.005 A 
ATOM     31  C   UNL     1       2.626  11.164  -1.568  0.00  0.00    +0.038 A 
ATOM     32  C   UNL     1       3.485  12.136  -1.084  0.00  0.00    +0.123 A 
ATOM     33  C   UNL     1       4.671  11.768  -0.473  0.00  0.00    +0.038 A 
ATOM     34  C   UNL     1       4.997  10.430  -0.347  0.00  0.00    +0.005 A 
ATOM     35  F   UNL     1       3.166  13.443  -1.207  0.00  0.00    -0.205 F 
ENDBRANCH  28  29
ENDBRANCH  24  28
ENDBRANCH  23  24
ENDBRANCH   1  23
BRANCH   3  36
ATOM     36  C   UNL     1       3.645   2.998   0.198  0.00  0.00    +0.116 C 
BRANCH  36  37
ATOM     37  C   UNL     1       4.247   2.731  -1.184  0.00  0.00    +0.047 C 
BRANCH  37  38
ATOM     38  C   UNL     1       5.591   2.017  -1.025  0.00  0.00    +0.161 C 
BRANCH  38  39
ATOM     39  O   UNL     1       6.153   1.768  -2.315  0.00  0.00    -0.383 OA
ATOM     40  C   UNL     1       7.417   1.101  -2.280  0.00  0.00    +0.193 C 
ENDBRANCH  38  39
ENDBRANCH  37  38
ENDBRANCH  36  37
ENDBRANCH   3  36
TORSDOF 12
