REMARK  Name = ZINC50630409
REMARK  6 active torsions:
REMARK  status: ('A' for Active; 'I' for Inactive)
REMARK    1  A    between atoms: C_1  and  O_2
REMARK    2  A    between atoms: O_2  and  C_3
REMARK    3  A    between atoms: C_7  and  C_11
REMARK    4  A    between atoms: C_8  and  O_9
REMARK    5  A    between atoms: O_9  and  C_10
REMARK    6  A    between atoms: C_29  and  C_31
REMARK                            x       y       z     vdW  Elec       q    Type
REMARK                         _______ _______ _______ _____ _____    ______ ____
ROOT
ATOM      1  C   UNL     1       0.740  -3.032  -2.332  0.00  0.00    +0.218 C 
ATOM      2  C   UNL     1      -0.718  -3.186  -2.764  0.00  0.00    +0.113 C 
ATOM      3  C   UNL     1      -0.893  -4.665  -3.071  0.00  0.00    +0.065 C 
ATOM      4  C   UNL     1       0.157  -5.302  -3.873  0.00  0.00    +0.040 A 
ATOM      5  C   UNL     1      -0.048  -6.529  -4.502  0.00  0.00    +0.033 A 
ATOM      6  C   UNL     1       0.972  -7.096  -5.240  0.00  0.00    +0.042 A 
ATOM      7  C   UNL     1       2.192  -6.447  -5.354  0.00  0.00    +0.023 A 
ATOM      8  C   UNL     1       2.404  -5.230  -4.737  0.00  0.00    +0.048 A 
ATOM      9  C   UNL     1       1.393  -4.640  -3.993  0.00  0.00    +0.130 A 
ATOM     10  O   UNL     1       1.597  -3.439  -3.400  0.00  0.00    -0.483 OA
ATOM     11 CL   UNL     1       0.726  -8.623  -6.027  0.00  0.00    -0.084 Cl
ATOM     12  N   UNL     1      -1.896  -5.311  -2.577  0.00  0.00    -0.215 NA
ATOM     13  C   UNL     1      -2.786  -4.793  -1.693  0.00  0.00    +0.249 A 
ATOM     14  N   UNL     1      -3.864  -5.342  -1.145  0.00  0.00    -0.198 NA
ATOM     15  C   UNL     1      -4.430  -4.486  -0.301  0.00  0.00    +0.247 A 
ATOM     16  N   UNL     1      -3.745  -3.371  -0.289  0.00  0.00    -0.156 NA
ATOM     17  N   UNL     1      -2.690  -3.535  -1.195  0.00  0.00    -0.221 N 
ATOM     18  C   UNL     1      -1.625  -2.630  -1.652  0.00  0.00    +0.154 C 
ENDROOT
BRANCH  18  19
ATOM     19  C   UNL     1      -0.761  -2.280  -0.468  0.00  0.00    -0.022 A 
ATOM     20  C   UNL     1      -0.682  -0.970  -0.034  0.00  0.00    +0.008 A 
ATOM     21  C   UNL     1       0.110  -0.648   1.052  0.00  0.00    +0.038 A 
ATOM     22  C   UNL     1       0.823  -1.639   1.706  0.00  0.00    +0.123 A 
ATOM     23  C   UNL     1       0.743  -2.950   1.270  0.00  0.00    +0.038 A 
ATOM     24  C   UNL     1      -0.053  -3.271   0.187  0.00  0.00    +0.008 A 
ATOM     25  F   UNL     1       1.598  -1.325   2.768  0.00  0.00    -0.205 F 
ENDBRANCH  18  19
BRANCH   1  30
ATOM     26  C   UNL     1       2.475   0.103  -1.109  0.00  0.00    +0.162 A 
ATOM     27  C   UNL     1       1.510   1.063  -1.363  0.00  0.00    +0.049 A 
ATOM     28  C   UNL     1       0.302   0.698  -1.927  0.00  0.00    +0.004 A 
ATOM     29  C   UNL     1       0.054  -0.626  -2.240  0.00  0.00    +0.011 A 
ATOM     30  C   UNL     1       1.014  -1.590  -1.990  0.00  0.00    +0.039 A 
ATOM     31  C   UNL     1       2.228  -1.229  -1.429  0.00  0.00    +0.168 A 
BRANCH  26  33
ATOM     32  C   UNL     1       3.900   1.859  -0.372  0.00  0.00    +0.277 C 
ATOM     33  O   UNL     1       3.664   0.461  -0.554  0.00  0.00    -0.491 OA
ENDBRANCH  26  33
BRANCH  31  34
ATOM     34  O   UNL     1       3.175  -2.175  -1.188  0.00  0.00    -0.491 OA
ATOM     35  C   UNL     1       3.059  -2.913   0.030  0.00  0.00    +0.277 C 
ENDBRANCH  31  34
ENDBRANCH   1  30
TORSDOF 4
