REMARK  Name = ZINC00753069
REMARK  3 active torsions:
REMARK  status: ('A' for Active; 'I' for Inactive)
REMARK    1  A    between atoms: C_12  and  N_25
REMARK    2  A    between atoms: C_13  and  C_23
REMARK    3  A    between atoms: C_14  and  C_16
REMARK                            x       y       z     vdW  Elec       q    Type
REMARK                         _______ _______ _______ _____ _____    ______ ____
ROOT
ATOM      1  C   UNL     1       1.155   1.776   0.001  0.00  0.00    +0.001 A 
ATOM      2  C   UNL     1       1.155   3.170   0.007  0.00  0.00    +0.001 A 
ATOM      3  C   UNL     1      -0.012   3.871   0.022  0.00  0.00    +0.012 A 
ATOM      4  C   UNL     1      -1.236   3.182   0.029  0.00  0.00    +0.025 A 
ATOM      5  C   UNL     1      -1.237   1.766   0.018  0.00  0.00    -0.014 A 
ATOM      6  C   UNL     1      -0.013   1.076   0.008  0.00  0.00    +0.008 A 
ATOM      7  C   UNL     1      -2.462   1.078   0.034  0.00  0.00    +0.009 A 
ATOM      8  C   UNL     1      -3.630   1.775   0.047  0.00  0.00    +0.009 A 
ATOM      9  C   UNL     1      -3.643   3.170   0.051  0.00  0.00    +0.008 A 
ATOM     10  C   UNL     1      -2.464   3.878   0.042  0.00  0.00    +0.142 A 
ATOM     11  O   UNL     1      -2.461   5.232   0.045  0.00  0.00    -0.440 OA
ATOM     12  C   UNL     1      -3.553   5.905   0.445  0.00  0.00    +0.199 C 
ATOM     13  C   UNL     1      -4.776   5.323   0.476  0.00  0.00    +0.098 C 
ATOM     14  C   UNL     1      -4.966   3.890   0.063  0.00  0.00    +0.098 C 
ENDROOT
BRANCH  14  15
ATOM     15  C   UNL     1      -5.572   3.845  -1.317  0.00  0.00    -0.034 A 
ATOM     16  C   UNL     1      -6.803   3.248  -1.512  0.00  0.00    +0.004 A 
ATOM     17  C   UNL     1      -7.359   3.206  -2.776  0.00  0.00    +0.001 A 
ATOM     18  C   UNL     1      -6.684   3.762  -3.847  0.00  0.00    +0.015 A 
ATOM     19  C   UNL     1      -5.452   4.361  -3.652  0.00  0.00    +0.018 A 
ATOM     20  C   UNL     1      -4.899   4.407  -2.385  0.00  0.00    +0.020 A 
ATOM     21 BR   UNL     1      -4.528   5.122  -5.116  0.00  0.00    -0.050 Br
ENDBRANCH  14  15
BRANCH  12  22
ATOM     22  N   UNL     1      -3.427   7.216   0.831  0.00  0.00    -0.328 N 
ATOM     23  H   UNL     1      -4.208   7.714   1.122  0.00  0.00    +0.145 HD
ATOM     24  H   UNL     1      -2.558   7.646   0.813  0.00  0.00    +0.145 HD
ENDBRANCH  12  22
BRANCH  13  25
ATOM     25  C   UNL     1      -5.907   6.085   0.910  0.00  0.00    +0.101 C 
ATOM     26  N   UNL     1      -6.805   6.690   1.255  0.00  0.00    -0.191 NA
ENDBRANCH  13  25
TORSDOF 3
