REMARK  Name = ZINC13064058
REMARK  11 active torsions:
REMARK  status: ('A' for Active; 'I' for Inactive)
REMARK    1  A    between atoms: C_1  and  C_2
REMARK    2  A    between atoms: C_2  and  C_3
REMARK    3  A    between atoms: C_3  and  C_5
REMARK    4  A    between atoms: C_3  and  N_70
REMARK    5  A    between atoms: N_9  and  C_10
REMARK    6  A    between atoms: C_16  and  C_17
REMARK    7  A    between atoms: C_16  and  N_70
REMARK    8  A    between atoms: C_24  and  C_25
REMARK    9  A    between atoms: C_24  and  N_70
REMARK   10  A    between atoms: C_29  and  O_37
REMARK   11  A    between atoms: O_37  and  C_38
REMARK                            x       y       z     vdW  Elec       q    Type
REMARK                         _______ _______ _______ _____ _____    ______ ____
ROOT
ATOM      1  N   UNL     1      -0.081  -0.725   2.222  0.00  0.00    +0.392 N 
ATOM      2  H   UNL     1      -0.974  -0.529   2.690  0.00  0.00    -0.080 HD
ENDROOT
BRANCH   1   3
ATOM      3  C   UNL     1       0.981   0.085   2.856  0.00  0.00    +0.003 C 
BRANCH   3   4
ATOM      4  C   UNL     1       2.338  -0.341   2.357  0.00  0.00    +0.138 A 
ATOM      5  N   UNL     1       2.749  -1.569   2.159  0.00  0.00    -0.115 NA
ATOM      6  N   UNL     1       3.963  -1.518   1.729  0.00  0.00    -0.023 NA
ATOM      7  N   UNL     1       4.339  -0.289   1.656  0.00  0.00    -0.044 NA
ATOM      8  N   UNL     1       3.365   0.467   2.035  0.00  0.00    -0.228 N 
BRANCH   8   9
ATOM      9  C   UNL     1       3.375   1.931   2.101  0.00  0.00    +0.111 C 
ATOM     10  C   UNL     1       3.837   2.499   0.758  0.00  0.00    +0.027 C 
ATOM     11  C   UNL     1       3.847   4.027   0.827  0.00  0.00    +0.002 C 
ATOM     12  C   UNL     1       4.806   4.481   1.929  0.00  0.00    +0.000 C 
ATOM     13  C   UNL     1       4.344   3.913   3.273  0.00  0.00    +0.002 C 
ATOM     14  C   UNL     1       4.334   2.385   3.203  0.00  0.00    +0.027 C 
ENDBRANCH   8   9
ENDBRANCH   3   4
BRANCH   3  16
ATOM     15  C   UNL     1      -0.415   0.443   4.897  0.00  0.00    +0.002 C 
ATOM     16  C   UNL     1       0.911  -0.111   4.372  0.00  0.00    -0.011 C 
ENDBRANCH   3  16
ENDBRANCH   1   3
BRANCH   1  17
ATOM     17  C   UNL     1      -0.200  -0.370   0.792  0.00  0.00    -0.042 C 
BRANCH  17  18
ATOM     18  C   UNL     1      -0.876   0.972   0.681  0.00  0.00    -0.064 A 
ATOM     19  C   UNL     1      -2.256   1.049   0.637  0.00  0.00    +0.004 A 
ATOM     20  C   UNL     1      -2.877   2.279   0.540  0.00  0.00    +0.038 A 
ATOM     21  C   UNL     1      -2.117   3.435   0.476  0.00  0.00    +0.123 A 
ATOM     22  C   UNL     1      -0.735   3.356   0.514  0.00  0.00    +0.038 A 
ATOM     23  C   UNL     1      -0.116   2.125   0.617  0.00  0.00    +0.004 A 
ATOM     24  F   UNL     1      -2.723   4.638   0.376  0.00  0.00    -0.205 F 
ENDBRANCH  17  18
ENDBRANCH   1  17
BRANCH   1  25
ATOM     25  C   UNL     1       0.229  -2.163   2.362  0.00  0.00    -0.036 C 
BRANCH  25  26
ATOM     26  C   UNL     1      -1.039  -2.952   2.159  0.00  0.00    +0.001 A 
ATOM     27  C   UNL     1      -1.325  -3.469   0.938  0.00  0.00    +0.017 A 
ATOM     28  C   UNL     1      -2.565  -4.230   0.773  0.00  0.00    +0.002 A 
ATOM     29  C   UNL     1      -2.911  -4.787  -0.462  0.00  0.00    +0.055 A 
ATOM     30  C   UNL     1      -4.087  -5.499  -0.583  0.00  0.00    +0.121 A 
ATOM     31  C   UNL     1      -4.926  -5.663   0.517  0.00  0.00    +0.047 A 
ATOM     32  C   UNL     1      -4.595  -5.120   1.739  0.00  0.00    +0.030 A 
ATOM     33  C   UNL     1      -3.415  -4.399   1.882  0.00  0.00    +0.049 A 
ATOM     34  N   UNL     1      -3.066  -3.847   3.098  0.00  0.00    -0.322 N 
ATOM     35  H   UNL     1      -3.652  -3.964   3.862  0.00  0.00    +0.169 HD
ATOM     36  C   UNL     1      -1.922  -3.154   3.241  0.00  0.00    +0.251 A 
ATOM     37  O   UNL     1      -1.644  -2.686   4.331  0.00  0.00    -0.268 OA
BRANCH  30  38
ATOM     38  O   UNL     1      -4.429  -6.042  -1.781  0.00  0.00    -0.495 OA
ATOM     39  C   UNL     1      -5.660  -6.767  -1.837  0.00  0.00    +0.277 C 
ENDBRANCH  30  38
ENDBRANCH  25  26
ENDBRANCH   1  25
TORSDOF 9
