REMARK  Name = ZINC44813655
REMARK  5 active torsions:
REMARK  status: ('A' for Active; 'I' for Inactive)
REMARK    1  A    between atoms: C_1  and  C_2
REMARK    2  A    between atoms: C_2  and  C_3
REMARK    3  A    between atoms: C_3  and  C_4
REMARK    4  A    between atoms: C_4  and  C_6
REMARK    5  A    between atoms: C_4  and  C_8
REMARK                            x       y       z     vdW  Elec       q    Type
REMARK                         _______ _______ _______ _____ _____    ______ ____
ROOT
ATOM      1  C   UNL     1       1.550  -2.512  -2.439  0.00  0.00    +0.237 C 
ATOM      2  O   UNL     1       2.060  -1.713  -3.195  0.00  0.00    -0.274 OA
ATOM      3  N   UNL     1       1.707  -3.834  -2.650  0.00  0.00    -0.260 N 
ATOM      4  C   UNL     1       1.093  -4.824  -1.752  0.00  0.00    +0.209 C 
ATOM      5  C   UNL     1       2.081  -5.932  -1.492  0.00  0.00    +0.235 C 
ATOM      6  O   UNL     1       2.038  -6.540  -0.444  0.00  0.00    -0.274 OA
ATOM      7  N   UNL     1       3.012  -6.255  -2.410  0.00  0.00    -0.283 N 
ATOM      8  C   UNL     1       3.116  -5.538  -3.607  0.00  0.00    +0.055 A 
ATOM      9  C   UNL     1       2.457  -4.311  -3.736  0.00  0.00    +0.058 A 
ATOM     10  C   UNL     1       2.550  -3.588  -4.912  0.00  0.00    +0.025 A 
ATOM     11  C   UNL     1       3.294  -4.086  -5.967  0.00  0.00    +0.002 A 
ATOM     12  C   UNL     1       3.942  -5.302  -5.847  0.00  0.00    +0.002 A 
ATOM     13  C   UNL     1       3.861  -6.030  -4.666  0.00  0.00    +0.025 A 
ATOM     14  H   UNL     1       3.617  -6.994  -2.240  0.00  0.00    +0.155 HD
ENDROOT
BRANCH   1  15
ATOM     15  C   UNL     1       0.739  -2.027  -1.265  0.00  0.00    +0.177 C 
BRANCH  15  16
ATOM     16  C   UNL     1      -0.638  -2.536  -1.376  0.00  0.00    +0.075 C 
ATOM     17  N   UNL     1      -1.700  -2.929  -1.461  0.00  0.00    -0.196 NA
ENDBRANCH  15  16
BRANCH  15  18
ATOM     18  C   UNL     1       0.718  -0.497  -1.257  0.00  0.00    +0.027 C 
BRANCH  18  20
ATOM     19  C   UNL     1      -0.019   1.526   0.010  0.00  0.00    +0.004 C 
ATOM     20  C   UNL     1       0.002  -0.004   0.002  0.00  0.00    -0.002 C 
ENDBRANCH  18  20
ENDBRANCH  15  18
ENDBRANCH   1  15
TORSDOF 4
