REMARK  Name = ZINC21785675
REMARK  10 active torsions:
REMARK  status: ('A' for Active; 'I' for Inactive)
REMARK    1  A    between atoms: C_1  and  C_2
REMARK    2  A    between atoms: C_5  and  N_9
REMARK    3  A    between atoms: C_6  and  C_8
REMARK    4  A    between atoms: C_10  and  C_12
REMARK    5  A    between atoms: C_12  and  C_14
REMARK    6  A    between atoms: C_12  and  N_15
REMARK    7  A    between atoms: C_20  and  C_22
REMARK    8  A    between atoms: C_25  and  C_36
REMARK    9  A    between atoms: C_26  and  S_28
REMARK   10  A    between atoms: S_28  and  N_31
REMARK                            x       y       z     vdW  Elec       q    Type
REMARK                         _______ _______ _______ _____ _____    ______ ____
ROOT
ATOM      1  N   UNL     1      -1.316   2.910  -0.762  0.00  0.00    -0.217 N 
ATOM      2  C   UNL     1      -1.159   1.578  -0.883  0.00  0.00    +0.268 A 
ATOM      3  O   UNL     1      -2.134   0.854  -1.008  0.00  0.00    -0.266 OA
ATOM      4  C   UNL     1       0.140   1.025  -0.860  0.00  0.00    +0.074 A 
ATOM      5  C   UNL     1       1.195   1.879  -0.724  0.00  0.00    +0.035 A 
ATOM      6  C   UNL     1       0.926   3.263  -0.610  0.00  0.00    +0.092 A 
ATOM      7  N   UNL     1      -0.311   3.700  -0.635  0.00  0.00    -0.168 NA
ENDROOT
BRANCH   6   8
ATOM      8  C   UNL     1       2.046   4.223  -0.461  0.00  0.00    +0.004 A 
ATOM      9  C   UNL     1       1.786   5.588  -0.347  0.00  0.00    +0.010 A 
ATOM     10  C   UNL     1       2.832   6.478  -0.209  0.00  0.00    +0.006 A 
ATOM     11  C   UNL     1       4.137   6.017  -0.182  0.00  0.00    -0.024 A 
ATOM     12  C   UNL     1       4.400   4.664  -0.294  0.00  0.00    +0.109 A 
ATOM     13  C   UNL     1       3.361   3.765  -0.428  0.00  0.00    +0.039 A 
ATOM     14  C   UNL     1       5.275   6.993  -0.030  0.00  0.00    +0.046 C 
BRANCH  12  15
ATOM     15  S   UNL     1       6.064   4.086  -0.258  0.00  0.00    +0.061 S 
ATOM     16  O   UNL     1       6.710   4.773   0.806  0.00  0.00    -0.153 OA
ATOM     17  O   UNL     1       6.003   2.668  -0.322  0.00  0.00    -0.153 OA
BRANCH  15  18
ATOM     18  N   UNL     1       6.789   4.592  -1.658  0.00  0.00    -0.177 NA
ATOM     19  C   UNL     1       6.705   3.915  -2.960  0.00  0.00    +0.109 C 
ATOM     20  C   UNL     1       7.553   4.732  -3.957  0.00  0.00    +0.018 C 
ATOM     21  C   UNL     1       8.530   5.501  -3.030  0.00  0.00    +0.018 C 
ATOM     22  C   UNL     1       7.630   5.794  -1.804  0.00  0.00    +0.109 C 
ENDBRANCH  15  18
ENDBRANCH  12  15
ENDBRANCH   6   8
BRANCH   1  23
ATOM     23  C   UNL     1      -2.668   3.473  -0.782  0.00  0.00    +0.194 C 
ATOM     24  C   UNL     1      -2.930   4.216   0.530  0.00  0.00    +0.043 C 
BRANCH  23  26
ATOM     25  N   UNL     1      -3.960   5.075  -2.154  0.00  0.00    -0.284 N 
ATOM     26  C   UNL     1      -2.795   4.433  -1.937  0.00  0.00    +0.242 C 
ATOM     27  O   UNL     1      -1.850   4.626  -2.671  0.00  0.00    -0.273 OA
ATOM     28  H   UNL     1      -4.843   4.835  -1.544  0.00  0.00    +0.155 HD
BRANCH  25  33
ATOM     29  C   UNL     1      -4.309   9.020  -6.216  0.00  0.00    +0.044 C 
ATOM     30  C   UNL     1      -4.216   7.973  -5.137  0.00  0.00    -0.050 A 
ATOM     31  C   UNL     1      -2.992   7.676  -4.566  0.00  0.00    +0.005 A 
ATOM     32  C   UNL     1      -2.903   6.716  -3.577  0.00  0.00    +0.024 A 
ATOM     33  C   UNL     1      -4.046   6.048  -3.156  0.00  0.00    +0.036 A 
ATOM     34  C   UNL     1      -5.273   6.344  -3.735  0.00  0.00    -0.029 A 
ATOM     35  C   UNL     1      -5.355   7.309  -4.720  0.00  0.00    +0.008 A 
ATOM     36  C   UNL     1      -6.514   5.617  -3.285  0.00  0.00    +0.045 C 
ENDBRANCH  25  33
ENDBRANCH  23  26
ENDBRANCH   1  23
TORSDOF 6
