REMARK  Name = ZINC64880368
REMARK  7 active torsions:
REMARK  status: ('A' for Active; 'I' for Inactive)
REMARK    1  A    between atoms: C_1  and  N_2
REMARK    2  A    between atoms: N_2  and  C_3
REMARK    3  A    between atoms: N_2  and  C_4
REMARK    4  A    between atoms: C_4  and  C_5
REMARK    5  A    between atoms: C_4  and  C_22
REMARK    6  A    between atoms: C_5  and  N_6
REMARK    7  A    between atoms: C_7  and  C_9
REMARK                            x       y       z     vdW  Elec       q    Type
REMARK                         _______ _______ _______ _____ _____    ______ ____
ROOT
ATOM      1  N   UNL     1      -0.414  -2.440   1.409  0.00  0.00    -0.313 N 
ATOM      2  C   UNL     1      -0.164  -3.728   1.718  0.00  0.00    +0.249 C 
ATOM      3  O   UNL     1      -0.614  -4.619   1.023  0.00  0.00    -0.270 OA
ATOM      4  H   UNL     1      -0.001  -1.728   1.922  0.00  0.00    +0.149 HD
ENDROOT
BRANCH   2   5
ATOM      5  C   UNL     1       0.655  -4.056   2.896  0.00  0.00    +0.102 A 
ATOM      6  C   UNL     1       1.032  -5.365   3.160  0.00  0.00    +0.031 A 
ATOM      7  C   UNL     1       1.819  -5.631   4.301  0.00  0.00    +0.037 A 
ATOM      8  C   UNL     1       2.215  -4.604   5.141  0.00  0.00    +0.030 A 
ATOM      9  N   UNL     1       1.845  -3.332   4.888  0.00  0.00    -0.325 N 
ATOM     10  H   UNL     1       2.128  -2.630   5.495  0.00  0.00    +0.169 HD
ATOM     11  C   UNL     1       1.100  -3.008   3.819  0.00  0.00    +0.261 A 
ATOM     12  O   UNL     1       0.790  -1.847   3.619  0.00  0.00    -0.267 OA
ATOM     13  C   UNL     1       3.073  -4.866   6.352  0.00  0.00    +0.054 C 
ATOM     14  C   UNL     1       2.942  -6.312   6.822  0.00  0.00    +0.014 C 
ATOM     15  C   UNL     1       3.261  -7.254   5.654  0.00  0.00    +0.080 C 
ATOM     16  C   UNL     1       2.210  -7.021   4.590  0.00  0.00    +0.165 C 
ATOM     17  O   UNL     1       1.706  -7.950   3.994  0.00  0.00    -0.292 OA
ENDBRANCH   2   5
BRANCH   1  18
ATOM     18  C   UNL     1      -1.312  -2.115   0.297  0.00  0.00    +0.089 C 
BRANCH  18  19
ATOM     19  C   UNL     1      -1.286  -0.606   0.046  0.00  0.00    -0.049 C 
BRANCH  19  20
ATOM     20  C   UNL     1      -2.401  -0.233  -0.933  0.00  0.00    -0.023 C 
ATOM     21  C   UNL     1      -2.302   1.255  -1.277  0.00  0.00    +0.002 C 
ATOM     22  C   UNL     1      -3.417   1.627  -2.257  0.00  0.00    +0.000 C 
ATOM     23  C   UNL     1      -4.776   1.342  -1.615  0.00  0.00    +0.000 C 
ATOM     24  C   UNL     1      -4.875  -0.145  -1.271  0.00  0.00    +0.000 C 
ATOM     25  C   UNL     1      -3.760  -0.518  -0.291  0.00  0.00    +0.002 C 
ENDBRANCH  19  20
BRANCH  19  27
ATOM     26  C   UNL     1       1.085  -0.597   0.410  0.00  0.00    -0.096 C 
ATOM     27  N   UNL     1       0.013  -0.227  -0.524  0.00  0.00    +0.379 N 
ATOM     28  C   UNL     1       0.212  -0.928  -1.800  0.00  0.00    -0.096 C 
ATOM     29  H   UNL     1       0.034   0.770  -0.682  0.00  0.00    -0.082 HD
ENDBRANCH  19  27
ENDBRANCH  18  19
ENDBRANCH   1  18
TORSDOF 5
