REMARK  Name = ZINC52828698
REMARK  7 active torsions:
REMARK  status: ('A' for Active; 'I' for Inactive)
REMARK    1  A    between atoms: C_1  and  C_2
REMARK    2  A    between atoms: C_7  and  N_12
REMARK    3  A    between atoms: C_9  and  C_11
REMARK    4  A    between atoms: C_13  and  C_15
REMARK    5  A    between atoms: C_15  and  C_17
REMARK    6  A    between atoms: C_15  and  N_18
REMARK    7  A    between atoms: C_21  and  C_24
REMARK                            x       y       z     vdW  Elec       q    Type
REMARK                         _______ _______ _______ _____ _____    ______ ____
ROOT
ATOM      1  N   UNL     1      -2.288  -5.686   2.222  0.00  0.00    +0.387 N 
ATOM      2  C   UNL     1      -1.844  -5.735   3.620  0.00  0.00    -0.077 C 
ATOM      3  C   UNL     1      -1.769  -7.191   4.085  0.00  0.00    -0.006 C 
ATOM      4  C   UNL     1      -3.155  -7.831   3.966  0.00  0.00    +0.072 C 
ATOM      5  C   UNL     1      -3.640  -7.708   2.518  0.00  0.00    -0.006 C 
ATOM      6  C   UNL     1      -3.646  -6.233   2.111  0.00  0.00    -0.077 C 
ATOM      7  H   UNL     1      -1.659  -6.232   1.652  0.00  0.00    -0.081 HD
ENDROOT
BRANCH   4   8
ATOM      8  C   UNL     1      -3.072  -9.286   4.348  0.00  0.00    +0.221 C 
ATOM      9  O   UNL     1      -2.010  -9.766   4.683  0.00  0.00    -0.275 OA
ATOM     10  N   UNL     1      -4.179 -10.055   4.317  0.00  0.00    -0.270 N 
ATOM     11  C   UNL     1      -4.125 -11.373   4.770  0.00  0.00    +0.125 A 
ATOM     12  C   UNL     1      -5.293 -12.125   4.840  0.00  0.00    +0.044 A 
ATOM     13  C   UNL     1      -5.225 -13.431   5.291  0.00  0.00    +0.005 A 
ATOM     14  C   UNL     1      -3.987 -13.942   5.658  0.00  0.00    +0.020 A 
ATOM     15  C   UNL     1      -2.869 -13.138   5.563  0.00  0.00    +0.113 A 
ATOM     16  N   UNL     1      -2.963 -11.897   5.124  0.00  0.00    -0.240 NA
ATOM     17  H   UNL     1      -5.013  -9.692   3.980  0.00  0.00    +0.156 HD
ENDBRANCH   4   8
BRANCH   1  18
ATOM     18  C   UNL     1      -2.284  -4.293   1.757  0.00  0.00    +0.016 C 
ATOM     19  C   UNL     1      -2.803  -4.234   0.318  0.00  0.00    -0.004 C 
BRANCH  18  21
ATOM     20  N   UNL     1      -0.672  -2.430   1.981  0.00  0.00    -0.314 N 
ATOM     21  C   UNL     1      -0.879  -3.751   1.807  0.00  0.00    +0.199 C 
ATOM     22  O   UNL     1       0.066  -4.503   1.690  0.00  0.00    -0.278 OA
ATOM     23  H   UNL     1      -1.427  -1.829   2.074  0.00  0.00    +0.149 HD
BRANCH  20  29
ATOM     24  C   UNL     1      -0.194   1.734   2.928  0.00  0.00    +0.008 C 
ATOM     25  C   UNL     1      -0.207   0.424   2.137  0.00  0.00    -0.009 C 
ATOM     26  C   UNL     1       0.290   0.683   0.714  0.00  0.00    +0.003 C 
ATOM     27  C   UNL     1       0.277  -0.627  -0.077  0.00  0.00    +0.002 C 
ATOM     28  C   UNL     1       1.192  -1.645   0.606  0.00  0.00    +0.022 C 
ATOM     29  C   UNL     1       0.694  -1.903   2.029  0.00  0.00    +0.076 C 
ATOM     30  C   UNL     1       0.708  -0.594   2.820  0.00  0.00    +0.009 C 
ATOM     31  C   UNL     1       0.210  -0.853   4.244  0.00  0.00    +0.009 C 
ENDBRANCH  20  29
ENDBRANCH  18  21
ENDBRANCH   1  18
TORSDOF 4
