REMARK  Name = ZINC39954605
REMARK  6 active torsions:
REMARK  status: ('A' for Active; 'I' for Inactive)
REMARK    1  A    between atoms: C_1  and  C_2
REMARK    2  A    between atoms: C_2  and  C_3
REMARK    3  A    between atoms: C_2  and  C_4
REMARK    4  A    between atoms: C_4  and  C_5
REMARK    5  A    between atoms: C_7  and  C_11
REMARK    6  A    between atoms: C_19  and  C_21
REMARK                            x       y       z     vdW  Elec       q    Type
REMARK                         _______ _______ _______ _____ _____    ______ ____
ROOT
ATOM      1  C   UNL     1      -0.180  -5.030   0.698  0.00  0.00    +0.206 C 
ATOM      2  N   UNL     1       1.050  -4.321   0.271  0.00  0.00    -0.231 NA
ATOM      3  N   UNL     1       1.718  -5.193  -0.711  0.00  0.00    -0.224 NA
ATOM      4  C   UNL     1       0.607  -6.014  -1.234  0.00  0.00    +0.240 C 
ATOM      5  N   UNL     1      -0.132  -6.350   0.029  0.00  0.00    -0.206 N 
ATOM      6  N   UNL     1      -0.418  -7.691   0.164  0.00  0.00    -0.173 NA
ATOM      7  C   UNL     1       0.164  -8.614  -0.546  0.00  0.00    +0.125 C 
ATOM      8  S   UNL     1       1.180  -7.680  -1.734  0.00  0.00    -0.063 S 
ATOM      9  H   UNL     1       0.828  -3.424  -0.135  0.00  0.00    +0.143 HD
ATOM     10  H   UNL     1       2.415  -5.771  -0.266  0.00  0.00    +0.144 HD
ENDROOT
BRANCH   7  11
ATOM     11  C   UNL     1       0.026 -10.081  -0.424  0.00  0.00    +0.010 A 
ATOM     12  C   UNL     1       0.739 -10.925  -1.277  0.00  0.00    +0.011 A 
ATOM     13  C   UNL     1       0.606 -12.293  -1.158  0.00  0.00    +0.002 A 
ATOM     14  C   UNL     1      -0.232 -12.829  -0.197  0.00  0.00    +0.020 A 
ATOM     15  C   UNL     1      -0.944 -11.998   0.651  0.00  0.00    +0.042 A 
ATOM     16  C   UNL     1      -0.815 -10.627   0.546  0.00  0.00    +0.030 A 
ATOM     17 CL   UNL     1      -1.994 -12.680   1.853  0.00  0.00    -0.084 Cl
ENDBRANCH   7  11
BRANCH   1  20
ATOM     18  C   UNL     1      -1.416  -2.035  -0.119  0.00  0.00    +0.062 C 
ATOM     19  C   UNL     1      -1.465  -2.886   0.907  0.00  0.00    +0.029 C 
ATOM     20  C   UNL     1      -1.420  -4.254   0.250  0.00  0.00    +0.190 C 
ATOM     21  N   UNL     1      -1.346  -3.930  -1.185  0.00  0.00    -0.177 NA
ATOM     22  N   UNL     1      -1.355  -2.701  -1.293  0.00  0.00    -0.159 NA
BRANCH  18  23
ATOM     23  C   UNL     1      -1.433  -0.534   0.013  0.00  0.00    +0.060 C 
BRANCH  23  25
ATOM     24  C   UNL     1      -0.019   1.526   0.010  0.00  0.00    +0.007 C 
ATOM     25  C   UNL     1       0.002  -0.004   0.002  0.00  0.00    -0.011 C 
ATOM     26  C   UNL     1       0.742  -0.511   1.242  0.00  0.00    +0.007 C 
ENDBRANCH  23  25
ENDBRANCH  18  23
ENDBRANCH   1  20
TORSDOF 4
