REMARK  Name = ZINC40940306
REMARK  7 active torsions:
REMARK  status: ('A' for Active; 'I' for Inactive)
REMARK    1  A    between atoms: C_1  and  O_2
REMARK    2  A    between atoms: O_2  and  C_3
REMARK    3  A    between atoms: C_5  and  C_12
REMARK    4  A    between atoms: C_8  and  O_9
REMARK    5  A    between atoms: O_9  and  C_10
REMARK    6  A    between atoms: N_16  and  N_20
REMARK    7  A    between atoms: C_21  and  C_23
REMARK                            x       y       z     vdW  Elec       q    Type
REMARK                         _______ _______ _______ _____ _____    ______ ____
ROOT
ATOM      1  C   UNL     1       2.393   0.342  -4.214  0.00  0.00    +0.028 C 
ATOM      2  C   UNL     1       3.083  -0.261  -5.215  0.00  0.00    +0.079 C 
ATOM      3  C   UNL     1       3.854   0.340  -6.323  0.00  0.00    +0.275 C 
ATOM      4  O   UNL     1       3.951   1.546  -6.453  0.00  0.00    -0.267 OA
ATOM      5  N   UNL     1       4.433  -0.499  -7.165  0.00  0.00    -0.169 N 
ATOM      6  C   UNL     1       4.322  -1.835  -7.017  0.00  0.00    +0.138 C 
ATOM      7  S   UNL     1       4.992  -3.071  -7.993  0.00  0.00    -0.026 S 
ATOM      8  S   UNL     1       3.316  -2.001  -5.552  0.00  0.00    -0.059 S 
ENDROOT
BRANCH   1  11
ATOM      9  C   UNL     1       0.355  -0.682  -1.237  0.00  0.00    +0.163 A 
ATOM     10  C   UNL     1       1.134   0.078  -2.087  0.00  0.00    +0.057 A 
ATOM     11  C   UNL     1       1.565  -0.461  -3.306  0.00  0.00    -0.019 A 
ATOM     12  C   UNL     1       1.204  -1.768  -3.655  0.00  0.00    +0.027 A 
ATOM     13  C   UNL     1       0.426  -2.519  -2.800  0.00  0.00    +0.064 A 
ATOM     14  C   UNL     1       0.004  -1.984  -1.590  0.00  0.00    +0.175 A 
ATOM     15 BR   UNL     1      -0.061  -4.283  -3.274  0.00  0.00    -0.046 Br
BRANCH   9  17
ATOM     16  C   UNL     1       0.331   1.179   0.244  0.00  0.00    +0.277 C 
ATOM     17  O   UNL     1      -0.066  -0.162  -0.053  0.00  0.00    -0.491 OA
ENDBRANCH   9  17
BRANCH  14  18
ATOM     18  O   UNL     1      -0.758  -2.731  -0.749  0.00  0.00    -0.490 OA
ATOM     19  C   UNL     1      -2.176  -2.651  -0.913  0.00  0.00    +0.277 C 
ENDBRANCH  14  18
ENDBRANCH   1  11
BRANCH   5  20
ATOM     20  N   UNL     1       5.177   0.012  -8.237  0.00  0.00    -0.222 N 
ATOM     21  C   UNL     1       6.524  -0.029  -8.202  0.00  0.00    +0.261 C 
ATOM     22  O   UNL     1       7.092  -0.508  -7.240  0.00  0.00    -0.269 OA
ATOM     23  H   UNL     1       4.723   0.395  -9.004  0.00  0.00    +0.174 HD
BRANCH  21  24
ATOM     24  C   UNL     1       7.309   0.510  -9.332  0.00  0.00    +0.038 A 
ATOM     25  C   UNL     1       6.658   1.067 -10.435  0.00  0.00    +0.014 A 
ATOM     26  C   UNL     1       7.396   1.568 -11.486  0.00  0.00    +0.021 A 
ATOM     27  C   UNL     1       8.780   1.520 -11.450  0.00  0.00    +0.041 A 
ATOM     28  C   UNL     1       9.431   0.968 -10.359  0.00  0.00    +0.021 A 
ATOM     29  C   UNL     1       8.704   0.470  -9.299  0.00  0.00    +0.014 A 
ATOM     30 CL   UNL     1       9.702   2.153 -12.778  0.00  0.00    -0.084 Cl
ENDBRANCH  21  24
ENDBRANCH   5  20
TORSDOF 5
