REMARK  Name = ZINC13477566
REMARK  9 active torsions:
REMARK  status: ('A' for Active; 'I' for Inactive)
REMARK    1  A    between atoms: C_1  and  C_2
REMARK    2  A    between atoms: C_7  and  C_8
REMARK    3  A    between atoms: C_8  and  O_9
REMARK    4  A    between atoms: O_9  and  C_10
REMARK    5  A    between atoms: C_11  and  O_28
REMARK    6  A    between atoms: C_13  and  C_17
REMARK    7  A    between atoms: N_18  and  N_19
REMARK    8  A    between atoms: C_20  and  C_21
REMARK    9  A    between atoms: O_28  and  C_29
REMARK                            x       y       z     vdW  Elec       q    Type
REMARK                         _______ _______ _______ _____ _____    ______ ____
ROOT
ATOM      1  C   UNL     1       0.957  -1.089   5.807  0.00  0.00    +0.176 A 
ATOM      2  C   UNL     1       2.005  -0.812   6.684  0.00  0.00    +0.163 A 
ATOM      3  C   UNL     1       1.751  -0.183   7.887  0.00  0.00    +0.059 A 
ATOM      4  C   UNL     1       0.441   0.177   8.223  0.00  0.00    -0.001 A 
ATOM      5  C   UNL     1      -0.606  -0.103   7.338  0.00  0.00    +0.028 A 
ATOM      6  C   UNL     1      -0.343  -0.728   6.136  0.00  0.00    +0.064 A 
ATOM      7 BR   UNL     1      -1.757  -1.100   4.937  0.00  0.00    -0.046 Br
ENDROOT
BRANCH   4   8
ATOM      8  C   UNL     1       0.165   0.847   9.502  0.00  0.00    +0.140 C 
ATOM      9  N   UNL     1      -1.060   1.182   9.813  0.00  0.00    -0.180 NA
BRANCH   9  10
ATOM     10  N   UNL     1      -1.302   1.770  10.935  0.00  0.00    -0.263 N 
ATOM     11  C   UNL     1      -2.534   2.107  11.249  0.00  0.00    +0.143 C 
ATOM     12  N   UNL     1      -2.793   2.736  12.449  0.00  0.00    -0.342 N 
ATOM     13  H   UNL     1      -2.059   3.036  13.008  0.00  0.00    +0.144 HD
ATOM     14  H   UNL     1      -3.710   2.878  12.735  0.00  0.00    +0.144 HD
ATOM     15  H   UNL     1      -0.576   1.964  11.548  0.00  0.00    +0.190 HD
BRANCH  11  16
ATOM     16  C   UNL     1      -3.640   1.813  10.316  0.00  0.00    +0.187 A 
ATOM     17  C   UNL     1      -4.944   2.488  10.285  0.00  0.00    +0.191 A 
ATOM     18  N   UNL     1      -5.657   1.960   9.329  0.00  0.00    -0.033 NA
ATOM     19  O   UNL     1      -4.880   0.950   8.711  0.00  0.00    -0.240 OA
ATOM     20  N   UNL     1      -3.626   0.908   9.369  0.00  0.00    -0.044 NA
ATOM     21  N   UNL     1      -5.349   3.512  11.130  0.00  0.00    -0.339 N 
ATOM     22  H   UNL     1      -4.714   3.917  11.741  0.00  0.00    +0.144 HD
ATOM     23  H   UNL     1      -6.268   3.823  11.110  0.00  0.00    +0.144 HD
ENDBRANCH  11  16
ENDBRANCH   9  10
ENDBRANCH   4   8
BRANCH   2  24
ATOM     24  O   UNL     1       3.277  -1.163   6.356  0.00  0.00    -0.491 OA
ATOM     25  C   UNL     1       4.301  -0.850   7.301  0.00  0.00    +0.277 C 
ENDBRANCH   2  24
BRANCH   1  26
ATOM     26  O   UNL     1       1.210  -1.708   4.624  0.00  0.00    -0.483 OA
BRANCH  26  27
ATOM     27  C   UNL     1       1.504  -0.871   3.504  0.00  0.00    +0.265 C 
BRANCH  27  34
ATOM     28  C   UNL     1       2.143   0.365   0.972  0.00  0.00    +0.044 C 
ATOM     29  C   UNL     1       2.060  -1.136   1.078  0.00  0.00    -0.044 A 
ATOM     30  C   UNL     1       2.296  -1.922  -0.035  0.00  0.00    +0.004 A 
ATOM     31  C   UNL     1       2.220  -3.299   0.063  0.00  0.00    +0.000 A 
ATOM     32  C   UNL     1       1.909  -3.890   1.273  0.00  0.00    +0.000 A 
ATOM     33  C   UNL     1       1.674  -3.104   2.386  0.00  0.00    +0.007 A 
ATOM     34  C   UNL     1       1.754  -1.728   2.289  0.00  0.00    -0.007 A 
ENDBRANCH  27  34
ENDBRANCH  26  27
ENDBRANCH   1  26
TORSDOF 7
