REMARK  Name = ZINC59258709
REMARK  7 active torsions:
REMARK  status: ('A' for Active; 'I' for Inactive)
REMARK    1  A    between atoms: C_1  and  C_2
REMARK    2  A    between atoms: C_2  and  C_4
REMARK    3  A    between atoms: C_2  and  N_15
REMARK    4  A    between atoms: N_6  and  C_7
REMARK    5  A    between atoms: C_18  and  C_21
REMARK    6  A    between atoms: N_23  and  C_24
REMARK    7  A    between atoms: C_29  and  O_30
REMARK                            x       y       z     vdW  Elec       q    Type
REMARK                         _______ _______ _______ _____ _____    ______ ____
ROOT
ATOM      1  N   UNL     1      -0.560  -0.227  -0.288  0.00  0.00    +0.387 N 
ATOM      2  C   UNL     1      -1.295  -1.458   0.027  0.00  0.00    -0.077 C 
ATOM      3  C   UNL     1      -0.975  -2.530  -1.017  0.00  0.00    -0.006 C 
ATOM      4  C   UNL     1      -1.390  -2.026  -2.402  0.00  0.00    +0.072 C 
ATOM      5  C   UNL     1      -0.674  -0.703  -2.690  0.00  0.00    -0.006 C 
ATOM      6  C   UNL     1      -1.006   0.301  -1.584  0.00  0.00    -0.077 C 
ATOM      7  H   UNL     1       0.427  -0.429  -0.331  0.00  0.00    -0.081 HD
ENDROOT
BRANCH   4   8
ATOM      8  C   UNL     1      -1.006  -3.044  -3.445  0.00  0.00    +0.220 C 
ATOM      9  O   UNL     1      -0.454  -4.072  -3.114  0.00  0.00    -0.275 OA
ATOM     10  N   UNL     1      -1.276  -2.812  -4.745  0.00  0.00    -0.282 N 
ATOM     11  H   UNL     1      -1.643  -1.957  -5.019  0.00  0.00    +0.155 HD
BRANCH  10  12
ATOM     12  C   UNL     1      -1.025  -3.805  -5.701  0.00  0.00    +0.077 A 
ATOM     13  C   UNL     1      -0.939  -5.135  -5.315  0.00  0.00    +0.047 A 
ATOM     14  C   UNL     1      -0.692  -6.114  -6.261  0.00  0.00    +0.043 A 
ATOM     15  C   UNL     1      -0.530  -5.769  -7.591  0.00  0.00    +0.023 A 
ATOM     16  C   UNL     1      -0.615  -4.446  -7.981  0.00  0.00    +0.049 A 
ATOM     17  C   UNL     1      -0.868  -3.461  -7.041  0.00  0.00    +0.138 A 
ATOM     18 CL   UNL     1      -0.584  -7.777  -5.777  0.00  0.00    -0.083 Cl
BRANCH  17  19
ATOM     19  O   UNL     1      -0.957  -2.159  -7.425  0.00  0.00    -0.505 OA
ATOM     20  H   UNL     1      -0.114  -1.685  -7.409  0.00  0.00    +0.292 HD
ENDBRANCH  17  19
ENDBRANCH  10  12
ENDBRANCH   4   8
BRANCH   1  22
ATOM     21  C   UNL     1      -0.111   2.083   0.390  0.00  0.00    -0.004 C 
ATOM     22  C   UNL     1      -0.810   0.773   0.758  0.00  0.00    +0.016 C 
BRANCH  22  23
ATOM     23  C   UNL     1      -0.273   0.269   2.073  0.00  0.00    +0.203 C 
ATOM     24  O   UNL     1       0.663  -0.504   2.090  0.00  0.00    -0.277 OA
ATOM     25  N   UNL     1      -0.831   0.676   3.230  0.00  0.00    -0.285 N 
ATOM     26  H   UNL     1      -1.621   1.238   3.216  0.00  0.00    +0.155 HD
BRANCH  25  27
ATOM     27  C   UNL     1      -0.270   0.286   4.454  0.00  0.00    +0.069 A 
ATOM     28  C   UNL     1       1.036  -0.180   4.503  0.00  0.00    +0.029 A 
ATOM     29  C   UNL     1       1.587  -0.564   5.710  0.00  0.00    +0.040 A 
ATOM     30  C   UNL     1       0.838  -0.484   6.872  0.00  0.00    +0.126 A 
ATOM     31  C   UNL     1      -0.466  -0.019   6.827  0.00  0.00    +0.078 A 
ATOM     32  C   UNL     1      -1.020   0.372   5.622  0.00  0.00    +0.147 A 
ATOM     33  F   UNL     1      -2.290   0.831   5.578  0.00  0.00    -0.203 F 
ATOM     34  F   UNL     1       1.380  -0.860   8.051  0.00  0.00    -0.205 F 
ENDBRANCH  25  27
ENDBRANCH  22  23
ENDBRANCH   1  22
TORSDOF 6
