REMARK  Name = ZINC02772714
REMARK  7 active torsions:
REMARK  status: ('A' for Active; 'I' for Inactive)
REMARK    1  A    between atoms: C_3  and  S_26
REMARK    2  A    between atoms: C_6  and  N_7
REMARK    3  A    between atoms: C_13  and  C_14
REMARK    4  A    between atoms: C_19  and  O_20
REMARK    5  A    between atoms: O_20  and  C_21
REMARK    6  A    between atoms: C_21  and  C_22
REMARK    7  A    between atoms: S_26  and  N_29
REMARK                            x       y       z     vdW  Elec       q    Type
REMARK                         _______ _______ _______ _____ _____    ______ ____
ROOT
ATOM      1  N   UNL     1      -1.272   7.576   2.075  0.00  0.00    -0.226 NA
ATOM      2  C   UNL     1      -1.987   7.830   3.149  0.00  0.00    +0.166 C 
ATOM      3  N   UNL     1      -3.140   7.208   3.576  0.00  0.00    -0.260 N 
ATOM      4  C   UNL     1      -3.739   7.592   4.691  0.00  0.00    +0.256 C 
ATOM      5  O   UNL     1      -4.758   7.054   5.084  0.00  0.00    -0.269 OA
ATOM      6  C   UNL     1      -3.115   8.700   5.438  0.00  0.00    +0.078 C 
ATOM      7  C   UNL     1      -3.510   9.288   6.596  0.00  0.00    +0.032 C 
ATOM      8  S   UNL     1      -1.696   9.057   4.412  0.00  0.00    -0.049 S 
ATOM      9  H   UNL     1      -3.517   6.483   3.054  0.00  0.00    +0.157 HD
ENDROOT
BRANCH   7  10
ATOM     10  C   UNL     1      -2.823  10.492   7.080  0.00  0.00    +0.019 A 
ATOM     11  C   UNL     1      -2.040  11.255   6.206  0.00  0.00    +0.026 A 
ATOM     12  C   UNL     1      -1.403  12.388   6.667  0.00  0.00    +0.019 A 
ATOM     13  C   UNL     1      -1.524  12.767   7.995  0.00  0.00    +0.019 A 
ATOM     14  C   UNL     1      -2.288  12.019   8.870  0.00  0.00    +0.047 A 
ATOM     15  C   UNL     1      -2.942  10.881   8.425  0.00  0.00    +0.129 A 
ATOM     16 BR   UNL     1      -0.353  13.424   5.484  0.00  0.00    -0.050 Br
BRANCH  15  17
ATOM     17  O   UNL     1      -3.693  10.146   9.283  0.00  0.00    -0.477 OA
BRANCH  17  18
ATOM     18  C   UNL     1      -3.767  10.604  10.635  0.00  0.00    +0.346 C 
BRANCH  18  19
ATOM     19  C   UNL     1      -4.619   9.691  11.416  0.00  0.00    +0.104 C 
ATOM     20  N   UNL     1      -5.276   8.987  12.018  0.00  0.00    -0.193 NA
ENDBRANCH  18  19
ENDBRANCH  17  18
ENDBRANCH  15  17
ENDBRANCH   7  10
BRANCH   1  26
ATOM     21  C   UNL     1      -1.643   6.800  -0.162  0.00  0.00    +0.030 A 
ATOM     22  C   UNL     1      -2.029   5.792  -1.020  0.00  0.00    +0.030 A 
ATOM     23  C   UNL     1      -2.428   4.566  -0.518  0.00  0.00    +0.105 A 
ATOM     24  C   UNL     1      -2.447   4.343   0.848  0.00  0.00    +0.030 A 
ATOM     25  C   UNL     1      -2.058   5.340   1.718  0.00  0.00    +0.030 A 
ATOM     26  C   UNL     1      -1.655   6.581   1.218  0.00  0.00    +0.067 A 
BRANCH  23  27
ATOM     27  S   UNL     1      -2.920   3.284  -1.622  0.00  0.00    +0.056 S 
ATOM     28  O   UNL     1      -3.340   3.920  -2.821  0.00  0.00    -0.153 OA
ATOM     29  O   UNL     1      -3.767   2.415  -0.884  0.00  0.00    -0.153 OA
BRANCH  27  30
ATOM     30  N   UNL     1      -1.562   2.414  -1.998  0.00  0.00    -0.204 NA
ATOM     31  H   UNL     1      -1.633   1.470  -2.208  0.00  0.00    +0.144 HD
ATOM     32  H   UNL     1      -0.695   2.849  -2.013  0.00  0.00    +0.144 HD
ENDBRANCH  27  30
ENDBRANCH  23  27
ENDBRANCH   1  26
TORSDOF 7
