REMARK  Name = ZINC21142710
REMARK  4 active torsions:
REMARK  status: ('A' for Active; 'I' for Inactive)
REMARK    1  A    between atoms: C_1  and  C_2
REMARK    2  A    between atoms: N_11  and  C_15
REMARK    3  A    between atoms: C_15  and  C_16
REMARK    4  A    between atoms: C_19  and  C_21
REMARK                            x       y       z     vdW  Elec       q    Type
REMARK                         _______ _______ _______ _____ _____    ______ ____
ROOT
ATOM      1  C   UNL     1       5.375   4.068  -4.335  0.00  0.00    +0.010 C 
ATOM      2  C   UNL     1       6.368   5.185  -4.660  0.00  0.00    +0.018 C 
ATOM      3  C   UNL     1       5.943   5.887  -5.952  0.00  0.00    +0.006 C 
ATOM      4  C   UNL     1       6.926   7.017  -6.264  0.00  0.00    +0.000 C 
ATOM      5  C   UNL     1       6.921   8.031  -5.118  0.00  0.00    +0.003 C 
ATOM      6  C   UNL     1       7.351   7.337  -3.823  0.00  0.00    +0.035 C 
ATOM      7  C   UNL     1       6.390   6.193  -3.516  0.00  0.00    +0.115 C 
ATOM      8  C   UNL     1       6.777   5.519  -2.220  0.00  0.00    +0.247 C 
ATOM      9  O   UNL     1       7.819   4.952  -1.970  0.00  0.00    -0.273 OA
ATOM     10  N   UNL     1       5.717   5.678  -1.401  0.00  0.00    -0.218 N 
ATOM     11  C   UNL     1       4.731   6.360  -1.997  0.00  0.00    +0.310 C 
ATOM     12  O   UNL     1       3.676   6.633  -1.458  0.00  0.00    -0.252 OA
ATOM     13  N   UNL     1       5.040   6.710  -3.260  0.00  0.00    -0.285 N 
ATOM     14  H   UNL     1       4.504   7.261  -4.047  0.00  0.00    +0.151 HD
ENDROOT
BRANCH  10  15
ATOM     15  C   UNL     1       5.655   5.174  -0.027  0.00  0.00    +0.176 C 
BRANCH  15  16
ATOM     16  C   UNL     1       5.077   3.782  -0.029  0.00  0.00    +0.098 A 
ATOM     17  C   UNL     1       5.778   2.633  -0.042  0.00  0.00    +0.222 A 
ATOM     18  O   UNL     1       4.888   1.621  -0.032  0.00  0.00    -0.443 OA
ATOM     19  C   UNL     1       3.657   2.160  -0.023  0.00  0.00    +0.227 A 
ATOM     20  N   UNL     1       3.773   3.467  -0.017  0.00  0.00    -0.212 NA
BRANCH  19  21
ATOM     21  C   UNL     1       2.385   1.407  -0.014  0.00  0.00    +0.037 A 
ATOM     22  C   UNL     1       1.167   2.088   0.002  0.00  0.00    +0.013 A 
ATOM     23  C   UNL     1      -0.017   1.379   0.010  0.00  0.00    +0.001 A 
ATOM     24  C   UNL     1       0.002  -0.004   0.002  0.00  0.00    +0.000 A 
ATOM     25  C   UNL     1       1.206  -0.686  -0.013  0.00  0.00    +0.001 A 
ATOM     26  C   UNL     1       2.397   0.011  -0.021  0.00  0.00    +0.013 A 
ENDBRANCH  19  21
ENDBRANCH  15  16
ENDBRANCH  10  15
TORSDOF 3
