REMARK  Name = ZINC41957075
REMARK  3 active torsions:
REMARK  status: ('A' for Active; 'I' for Inactive)
REMARK    1  A    between atoms: C_7  and  C_11
REMARK    2  A    between atoms: C_7  and  O_14
REMARK    3  A    between atoms: O_14  and  C_15
REMARK                            x       y       z     vdW  Elec       q    Type
REMARK                         _______ _______ _______ _____ _____    ______ ____
ROOT
ATOM      1  C   UNL     1       0.331   1.361  -0.205  0.00  0.00    +0.000 A 
ATOM      2  C   UNL     1       1.517   2.048  -0.013  0.00  0.00    +0.001 A 
ATOM      3  C   UNL     1       2.684   1.344   0.188  0.00  0.00    +0.015 A 
ATOM      4  C   UNL     1       2.676  -0.052   0.205  0.00  0.00    +0.015 A 
ATOM      5  C   UNL     1       1.491  -0.740   0.028  0.00  0.00    +0.020 A 
ATOM      6  C   UNL     1       0.320  -0.016  -0.186  0.00  0.00    +0.009 A 
ATOM      7  C   UNL     1       1.358  -2.234   0.072  0.00  0.00    +0.237 C 
ATOM      8  C   UNL     1       2.645  -2.971  -0.253  0.00  0.00    +0.076 C 
ATOM      9  C   UNL     1       3.713  -2.598   0.785  0.00  0.00    +0.079 C 
ATOM     10  S   UNL     1       4.214  -0.884   0.448  0.00  0.00    -0.125 S 
ENDROOT
BRANCH   7  11
ATOM     11  C   UNL     1       0.301  -2.652  -0.917  0.00  0.00    +0.403 C 
ATOM     12  O   UNL     1       0.435  -2.392  -2.100  0.00  0.00    -0.241 OA
ATOM     13  O   UNL     1      -0.690  -3.251  -0.533  0.00  0.00    -0.241 OA
ENDBRANCH   7  11
BRANCH   7  14
ATOM     14  O   UNL     1       0.931  -2.616   1.381  0.00  0.00    -0.470 OA
BRANCH  14  15
ATOM     15  C   UNL     1       0.719  -3.941   1.598  0.00  0.00    +0.123 A 
ATOM     16  C   UNL     1       0.795  -4.839   0.543  0.00  0.00    +0.047 A 
ATOM     17  C   UNL     1       0.580  -6.185   0.767  0.00  0.00    +0.018 A 
ATOM     18  C   UNL     1       0.290  -6.638   2.041  0.00  0.00    +0.014 A 
ATOM     19  C   UNL     1       0.214  -5.745   3.094  0.00  0.00    +0.018 A 
ATOM     20  C   UNL     1       0.433  -4.399   2.876  0.00  0.00    +0.047 A 
ATOM     21  I   UNL     1      -0.036  -8.680   2.376  0.00  0.00    -0.044 I 
ENDBRANCH  14  15
ENDBRANCH   7  14
TORSDOF 3
