REMARK  Name = ZINC02390538
REMARK  8 active torsions:
REMARK  status: ('A' for Active; 'I' for Inactive)
REMARK    1  A    between atoms: C_1  and  C_2
REMARK    2  A    between atoms: C_5  and  C_8
REMARK    3  A    between atoms: C_8  and  N_9
REMARK    4  A    between atoms: N_9  and  C_10
REMARK    5  A    between atoms: C_11  and  C_22
REMARK    6  A    between atoms: C_18  and  C_21
REMARK    7  A    between atoms: N_26  and  C_30
REMARK    8  A    between atoms: C_30  and  C_31
REMARK                            x       y       z     vdW  Elec       q    Type
REMARK                         _______ _______ _______ _____ _____    ______ ____
ROOT
ATOM      1  C   UNL     1       4.865   2.161   0.018  0.00  0.00    +0.134 A 
ATOM      2  C   UNL     1       3.496   2.515   0.049  0.00  0.00    +0.081 A 
ATOM      3  C   UNL     1       3.158   3.887   0.139  0.00  0.00    +0.267 A 
ATOM      4  O   UNL     1       1.991   4.238   0.164  0.00  0.00    -0.267 OA
ATOM      5  N   UNL     1       4.151   4.800   0.202  0.00  0.00    -0.267 N 
ATOM      6  C   UNL     1       3.835   6.123   0.294  0.00  0.00    +0.096 A 
ATOM      7  C   UNL     1       4.805   7.064   0.353  0.00  0.00    +0.019 A 
ATOM      8  C   UNL     1       6.154   6.685   0.320  0.00  0.00    +0.008 A 
ATOM      9  C   UNL     1       6.480   5.365   0.228  0.00  0.00    -0.007 A 
ATOM     10  C   UNL     1       5.458   4.401   0.168  0.00  0.00    +0.145 A 
ATOM     11  N   UNL     1       5.787   3.112   0.078  0.00  0.00    -0.214 NA
ATOM     12  C   UNL     1       7.926   4.941   0.191  0.00  0.00    +0.047 C 
ENDROOT
BRANCH   2  13
ATOM     13  C   UNL     1       2.489   1.524  -0.013  0.00  0.00    +0.037 C 
ATOM     14  C   UNL     1       2.470   0.512   0.903  0.00  0.00    +0.077 C 
ATOM     15  C   UNL     1       1.635  -0.640   0.963  0.00  0.00    +0.259 C 
ATOM     16  O   UNL     1       0.783  -0.841   0.116  0.00  0.00    -0.269 OA
ATOM     17  N   UNL     1       1.808  -1.483   1.966  0.00  0.00    -0.251 N 
ATOM     18  C   UNL     1       2.757  -1.263   2.903  0.00  0.00    +0.121 C 
ATOM     19  S   UNL     1       3.157  -2.213   4.270  0.00  0.00    -0.027 S 
ATOM     20  S   UNL     1       3.484   0.274   2.356  0.00  0.00    -0.061 S 
BRANCH  17  21
ATOM     21  C   UNL     1       0.963  -2.676   2.060  0.00  0.00    +0.150 C 
BRANCH  21  22
ATOM     22  C   UNL     1       1.615  -3.814   1.318  0.00  0.00    -0.030 A 
ATOM     23  C   UNL     1       1.338  -4.014  -0.022  0.00  0.00    +0.005 A 
ATOM     24  C   UNL     1       1.939  -5.054  -0.704  0.00  0.00    +0.000 A 
ATOM     25  C   UNL     1       2.810  -5.902  -0.045  0.00  0.00    +0.000 A 
ATOM     26  C   UNL     1       3.083  -5.705   1.296  0.00  0.00    +0.000 A 
ATOM     27  C   UNL     1       2.485  -4.662   1.977  0.00  0.00    +0.005 A 
ENDBRANCH  21  22
ENDBRANCH  17  21
ENDBRANCH   2  13
BRANCH   1  28
ATOM     28  N   UNL     1       5.238   0.838  -0.075  0.00  0.00    -0.324 N 
ATOM     29  H   UNL     1       4.560   0.146  -0.119  0.00  0.00    +0.148 HD
BRANCH  28  30
ATOM     30  C   UNL     1       6.657   0.478  -0.107  0.00  0.00    +0.138 C 
BRANCH  30  35
ATOM     31  C   UNL     1       7.179  -5.264  -0.505  0.00  0.00    +0.044 C 
ATOM     32  C   UNL     1       7.043  -3.766  -0.401  0.00  0.00    -0.050 A 
ATOM     33  C   UNL     1       6.973  -2.998  -1.548  0.00  0.00    +0.003 A 
ATOM     34  C   UNL     1       6.849  -1.624  -1.453  0.00  0.00    +0.005 A 
ATOM     35  C   UNL     1       6.793  -1.020  -0.211  0.00  0.00    -0.030 A 
ATOM     36  C   UNL     1       6.867  -1.788   0.936  0.00  0.00    +0.005 A 
ATOM     37  C   UNL     1       6.988  -3.162   0.841  0.00  0.00    +0.003 A 
ENDBRANCH  30  35
ENDBRANCH  28  30
ENDBRANCH   1  28
TORSDOF 6
