REMARK  Name = ZINC39688572
REMARK  9 active torsions:
REMARK  status: ('A' for Active; 'I' for Inactive)
REMARK    1  A    between atoms: C_1  and  C_2
REMARK    2  A    between atoms: C_2  and  O_3
REMARK    3  A    between atoms: O_3  and  C_4
REMARK    4  A    between atoms: C_9  and  C_10
REMARK    5  A    between atoms: C_14  and  C_23
REMARK    6  A    between atoms: N_25  and  C_26
REMARK    7  A    between atoms: C_26  and  C_28
REMARK    8  A    between atoms: C_26  and  C_29
REMARK    9  A    between atoms: C_29  and  C_30
REMARK                            x       y       z     vdW  Elec       q    Type
REMARK                         _______ _______ _______ _____ _____    ______ ____
ROOT
ATOM      1  C   UNL     1      -3.840  -1.696   0.110  0.00  0.00    +0.250 C 
ATOM      2  O   UNL     1      -3.660  -0.494   0.136  0.00  0.00    -0.270 OA
ATOM      3  N   UNL     1      -5.086  -2.188  -0.037  0.00  0.00    -0.296 N 
ATOM      4  C   UNL     1      -5.515  -3.606   0.015  0.00  0.00    +0.121 C 
ATOM      5  C   UNL     1      -6.862  -3.579   0.772  0.00  0.00    +0.100 C 
ATOM      6  C   UNL     1      -7.398  -2.151   0.569  0.00  0.00    -0.004 C 
ATOM      7  C   UNL     1      -6.339  -1.433  -0.279  0.00  0.00    +0.115 C 
ATOM      8  C   UNL     1      -7.552  -1.449   1.915  0.00  0.00    -0.010 C 
ATOM      9  C   UNL     1      -8.140  -0.052   1.691  0.00  0.00    -0.082 C 
ATOM     10  N   UNL     1      -9.442  -0.169   1.025  0.00  0.00    +0.379 N 
ATOM     11  C   UNL     1      -9.272  -0.761  -0.307  0.00  0.00    -0.082 C 
ATOM     12  C   UNL     1      -8.732  -2.188  -0.169  0.00  0.00    -0.010 C 
ATOM     13  H   UNL     1     -10.050  -0.755   1.577  0.00  0.00    -0.086 HD
ATOM     14  H   UNL     1      -9.855   0.748   0.934  0.00  0.00    -0.086 HD
ENDROOT
BRANCH   1  20
ATOM     15  C   UNL     1      -1.602  -2.273   1.047  0.00  0.00    +0.133 A 
ATOM     16  C   UNL     1      -0.533  -3.148   1.165  0.00  0.00    +0.046 A 
ATOM     17  C   UNL     1      -0.543  -4.349   0.484  0.00  0.00    +0.004 A 
ATOM     18  C   UNL     1      -1.618  -4.689  -0.321  0.00  0.00    +0.001 A 
ATOM     19  C   UNL     1      -2.689  -3.832  -0.450  0.00  0.00    +0.017 A 
ATOM     20  C   UNL     1      -2.694  -2.616   0.238  0.00  0.00    +0.078 A 
BRANCH  15  21
ATOM     21  O   UNL     1      -1.594  -1.093   1.715  0.00  0.00    -0.491 OA
BRANCH  21  23
ATOM     22  C   UNL     1      -0.617   0.553   3.191  0.00  0.00    +0.048 C 
ATOM     23  C   UNL     1      -0.447  -0.811   2.520  0.00  0.00    +0.226 C 
ENDBRANCH  21  23
ENDBRANCH  15  21
ENDBRANCH   1  20
BRANCH   5  24
ATOM     24  C   UNL     1      -7.814  -4.588   0.184  0.00  0.00    +0.218 C 
ATOM     25  O   UNL     1      -7.758  -4.858  -0.997  0.00  0.00    -0.275 OA
ATOM     26  N   UNL     1      -8.729  -5.189   0.971  0.00  0.00    -0.312 N 
ATOM     27  H   UNL     1      -8.774  -4.973   1.915  0.00  0.00    +0.149 HD
BRANCH  26  28
ATOM     28  C   UNL     1      -9.655  -6.170   0.399  0.00  0.00    +0.074 C 
ATOM     29  C   UNL     1     -10.862  -5.444  -0.199  0.00  0.00    +0.028 C 
BRANCH  28  30
ATOM     30  C   UNL     1     -10.127  -7.126   1.496  0.00  0.00    +0.057 C 
BRANCH  30  31
ATOM     31  C   UNL     1      -8.956  -7.929   2.000  0.00  0.00    -0.045 A 
ATOM     32  C   UNL     1      -8.637  -9.134   1.402  0.00  0.00    +0.006 A 
ATOM     33  C   UNL     1      -7.563  -9.872   1.863  0.00  0.00    +0.038 A 
ATOM     34  C   UNL     1      -6.807  -9.404   2.925  0.00  0.00    +0.123 A 
ATOM     35  C   UNL     1      -7.128  -8.197   3.523  0.00  0.00    +0.038 A 
ATOM     36  C   UNL     1      -8.199  -7.459   3.057  0.00  0.00    +0.006 A 
ATOM     37  F   UNL     1      -5.757 -10.124   3.377  0.00  0.00    -0.205 F 
ENDBRANCH  30  31
ENDBRANCH  28  30
ENDBRANCH  26  28
ENDBRANCH   5  24
TORSDOF 7
