REMARK  Name = ZINC40373389
REMARK  15 active torsions:
REMARK  status: ('A' for Active; 'I' for Inactive)
REMARK    1  A    between atoms: C_1  and  C_2
REMARK    2  A    between atoms: C_2  and  C_3
REMARK    3  A    between atoms: C_2  and  C_4
REMARK    4  A    between atoms: C_7  and  O_10
REMARK    5  A    between atoms: O_10  and  C_11
REMARK    6  A    between atoms: C_11  and  C_12
REMARK    7  A    between atoms: C_12  and  O_13
REMARK    8  A    between atoms: O_13  and  C_14
REMARK    9  A    between atoms: C_14  and  C_15
REMARK   10  A    between atoms: C_15  and  C_17
REMARK   11  A    between atoms: C_15  and  O_37
REMARK   12  A    between atoms: C_17  and  N_18
REMARK   13  A    between atoms: N_21  and  C_24
REMARK   14  A    between atoms: C_24  and  C_25
REMARK   15  A    between atoms: C_24  and  C_31
REMARK                            x       y       z     vdW  Elec       q    Type
REMARK                         _______ _______ _______ _____ _____    ______ ____
ROOT
ATOM      1  N   UNL     1     -12.529  -0.180  -0.624  0.00  0.00    -0.303 NA
ATOM      2  C   UNL     1     -12.667   0.289  -2.010  0.00  0.00    +0.066 C 
ATOM      3  C   UNL     1     -13.538   1.548  -2.035  0.00  0.00    -0.062 C 
ATOM      4  N   UNL     1     -14.858   1.241  -1.469  0.00  0.00    +0.389 N 
ATOM      5  C   UNL     1     -14.706   0.798  -0.077  0.00  0.00    -0.062 C 
ATOM      6  C   UNL     1     -13.845  -0.467  -0.036  0.00  0.00    +0.066 C 
ATOM      7  H   UNL     1     -15.294   0.509  -2.010  0.00  0.00    -0.080 HD
ENDROOT
BRANCH   1   8
ATOM      8  C   UNL     1     -11.652  -1.356  -0.552  0.00  0.00    +0.117 C 
BRANCH   8   9
ATOM      9  C   UNL     1     -11.142  -1.525   0.881  0.00  0.00    +0.154 C 
BRANCH   9  10
ATOM     10  O   UNL     1     -10.357  -0.387   1.244  0.00  0.00    -0.388 OA
ATOM     11  H   UNL     1      -9.584  -0.247   0.681  0.00  0.00    +0.210 HD
ENDBRANCH   9  10
BRANCH   9  12
ATOM     12  C   UNL     1     -10.283  -2.787   0.971  0.00  0.00    +0.192 C 
BRANCH  12  13
ATOM     13  O   UNL     1      -9.903  -3.009   2.331  0.00  0.00    -0.374 OA
BRANCH  13  14
ATOM     14  C   UNL     1      -9.093  -4.170   2.526  0.00  0.00    +0.201 C 
BRANCH  14  15
ATOM     15  C   UNL     1      -8.748  -4.307   4.011  0.00  0.00    +0.257 C 
BRANCH  15  16
ATOM     16  O   UNL     1      -9.942  -4.549   4.757  0.00  0.00    -0.490 OA
BRANCH  16  20
ATOM     17  C   UNL     1      -9.542  -4.997   8.838  0.00  0.00    -0.045 A 
ATOM     18  C   UNL     1     -10.792  -5.083   8.254  0.00  0.00    +0.007 A 
ATOM     19  C   UNL     1     -10.929  -4.933   6.888  0.00  0.00    +0.046 A 
ATOM     20  C   UNL     1      -9.811  -4.696   6.101  0.00  0.00    +0.121 A 
ATOM     21  C   UNL     1      -8.557  -4.610   6.690  0.00  0.00    +0.046 A 
ATOM     22  C   UNL     1      -8.427  -4.755   8.058  0.00  0.00    +0.007 A 
BRANCH  17  24
ATOM     23  C   UNL     1     -10.219  -4.087  11.044  0.00  0.00    +0.012 C 
ATOM     24  C   UNL     1      -9.396  -5.161  10.329  0.00  0.00    +0.013 C 
ATOM     25  C   UNL     1      -9.897  -6.546  10.742  0.00  0.00    +0.012 C 
ENDBRANCH  17  24
ENDBRANCH  16  20
ENDBRANCH  15  16
ENDBRANCH  14  15
ENDBRANCH  13  14
ENDBRANCH  12  13
ENDBRANCH   9  12
ENDBRANCH   8   9
ENDBRANCH   1   8
BRANCH   4  26
ATOM     26  C   UNL     1     -15.699   2.445  -1.510  0.00  0.00    -0.007 C 
BRANCH  26  27
ATOM     27  C   UNL     1     -15.857   2.900  -2.938  0.00  0.00    -0.057 A 
ATOM     28  C   UNL     1     -16.040   1.969  -3.944  0.00  0.00    +0.002 A 
ATOM     29  C   UNL     1     -16.184   2.386  -5.253  0.00  0.00    +0.000 A 
ATOM     30  C   UNL     1     -16.148   3.734  -5.558  0.00  0.00    +0.000 A 
ATOM     31  C   UNL     1     -15.966   4.665  -4.552  0.00  0.00    +0.000 A 
ATOM     32  C   UNL     1     -15.826   4.248  -3.242  0.00  0.00    +0.002 A 
ENDBRANCH  26  27
BRANCH  26  33
ATOM     33  C   UNL     1     -17.054   2.131  -0.930  0.00  0.00    -0.057 A 
ATOM     34  C   UNL     1     -17.661   0.920  -1.206  0.00  0.00    +0.002 A 
ATOM     35  C   UNL     1     -18.904   0.632  -0.674  0.00  0.00    +0.000 A 
ATOM     36  C   UNL     1     -19.540   1.554   0.134  0.00  0.00    +0.000 A 
ATOM     37  C   UNL     1     -18.933   2.765   0.412  0.00  0.00    +0.000 A 
ATOM     38  C   UNL     1     -17.689   3.052  -0.117  0.00  0.00    +0.002 A 
ENDBRANCH  26  33
ENDBRANCH   4  26
TORSDOF 13
