REMARK  Name = ZINC62320438
REMARK  5 active torsions:
REMARK  status: ('A' for Active; 'I' for Inactive)
REMARK    1  A    between atoms: C_1  and  N_2
REMARK    2  A    between atoms: C_4  and  C_14
REMARK    3  A    between atoms: C_12  and  N_13
REMARK    4  A    between atoms: N_16  and  C_17
REMARK    5  A    between atoms: C_17  and  C_18
REMARK                            x       y       z     vdW  Elec       q    Type
REMARK                         _______ _______ _______ _____ _____    ______ ____
ROOT
ATOM      1  C   UNL     1      -0.021   1.776   0.149  0.00  0.00    +0.149 C 
ATOM      2  N   UNL     1      -0.028   0.325  -0.055  0.00  0.00    -0.349 N 
ATOM      3  C   UNL     1      -0.058  -0.147  -1.309  0.00  0.00    +0.102 A 
ATOM      4  C   UNL     1      -0.066  -1.498  -1.586  0.00  0.00    +0.100 A 
ATOM      5  C   UNL     1      -0.040  -2.454  -0.466  0.00  0.00    +0.203 A 
ATOM      6  O   UNL     1      -0.044  -3.657  -0.659  0.00  0.00    -0.286 OA
ATOM      7  C   UNL     1      -0.006  -1.895   0.894  0.00  0.00    +0.066 A 
ATOM      8  C   UNL     1       0.004  -0.498   1.050  0.00  0.00    +0.054 A 
ATOM      9  C   UNL     1       0.040   0.042   2.332  0.00  0.00    +0.026 A 
ATOM     10  C   UNL     1       0.071  -0.787   3.434  0.00  0.00    +0.004 A 
ATOM     11  C   UNL     1       0.067  -2.163   3.286  0.00  0.00    +0.023 A 
ATOM     12  C   UNL     1       0.019  -2.729   2.021  0.00  0.00    +0.037 A 
ENDROOT
BRANCH   4  13
ATOM     13  C   UNL     1      -0.100  -1.976  -2.977  0.00  0.00    +0.249 C 
ATOM     14  O   UNL     1      -0.229  -1.182  -3.890  0.00  0.00    -0.270 OA
ATOM     15  N   UNL     1       0.012  -3.293  -3.240  0.00  0.00    -0.309 N 
ATOM     16  H   UNL     1       0.041  -3.932  -2.510  0.00  0.00    +0.149 HD
BRANCH  15  17
ATOM     17  C   UNL     1       0.091  -3.759  -4.626  0.00  0.00    +0.136 C 
BRANCH  17  18
ATOM     18  C   UNL     1       0.212  -5.284  -4.645  0.00  0.00    +0.135 C 
ATOM     19  C   UNL     1       0.332  -5.796  -6.103  0.00  0.00    +0.035 C 
ATOM     20  C   UNL     1       1.065  -7.147  -5.881  0.00  0.00    +0.031 C 
ATOM     21  C   UNL     1       1.981  -6.830  -4.680  0.00  0.00    +0.160 C 
ATOM     22  O   UNL     1       1.427  -5.696  -3.999  0.00  0.00    -0.375 OA
ENDBRANCH  17  18
ENDBRANCH  15  17
ENDBRANCH   4  13
BRANCH  12  23
ATOM     23  N   UNL     1       0.015  -4.111   1.870  0.00  0.00    -0.357 N 
ATOM     24  H   UNL     1       0.077  -4.503   0.985  0.00  0.00    +0.142 HD
ATOM     25  H   UNL     1      -0.051  -4.684   2.650  0.00  0.00    +0.142 HD
ENDBRANCH  12  23
TORSDOF 4
