REMARK  Name = ZINC08742163
REMARK  7 active torsions:
REMARK  status: ('A' for Active; 'I' for Inactive)
REMARK    1  A    between atoms: C_1  and  C_2
REMARK    2  A    between atoms: N_17  and  C_20
REMARK    3  A    between atoms: C_20  and  C_21
REMARK    4  A    between atoms: C_27  and  C_33
REMARK    5  A    between atoms: C_27  and  C_35
REMARK    6  A    between atoms: C_28  and  N_32
REMARK    7  A    between atoms: C_29  and  C_30
REMARK                            x       y       z     vdW  Elec       q    Type
REMARK                         _______ _______ _______ _____ _____    ______ ____
ROOT
ATOM      1  C   UNL     1       0.825   2.815   2.457  0.00  0.00    +0.008 C 
ATOM      2  C   UNL     1       1.080   2.312   3.879  0.00  0.00    -0.010 C 
ATOM      3  C   UNL     1       1.936   3.332   4.643  0.00  0.00    +0.030 C 
ATOM      4  C   UNL     1       1.196   4.644   4.642  0.00  0.00    -0.021 C 
ATOM      5  C   UNL     1      -0.122   4.682   4.655  0.00  0.00    -0.028 C 
ATOM      6  C   UNL     1      -0.992   3.462   4.727  0.00  0.00    +0.043 C 
ATOM      7  C   UNL     1      -0.249   2.152   4.615  0.00  0.00    +0.013 C 
ATOM      8  C   UNL     1      -2.093   3.592   3.679  0.00  0.00    +0.117 C 
ATOM      9  C   UNL     1      -2.920   2.348   3.607  0.00  0.00    -0.008 A 
ATOM     10  C   UNL     1      -3.708   1.718   4.547  0.00  0.00    +0.006 A 
ATOM     11  C   UNL     1      -4.357   0.554   4.149  0.00  0.00    +0.000 A 
ATOM     12  C   UNL     1      -4.218   0.056   2.869  0.00  0.00    +0.002 A 
ATOM     13  C   UNL     1      -3.428   0.683   1.919  0.00  0.00    +0.024 A 
ATOM     14  C   UNL     1      -2.775   1.855   2.305  0.00  0.00    +0.041 A 
ATOM     15  N   UNL     1      -1.931   2.672   1.573  0.00  0.00    -0.266 N 
ATOM     16  C   UNL     1      -1.486   3.719   2.299  0.00  0.00    +0.234 C 
ATOM     17  O   UNL     1      -0.740   4.596   1.917  0.00  0.00    -0.274 OA
ATOM     18  C   UNL     1      -2.959   4.810   3.985  0.00  0.00    +0.199 C 
ATOM     19  C   UNL     1      -2.126   6.035   4.219  0.00  0.00    +0.055 C 
ATOM     20  C   UNL     1      -0.810   5.995   4.543  0.00  0.00    +0.074 C 
ENDROOT
BRANCH  19  21
ATOM     21  N   UNL     1      -2.726   7.258   4.100  0.00  0.00    -0.358 N 
ATOM     22  H   UNL     1      -2.142   8.175   4.266  0.00  0.00    +0.142 HD
ATOM     23  H   UNL     1      -3.792   7.324   3.838  0.00  0.00    +0.142 HD
ENDBRANCH  19  21
BRANCH  20  24
ATOM     24  C   UNL     1      -0.087   7.209   4.776  0.00  0.00    +0.101 C 
ATOM     25  N   UNL     1       0.486   8.172   4.961  0.00  0.00    -0.191 NA
ENDBRANCH  20  24
BRANCH  18  26
ATOM     26  C   UNL     1      -3.863   5.054   2.849  0.00  0.00    +0.092 C 
ATOM     27  N   UNL     1      -4.561   5.242   1.973  0.00  0.00    -0.194 NA
ENDBRANCH  18  26
BRANCH  18  28
ATOM     28  C   UNL     1      -3.763   4.539   5.188  0.00  0.00    +0.092 C 
ATOM     29  N   UNL     1      -4.384   4.329   6.116  0.00  0.00    -0.194 NA
ENDBRANCH  18  28
BRANCH  15  30
ATOM     30  C   UNL     1      -1.568   2.431   0.174  0.00  0.00    +0.148 C 
BRANCH  30  31
ATOM     31  C   UNL     1      -0.422   1.454   0.114  0.00  0.00    -0.030 A 
ATOM     32  C   UNL     1       0.871   1.914  -0.044  0.00  0.00    +0.005 A 
ATOM     33  C   UNL     1       1.921   1.017  -0.107  0.00  0.00    +0.000 A 
ATOM     34  C   UNL     1       1.678  -0.340  -0.011  0.00  0.00    +0.000 A 
ATOM     35  C   UNL     1       0.384  -0.800   0.148  0.00  0.00    +0.000 A 
ATOM     36  C   UNL     1      -0.666   0.097   0.210  0.00  0.00    +0.005 A 
ENDBRANCH  30  31
ENDBRANCH  15  30
TORSDOF 6
