REMARK  Name = ZINC23483300
REMARK  12 active torsions:
REMARK  status: ('A' for Active; 'I' for Inactive)
REMARK    1  A    between atoms: C_1  and  C_2
REMARK    2  A    between atoms: C_2  and  C_4
REMARK    3  A    between atoms: C_2  and  N_12
REMARK    4  A    between atoms: C_13  and  C_15
REMARK    5  A    between atoms: C_15  and  S_16
REMARK    6  A    between atoms: S_16  and  C_17
REMARK    7  A    between atoms: C_20  and  C_29
REMARK    8  A    between atoms: N_21  and  C_22
REMARK    9  A    between atoms: C_29  and  C_31
REMARK   10  A    between atoms: C_29  and  N_32
REMARK   11  A    between atoms: N_32  and  C_33
REMARK   12  A    between atoms: N_32  and  C_34
REMARK                            x       y       z     vdW  Elec       q    Type
REMARK                         _______ _______ _______ _____ _____    ______ ____
ROOT
ATOM      1  C   UNL     1      -3.488   5.679  -3.601  0.00  0.00    +0.197 A 
ATOM      2  N   UNL     1      -3.517   4.884  -4.645  0.00  0.00    -0.122 NA
ATOM      3  N   UNL     1      -4.170   5.441  -5.602  0.00  0.00    -0.135 NA
ATOM      4  C   UNL     1      -4.593   6.617  -5.231  0.00  0.00    +0.125 A 
ATOM      5  N   UNL     1      -4.179   6.810  -3.940  0.00  0.00    -0.275 N 
ENDROOT
BRANCH   5   6
ATOM      6  C   UNL     1      -4.412   7.935  -3.134  0.00  0.00    +0.050 A 
ATOM      7  C   UNL     1      -5.707   8.260  -2.752  0.00  0.00    +0.029 A 
ATOM      8  C   UNL     1      -5.934   9.364  -1.954  0.00  0.00    +0.040 A 
ATOM      9  C   UNL     1      -4.873  10.153  -1.544  0.00  0.00    +0.124 A 
ATOM     10  C   UNL     1      -3.581   9.834  -1.929  0.00  0.00    +0.040 A 
ATOM     11  C   UNL     1      -3.350   8.727  -2.722  0.00  0.00    +0.029 A 
ATOM     12  F   UNL     1      -5.097  11.236  -0.768  0.00  0.00    -0.205 F 
ENDBRANCH   5   6
BRANCH   4  13
ATOM     13  C   UNL     1      -5.396   7.581  -6.066  0.00  0.00    -0.003 C 
ATOM     14  C   UNL     1      -6.842   7.092  -6.161  0.00  0.00    -0.005 C 
BRANCH  13  15
ATOM     15  N   UNL     1      -4.816   7.662  -7.413  0.00  0.00    +0.382 N 
ATOM     16  C   UNL     1      -4.956   6.385  -8.124  0.00  0.00    -0.096 C 
ATOM     17  C   UNL     1      -5.419   8.761  -8.180  0.00  0.00    -0.096 C 
ATOM     18  H   UNL     1      -3.742   7.874  -7.306  0.00  0.00    -0.082 HD
ENDBRANCH  13  15
ENDBRANCH   4  13
BRANCH   1  19
ATOM     19  S   UNL     1      -2.711   5.350  -2.054  0.00  0.00    -0.076 S 
BRANCH  19  20
ATOM     20  C   UNL     1      -2.041   3.701  -2.384  0.00  0.00    +0.173 C 
BRANCH  20  22
ATOM     21  N   UNL     1      -0.727   1.988  -1.177  0.00  0.00    -0.308 N 
ATOM     22  C   UNL     1      -1.312   3.202  -1.163  0.00  0.00    +0.224 C 
ATOM     23  O   UNL     1      -1.252   3.893  -0.168  0.00  0.00    -0.275 OA
ATOM     24  H   UNL     1      -0.781   1.362  -2.079  0.00  0.00    +0.149 HD
BRANCH  21  26
ATOM     25  C   UNL     1       1.417   2.032  -0.001  0.00  0.00    +0.033 C 
ATOM     26  C   UNL     1      -0.018   1.503   0.010  0.00  0.00    +0.102 C 
BRANCH  26  27
ATOM     27  C   UNL     1       0.002  -0.004   0.002  0.00  0.00    -0.009 A 
ATOM     28  C   UNL     1      -0.110  -0.690  -1.193  0.00  0.00    +0.008 A 
ATOM     29  C   UNL     1      -0.086  -2.072  -1.202  0.00  0.00    +0.020 A 
ATOM     30  C   UNL     1       0.040  -2.770  -0.013  0.00  0.00    +0.042 A 
ATOM     31  C   UNL     1       0.146  -2.084   1.183  0.00  0.00    +0.040 A 
ATOM     32  C   UNL     1       0.127  -0.701   1.191  0.00  0.00    +0.047 A 
ATOM     33 CL   UNL     1       0.260   0.161   2.692  0.00  0.00    -0.083 Cl
ATOM     34 CL   UNL     1       0.064  -4.505  -0.024  0.00  0.00    -0.083 Cl
ENDBRANCH  26  27
ENDBRANCH  21  26
ENDBRANCH  20  22
ENDBRANCH  19  20
ENDBRANCH   1  19
TORSDOF 8
