REMARK  Name = ZINC39491164
REMARK  14 active torsions:
REMARK  status: ('A' for Active; 'I' for Inactive)
REMARK    1  A    between atoms: C_1  and  C_2
REMARK    2  A    between atoms: C_2  and  C_3
REMARK    3  A    between atoms: C_3  and  N_4
REMARK    4  A    between atoms: N_4  and  C_5
REMARK    5  A    between atoms: C_5  and  C_6
REMARK    6  A    between atoms: N_8  and  C_19
REMARK    7  A    between atoms: C_12  and  C_15
REMARK    8  A    between atoms: C_15  and  O_17
REMARK    9  A    between atoms: O_17  and  C_18
REMARK   10  A    between atoms: C_19  and  C_20
REMARK   11  A    between atoms: C_20  and  C_22
REMARK   12  A    between atoms: C_20  and  S_29
REMARK   13  A    between atoms: C_22  and  C_23
REMARK   14  A    between atoms: S_29  and  C_32
REMARK                            x       y       z     vdW  Elec       q    Type
REMARK                         _______ _______ _______ _____ _____    ______ ____
ROOT
ATOM      1  C   UNL     1       2.561  -2.867  -2.477  0.00  0.00    -0.039 A 
ATOM      2  C   UNL     1       3.210  -3.984  -2.116  0.00  0.00    +0.088 A 
ATOM      3  N   UNL     1       2.422  -5.079  -2.348  0.00  0.00    -0.345 N 
ATOM      4  C   UNL     1       1.216  -4.686  -2.877  0.00  0.00    +0.049 A 
ATOM      5  C   UNL     1       1.246  -3.280  -2.977  0.00  0.00    +0.002 A 
ATOM      6  C   UNL     1       0.144  -2.594  -3.480  0.00  0.00    +0.025 A 
ATOM      7  C   UNL     1      -0.982  -3.309  -3.878  0.00  0.00    +0.060 A 
ATOM      8  C   UNL     1      -1.001  -4.707  -3.771  0.00  0.00    +0.017 A 
ATOM      9  C   UNL     1       0.081  -5.381  -3.286  0.00  0.00    +0.027 A 
ENDROOT
BRANCH   7  10
ATOM     10  C   UNL     1      -2.157  -2.595  -4.413  0.00  0.00    +0.339 C 
ATOM     11  O   UNL     1      -2.142  -1.384  -4.506  0.00  0.00    -0.245 OA
BRANCH  10  12
ATOM     12  O   UNL     1      -3.248  -3.287  -4.799  0.00  0.00    -0.464 OA
ATOM     13  C   UNL     1      -4.349  -2.531  -5.307  0.00  0.00    +0.280 C 
ENDBRANCH  10  12
ENDBRANCH   7  10
BRANCH   1  14
ATOM     14  C   UNL     1       3.082  -1.456  -2.382  0.00  0.00    -0.045 C 
BRANCH  14  15
ATOM     15  N   UNL     1       2.533  -0.811  -1.181  0.00  0.00    +0.382 N 
ATOM     16  H   UNL     1       2.815  -1.330  -0.363  0.00  0.00    -0.085 HD
ATOM     17  H   UNL     1       1.526  -0.795  -1.239  0.00  0.00    -0.085 HD
BRANCH  15  18
ATOM     18  C   UNL     1       3.041   0.564  -1.089  0.00  0.00    -0.082 C 
BRANCH  18  20
ATOM     19  C   UNL     1       2.998   2.667   0.259  0.00  0.00    +0.002 C 
ATOM     20  C   UNL     1       2.469   1.235   0.162  0.00  0.00    -0.022 C 
ENDBRANCH  18  20
ENDBRANCH  15  18
ENDBRANCH  14  15
ENDBRANCH   1  14
BRANCH   3  21
ATOM     21  C   UNL     1       2.807  -6.465  -2.074  0.00  0.00    +0.148 C 
BRANCH  21  22
ATOM     22  C   UNL     1       3.256  -7.136  -3.373  0.00  0.00    +0.160 C 
BRANCH  22  23
ATOM     23  S   UNL     1       3.632  -8.882  -3.053  0.00  0.00    +0.002 S 
ATOM     24  O   UNL     1       3.733  -9.594  -4.279  0.00  0.00    -0.169 OA
ATOM     25  O   UNL     1       4.650  -8.991  -2.067  0.00  0.00    -0.169 OA
BRANCH  23  26
ATOM     26  C   UNL     1       2.185  -9.523  -2.279  0.00  0.00    +0.089 A 
ATOM     27  C   UNL     1       2.040  -9.436  -0.907  0.00  0.00    +0.027 A 
ATOM     28  C   UNL     1       0.904  -9.938  -0.299  0.00  0.00    +0.002 A 
ATOM     29  C   UNL     1      -0.086 -10.527  -1.063  0.00  0.00    +0.000 A 
ATOM     30  C   UNL     1       0.059 -10.612  -2.435  0.00  0.00    +0.002 A 
ATOM     31  C   UNL     1       1.193 -10.106  -3.043  0.00  0.00    +0.027 A 
ENDBRANCH  23  26
ENDBRANCH  22  23
BRANCH  22  32
ATOM     32  C   UNL     1       4.508  -6.434  -3.903  0.00  0.00    +0.063 C 
BRANCH  32  33
ATOM     33  C   UNL     1       4.863  -6.994  -5.257  0.00  0.00    -0.045 A 
ATOM     34  C   UNL     1       5.817  -7.987  -5.365  0.00  0.00    +0.004 A 
ATOM     35  C   UNL     1       6.143  -8.501  -6.607  0.00  0.00    +0.000 A 
ATOM     36  C   UNL     1       5.513  -8.020  -7.740  0.00  0.00    +0.000 A 
ATOM     37  C   UNL     1       4.558  -7.027  -7.631  0.00  0.00    +0.000 A 
ATOM     38  C   UNL     1       4.230  -6.517  -6.389  0.00  0.00    +0.004 A 
ENDBRANCH  32  33
ENDBRANCH  22  32
ENDBRANCH  21  22
ENDBRANCH   3  21
TORSDOF 12
