REMARK  Name = ZINC09469267
REMARK  11 active torsions:
REMARK  status: ('A' for Active; 'I' for Inactive)
REMARK    1  A    between atoms: C_1  and  C_2
REMARK    2  A    between atoms: C_2  and  C_3
REMARK    3  A    between atoms: C_3  and  C_5
REMARK    4  A    between atoms: C_3  and  N_6
REMARK    5  A    between atoms: C_10  and  C_12
REMARK    6  A    between atoms: C_12  and  S_13
REMARK    7  A    between atoms: S_13  and  C_14
REMARK    8  A    between atoms: C_17  and  C_26
REMARK    9  A    between atoms: N_18  and  C_19
REMARK   10  A    between atoms: C_26  and  C_28
REMARK   11  A    between atoms: C_26  and  N_63
REMARK                            x       y       z     vdW  Elec       q    Type
REMARK                         _______ _______ _______ _____ _____    ______ ____
ROOT
ATOM      1  C   UNL     1      -1.383  -2.364   0.003  0.00  0.00    +0.197 A 
ATOM      2  N   UNL     1      -0.205  -2.945  -0.011  0.00  0.00    -0.122 NA
ATOM      3  N   UNL     1      -0.347  -4.222  -0.016  0.00  0.00    -0.135 NA
ATOM      4  C   UNL     1      -1.612  -4.533  -0.006  0.00  0.00    +0.125 A 
ATOM      5  N   UNL     1      -2.320  -3.361   0.012  0.00  0.00    -0.275 N 
ENDROOT
BRANCH   5   6
ATOM      6  C   UNL     1      -3.715  -3.212   0.032  0.00  0.00    +0.050 A 
ATOM      7  C   UNL     1      -4.445  -3.653   1.127  0.00  0.00    +0.029 A 
ATOM      8  C   UNL     1      -5.817  -3.500   1.148  0.00  0.00    +0.040 A 
ATOM      9  C   UNL     1      -6.467  -2.919   0.072  0.00  0.00    +0.124 A 
ATOM     10  C   UNL     1      -5.741  -2.485  -1.024  0.00  0.00    +0.040 A 
ATOM     11  C   UNL     1      -4.367  -2.630  -1.046  0.00  0.00    +0.029 A 
ATOM     12  F   UNL     1      -7.810  -2.776   0.091  0.00  0.00    -0.205 F 
ENDBRANCH   5   6
BRANCH   4  13
ATOM     13  C   UNL     1      -2.190  -5.925  -0.007  0.00  0.00    -0.002 C 
ATOM     14  C   UNL     1      -2.027  -6.546   1.381  0.00  0.00    -0.005 C 
BRANCH  13  20
ATOM     15  C   UNL     1      -1.533  -6.129  -2.328  0.00  0.00    -0.078 C 
ATOM     16  C   UNL     1      -0.668  -6.934  -3.300  0.00  0.00    -0.019 C 
ATOM     17  C   UNL     1      -1.187  -8.373  -3.366  0.00  0.00    -0.004 C 
ATOM     18  C   UNL     1      -1.170  -8.979  -1.960  0.00  0.00    -0.019 C 
ATOM     19  C   UNL     1      -2.021  -8.114  -1.027  0.00  0.00    -0.078 C 
ATOM     20  N   UNL     1      -1.454  -6.749  -0.989  0.00  0.00    +0.386 N 
ATOM     21  H   UNL     1      -0.469  -6.805  -0.705  0.00  0.00    -0.081 HD
ENDBRANCH  13  20
ENDBRANCH   4  13
BRANCH   1  22
ATOM     22  S   UNL     1      -1.696  -0.631   0.015  0.00  0.00    -0.076 S 
BRANCH  22  23
ATOM     23  C   UNL     1       0.002  -0.004   0.002  0.00  0.00    +0.173 C 
BRANCH  23  28
ATOM     24  N   UNL     1       2.279   4.230   0.003  0.00  0.00    -0.297 N 
ATOM     25  C   UNL     1       1.121   3.540   0.010  0.00  0.00    +0.306 C 
ATOM     26  O   UNL     1       0.061   4.133   0.024  0.00  0.00    -0.252 OA
ATOM     27  N   UNL     1       1.139   2.192   0.003  0.00  0.00    -0.239 N 
ATOM     28  C   UNL     1      -0.018   1.503   0.010  0.00  0.00    +0.231 C 
ATOM     29  O   UNL     1      -1.076   2.095   0.018  0.00  0.00    -0.274 OA
ATOM     30  H   UNL     1       3.126   3.756  -0.008  0.00  0.00    +0.151 HD
ATOM     31  H   UNL     1       1.986   1.719  -0.008  0.00  0.00    +0.159 HD
BRANCH  24  32
ATOM     32  C   UNL     1       2.259   5.695   0.011  0.00  0.00    +0.071 C 
ATOM     33  C   UNL     1       2.140   6.195   1.452  0.00  0.00    +0.028 C 
BRANCH  32  35
ATOM     34  C   UNL     1       3.613   5.830  -2.085  0.00  0.00    +0.005 C 
ATOM     35  C   UNL     1       3.554   6.226  -0.608  0.00  0.00    +0.019 C 
ENDBRANCH  32  35
ENDBRANCH  24  32
ENDBRANCH  23  28
ENDBRANCH  22  23
ENDBRANCH   1  22
TORSDOF 8
