REMARK  Name = ZINC12760820
REMARK  9 active torsions:
REMARK  status: ('A' for Active; 'I' for Inactive)
REMARK    1  A    between atoms: C_1  and  C_2
REMARK    2  A    between atoms: C_2  and  C_3
REMARK    3  A    between atoms: C_2  and  C_4
REMARK    4  A    between atoms: C_7  and  C_10
REMARK    5  A    between atoms: C_10  and  N_55
REMARK    6  A    between atoms: C_11  and  N_55
REMARK    7  A    between atoms: C_12  and  C_13
REMARK    8  A    between atoms: C_12  and  N_55
REMARK    9  A    between atoms: C_17  and  C_26
REMARK                            x       y       z     vdW  Elec       q    Type
REMARK                         _______ _______ _______ _____ _____    ______ ____
ROOT
ATOM      1  C   UNL     1      -1.181   2.150   0.019  0.00  0.00    +0.203 C 
ATOM      2  O   UNL     1      -2.232   1.556  -0.090  0.00  0.00    -0.277 OA
ATOM      3  N   UNL     1      -0.019   1.467   0.032  0.00  0.00    -0.266 N 
ATOM      4  C   UNL     1       1.277   2.167   0.035  0.00  0.00    +0.168 C 
ATOM      5  C   UNL     1       2.211   1.418  -0.927  0.00  0.00    +0.276 C 
ATOM      6  O   UNL     1       2.329   0.062  -0.492  0.00  0.00    -0.476 OA
ATOM      7  C   UNL     1       1.184  -0.618  -0.220  0.00  0.00    +0.143 A 
ATOM      8  C   UNL     1      -0.002   0.062   0.048  0.00  0.00    +0.078 A 
ATOM      9  C   UNL     1      -1.161  -0.644   0.328  0.00  0.00    +0.027 A 
ATOM     10  C   UNL     1      -1.140  -2.026   0.339  0.00  0.00    +0.002 A 
ATOM     11  C   UNL     1       0.035  -2.704   0.072  0.00  0.00    +0.004 A 
ATOM     12  C   UNL     1       1.195  -2.004  -0.207  0.00  0.00    +0.047 A 
ENDROOT
BRANCH   5  13
ATOM     13  C   UNL     1       3.570   2.070  -0.922  0.00  0.00    +0.253 C 
ATOM     14  O   UNL     1       4.532   1.462  -0.505  0.00  0.00    -0.272 OA
ATOM     15  N   UNL     1       3.714   3.329  -1.381  0.00  0.00    -0.326 N 
ATOM     16  H   UNL     1       2.944   3.816  -1.714  0.00  0.00    +0.145 HD
ATOM     17  H   UNL     1       4.589   3.749  -1.377  0.00  0.00    +0.145 HD
ENDBRANCH   5  13
BRANCH   1  18
ATOM     18  C   UNL     1      -1.172   3.652   0.141  0.00  0.00    +0.019 C 
BRANCH  18  20
ATOM     19  C   UNL     1      -3.176   3.694   1.500  0.00  0.00    -0.095 C 
ATOM     20  N   UNL     1      -2.568   4.131   0.226  0.00  0.00    +0.386 N 
ATOM     21  H   UNL     1      -3.105   3.734  -0.554  0.00  0.00    -0.081 HD
BRANCH  20  22
ATOM     22  C   UNL     1      -2.603   5.606   0.130  0.00  0.00    -0.043 C 
BRANCH  22  26
ATOM     23  C   UNL     1      -6.667   6.867  -0.248  0.00  0.00    -0.045 A 
ATOM     24  C   UNL     1      -6.091   6.756   1.004  0.00  0.00    +0.004 A 
ATOM     25  C   UNL     1      -4.776   6.348   1.126  0.00  0.00    +0.002 A 
ATOM     26  C   UNL     1      -4.037   6.051  -0.003  0.00  0.00    -0.064 A 
ATOM     27  C   UNL     1      -4.611   6.167  -1.255  0.00  0.00    +0.002 A 
ATOM     28  C   UNL     1      -5.927   6.571  -1.377  0.00  0.00    +0.004 A 
BRANCH  23  30
ATOM     29  C   UNL     1      -8.162   8.596  -1.210  0.00  0.00    +0.012 C 
ATOM     30  C   UNL     1      -8.101   7.311  -0.381  0.00  0.00    +0.013 C 
ATOM     31  C   UNL     1      -8.911   6.216  -1.077  0.00  0.00    +0.012 C 
ENDBRANCH  23  30
ENDBRANCH  22  26
ENDBRANCH  20  22
ENDBRANCH  18  20
ENDBRANCH   1  18
TORSDOF 6
