REMARK  Name = ZINC18071692
REMARK  10 active torsions:
REMARK  status: ('A' for Active; 'I' for Inactive)
REMARK    1  A    between atoms: C_1  and  C_2
REMARK    2  A    between atoms: C_2  and  O_3
REMARK    3  A    between atoms: O_3  and  C_4
REMARK    4  A    between atoms: C_7  and  O_10
REMARK    5  A    between atoms: O_10  and  C_11
REMARK    6  A    between atoms: C_11  and  C_13
REMARK    7  A    between atoms: C_11  and  C_14
REMARK    8  A    between atoms: N_16  and  N_17
REMARK    9  A    between atoms: C_18  and  C_20
REMARK   10  A    between atoms: N_26  and  C_27
REMARK                            x       y       z     vdW  Elec       q    Type
REMARK                         _______ _______ _______ _____ _____    ______ ____
ROOT
ATOM      1  N   UNL     1       1.590   1.240   1.058  0.00  0.00    -0.229 N 
ATOM      2  C   UNL     1       2.599   0.371   0.848  0.00  0.00    +0.278 C 
ATOM      3  O   UNL     1       2.366  -0.820   0.758  0.00  0.00    -0.267 OA
ATOM      4  H   UNL     1       1.782   2.182   1.192  0.00  0.00    +0.173 HD
ENDROOT
BRANCH   2   5
ATOM      5  C   UNL     1       3.976   0.860   0.729  0.00  0.00    +0.128 A 
ATOM      6  C   UNL     1       5.091   0.101   0.642  0.00  0.00    +0.116 A 
ATOM      7  N   UNL     1       6.166   0.944   0.542  0.00  0.00    -0.339 N 
ATOM      8  H   UNL     1       7.093   0.671   0.463  0.00  0.00    +0.167 HD
ATOM      9  C   UNL     1       5.723   2.215   0.576  0.00  0.00    +0.163 A 
ATOM     10  S   UNL     1       6.702   3.617   0.489  0.00  0.00    -0.013 S 
ATOM     11  N   UNL     1       4.381   2.198   0.691  0.00  0.00    -0.284 N 
BRANCH  11  12
ATOM     12  C   UNL     1       3.542   3.319   0.759  0.00  0.00    +0.049 A 
ATOM     13  C   UNL     1       2.676   3.604  -0.288  0.00  0.00    +0.029 A 
ATOM     14  C   UNL     1       1.847   4.706  -0.216  0.00  0.00    +0.040 A 
ATOM     15  C   UNL     1       1.886   5.532   0.894  0.00  0.00    +0.124 A 
ATOM     16  C   UNL     1       2.752   5.252   1.937  0.00  0.00    +0.040 A 
ATOM     17  C   UNL     1       3.580   4.149   1.872  0.00  0.00    +0.029 A 
ATOM     18  F   UNL     1       1.077   6.612   0.960  0.00  0.00    -0.205 F 
ENDBRANCH  11  12
ENDBRANCH   2   5
BRANCH   1  21
ATOM     19  C   UNL     1      -0.743   1.655   1.285  0.00  0.00    +0.270 C 
ATOM     20  O   UNL     1      -0.503   2.832   1.453  0.00  0.00    -0.270 OA
ATOM     21  N   UNL     1       0.266   0.784   1.081  0.00  0.00    -0.231 N 
ATOM     22  H   UNL     1       0.074  -0.157   0.947  0.00  0.00    +0.173 HD
BRANCH  19  23
ATOM     23  C   UNL     1      -2.168   1.166   1.305  0.00  0.00    +0.257 C 
ATOM     24  C   UNL     1      -2.370   0.230   2.498  0.00  0.00    +0.062 C 
BRANCH  23  25
ATOM     25  O   UNL     1      -3.053   2.281   1.420  0.00  0.00    -0.480 OA
BRANCH  25  29
ATOM     26  C   UNL     1      -6.907   1.767   0.033  0.00  0.00    +0.121 A 
ATOM     27  C   UNL     1      -6.016   0.704   0.016  0.00  0.00    +0.049 A 
ATOM     28  C   UNL     1      -4.727   0.876   0.480  0.00  0.00    +0.049 A 
ATOM     29  C   UNL     1      -4.323   2.112   0.963  0.00  0.00    +0.122 A 
ATOM     30  C   UNL     1      -5.215   3.174   0.984  0.00  0.00    +0.049 A 
ATOM     31  C   UNL     1      -6.503   3.003   0.516  0.00  0.00    +0.049 A 
BRANCH  26  32
ATOM     32  O   UNL     1      -8.177   1.598  -0.425  0.00  0.00    -0.492 OA
BRANCH  32  34
ATOM     33  C   UNL     1     -10.415   2.355  -0.931  0.00  0.00    +0.048 C 
ATOM     34  C   UNL     1      -9.040   2.735  -0.379  0.00  0.00    +0.225 C 
ENDBRANCH  32  34
ENDBRANCH  26  32
ENDBRANCH  25  29
ENDBRANCH  23  25
ENDBRANCH  19  23
ENDBRANCH   1  21
TORSDOF 8
