REMARK  Name = ZINC21762292
REMARK  5 active torsions:
REMARK  status: ('A' for Active; 'I' for Inactive)
REMARK    1  A    between atoms: C_1  and  C_2
REMARK    2  A    between atoms: C_2  and  C_4
REMARK    3  A    between atoms: C_2  and  S_23
REMARK    4  A    between atoms: N_6  and  C_7
REMARK    5  A    between atoms: S_23  and  C_24
REMARK                            x       y       z     vdW  Elec       q    Type
REMARK                         _______ _______ _______ _____ _____    ______ ____
ROOT
ATOM      1  C   UNL     1      -3.773  10.168  -0.011  0.00  0.00    +0.230 C 
ATOM      2  O   UNL     1      -4.816   9.549  -0.005  0.00  0.00    -0.274 OA
ATOM      3  N   UNL     1      -2.599   9.513   0.076  0.00  0.00    -0.285 N 
ATOM      4  H   UNL     1      -1.658  10.078   0.146  0.00  0.00    +0.155 HD
ENDROOT
BRANCH   3   5
ATOM      5  C   UNL     1      -2.577   8.119   0.077  0.00  0.00    +0.034 A 
ATOM      6  C   UNL     1      -1.532   7.442  -0.541  0.00  0.00    +0.024 A 
ATOM      7  C   UNL     1      -1.500   6.062  -0.546  0.00  0.00    +0.014 A 
ATOM      8  C   UNL     1      -2.520   5.339   0.071  0.00  0.00    +0.033 A 
ATOM      9  C   UNL     1      -3.580   6.021   0.698  0.00  0.00    +0.035 A 
ATOM     10  C   UNL     1      -3.603   7.410   0.698  0.00  0.00    +0.035 A 
ATOM     11  C   UNL     1      -4.664   5.259   1.355  0.00  0.00    +0.195 C 
ATOM     12  O   UNL     1      -5.580   5.847   1.896  0.00  0.00    -0.287 OA
ATOM     13  C   UNL     1      -4.633   3.781   1.351  0.00  0.00    +0.033 A 
ATOM     14  C   UNL     1      -5.649   3.056   1.967  0.00  0.00    +0.012 A 
ATOM     15  C   UNL     1      -5.611   1.673   1.959  0.00  0.00    +0.001 A 
ATOM     16  C   UNL     1      -4.569   1.004   1.342  0.00  0.00    +0.001 A 
ATOM     17  C   UNL     1      -3.548   1.710   0.730  0.00  0.00    +0.012 A 
ATOM     18  C   UNL     1      -3.573   3.102   0.724  0.00  0.00    +0.033 A 
ATOM     19  C   UNL     1      -2.490   3.864   0.068  0.00  0.00    +0.195 C 
ATOM     20  O   UNL     1      -1.575   3.276  -0.474  0.00  0.00    -0.287 OA
ENDBRANCH   3   5
BRANCH   1  22
ATOM     21  C   UNL     1      -3.597  12.283   1.272  0.00  0.00    +0.029 C 
ATOM     22  C   UNL     1      -3.791  11.672  -0.117  0.00  0.00    +0.137 C 
BRANCH  22  23
ATOM     23  S   UNL     1      -5.380  12.210  -0.796  0.00  0.00    -0.073 S 
BRANCH  23  24
ATOM     24  C   UNL     1      -5.077  13.939  -0.950  0.00  0.00    +0.192 A 
ATOM     25  N   UNL     1      -6.032  14.727  -1.430  0.00  0.00    -0.207 NA
ATOM     26  C   UNL     1      -5.863  16.031  -1.568  0.00  0.00    +0.129 A 
ATOM     27  C   UNL     1      -4.622  16.616  -1.192  0.00  0.00    +0.047 A 
ATOM     28  C   UNL     1      -4.197  18.005  -1.247  0.00  0.00    +0.021 A 
ATOM     29  C   UNL     1      -2.963  18.329  -0.834  0.00  0.00    +0.048 A 
ATOM     30  S   UNL     1      -2.268  16.766  -0.332  0.00  0.00    -0.077 S 
ATOM     31  C   UNL     1      -3.654  15.719  -0.691  0.00  0.00    +0.114 A 
ATOM     32  N   UNL     1      -3.902  14.429  -0.579  0.00  0.00    -0.215 NA
ATOM     33  N   UNL     1      -6.882  16.819  -2.072  0.00  0.00    -0.343 N 
ATOM     34  H   UNL     1      -6.735  17.903  -2.184  0.00  0.00    +0.144 HD
ATOM     35  H   UNL     1      -7.840  16.360  -2.360  0.00  0.00    +0.144 HD
ENDBRANCH  23  24
ENDBRANCH  22  23
ENDBRANCH   1  22
TORSDOF 4
