REMARK  Name = ZINC36773500
REMARK  10 active torsions:
REMARK  status: ('A' for Active; 'I' for Inactive)
REMARK    1  A    between atoms: C_1  and  C_2
REMARK    2  A    between atoms: C_2  and  C_3
REMARK    3  A    between atoms: C_3  and  N_4
REMARK    4  A    between atoms: C_8  and  S_28
REMARK    5  A    between atoms: C_12  and  S_13
REMARK    6  A    between atoms: S_13  and  C_14
REMARK    7  A    between atoms: C_14  and  C_15
REMARK    8  A    between atoms: C_21  and  C_27
REMARK    9  A    between atoms: C_22  and  C_26
REMARK   10  A    between atoms: S_28  and  N_31
REMARK                            x       y       z     vdW  Elec       q    Type
REMARK                         _______ _______ _______ _____ _____    ______ ____
ROOT
ATOM      1  N   UNL     1       0.738  -1.962  -1.265  0.00  0.00    -0.319 N 
ATOM      2  C   UNL     1       1.718  -2.774  -0.716  0.00  0.00    +0.070 A 
ATOM      3  C   UNL     1       2.901  -2.527  -0.037  0.00  0.00    +0.030 A 
ATOM      4  C   UNL     1       3.679  -3.582   0.394  0.00  0.00    +0.030 A 
ATOM      5  C   UNL     1       3.285  -4.890   0.151  0.00  0.00    +0.107 A 
ATOM      6  C   UNL     1       2.113  -5.154  -0.522  0.00  0.00    +0.058 A 
ATOM      7  C   UNL     1       1.314  -4.096  -0.964  0.00  0.00    +0.092 A 
ATOM      8  N   UNL     1       0.135  -4.035  -1.637  0.00  0.00    -0.222 NA
ATOM      9  C   UNL     1      -0.209  -2.783  -1.810  0.00  0.00    +0.170 A 
ENDROOT
BRANCH   5  10
ATOM     10  S   UNL     1       4.293  -6.224   0.708  0.00  0.00    +0.056 S 
ATOM     11  O   UNL     1       3.984  -7.338  -0.118  0.00  0.00    -0.153 OA
ATOM     12  O   UNL     1       5.612  -5.712   0.834  0.00  0.00    -0.153 OA
BRANCH  10  13
ATOM     13  N   UNL     1       3.788  -6.614   2.236  0.00  0.00    -0.204 NA
ATOM     14  H   UNL     1       3.058  -6.123   2.646  0.00  0.00    +0.144 HD
ATOM     15  H   UNL     1       4.222  -7.332   2.722  0.00  0.00    +0.144 HD
ENDBRANCH  10  13
ENDBRANCH   5  10
BRANCH   1  16
ATOM     16  C   UNL     1       0.718  -0.497  -1.257  0.00  0.00    +0.124 C 
BRANCH  16  18
ATOM     17  C   UNL     1      -0.019   1.526   0.010  0.00  0.00    +0.005 C 
ATOM     18  C   UNL     1       0.002  -0.004   0.002  0.00  0.00    +0.018 C 
ENDBRANCH  16  18
ENDBRANCH   1  16
BRANCH   9  19
ATOM     19  S   UNL     1      -1.671  -2.238  -2.628  0.00  0.00    -0.080 S 
BRANCH  19  20
ATOM     20  C   UNL     1      -2.500  -3.776  -3.115  0.00  0.00    +0.151 C 
BRANCH  20  21
ATOM     21  C   UNL     1      -3.783  -3.449  -3.835  0.00  0.00    +0.121 A 
ATOM     22  N   UNL     1      -4.571  -4.458  -4.286  0.00  0.00    -0.310 N 
ATOM     23  H   UNL     1      -4.297  -5.377  -4.139  0.00  0.00    +0.170 HD
ATOM     24  C   UNL     1      -5.725  -4.210  -4.933  0.00  0.00    +0.260 A 
ATOM     25  O   UNL     1      -6.421  -5.128  -5.331  0.00  0.00    -0.267 OA
ATOM     26  C   UNL     1      -6.123  -2.850  -5.146  0.00  0.00    +0.075 A 
ATOM     27  C   UNL     1      -7.305  -2.329  -5.806  0.00  0.00    -0.026 A 
ATOM     28  C   UNL     1      -7.476  -1.000  -5.892  0.00  0.00    -0.008 A 
ATOM     29  S   UNL     1      -6.032  -0.345  -5.075  0.00  0.00    -0.073 S 
ATOM     30  C   UNL     1      -5.243  -1.874  -4.644  0.00  0.00    +0.116 A 
ATOM     31  N   UNL     1      -4.121  -2.199  -4.009  0.00  0.00    -0.226 NA
ATOM     32  C   UNL     1      -8.614  -0.243  -6.526  0.00  0.00    +0.052 C 
ATOM     33  C   UNL     1      -8.329  -3.268  -6.390  0.00  0.00    +0.045 C 
ENDBRANCH  20  21
ENDBRANCH  19  20
ENDBRANCH   9  19
TORSDOF 7
