REMARK  Name = ZINC39837813
REMARK  5 active torsions:
REMARK  status: ('A' for Active; 'I' for Inactive)
REMARK    1  A    between atoms: C_1  and  C_2
REMARK    2  A    between atoms: C_2  and  O_3
REMARK    3  A    between atoms: O_3  and  C_4
REMARK    4  A    between atoms: C_6  and  C_11
REMARK    5  A    between atoms: C_9  and  O_10
REMARK                            x       y       z     vdW  Elec       q    Type
REMARK                         _______ _______ _______ _____ _____    ______ ____
ROOT
ATOM      1  C   UNL     1       0.654  -4.954  -0.018  0.00  0.00    +0.151 C 
ATOM      2  C   UNL     1       0.899  -5.472  -1.397  0.00  0.00    +0.072 A 
ATOM      3  C   UNL     1       1.188  -4.774  -2.654  0.00  0.00    +0.199 A 
ATOM      4  O   UNL     1       1.447  -3.584  -2.713  0.00  0.00    -0.287 OA
ATOM      5  C   UNL     1       1.136  -5.654  -3.849  0.00  0.00    +0.064 A 
ATOM      6  C   UNL     1       1.190  -5.109  -5.131  0.00  0.00    +0.015 A 
ATOM      7  C   UNL     1       1.136  -5.933  -6.221  0.00  0.00    +0.001 A 
ATOM      8  C   UNL     1       1.026  -7.306  -6.054  0.00  0.00    +0.004 A 
ATOM      9  C   UNL     1       0.972  -7.861  -4.795  0.00  0.00    +0.047 A 
ATOM     10  C   UNL     1       1.029  -7.043  -3.667  0.00  0.00    +0.139 A 
ATOM     11  O   UNL     1       0.985  -7.610  -2.441  0.00  0.00    -0.450 OA
ATOM     12  C   UNL     1       0.807  -6.834  -1.353  0.00  0.00    +0.199 A 
ATOM     13  C   UNL     1       0.499  -7.232   0.031  0.00  0.00    +0.288 C 
ATOM     14  O   UNL     1       0.349  -8.377   0.409  0.00  0.00    -0.266 OA
ATOM     15  N   UNL     1       0.409  -6.139   0.820  0.00  0.00    -0.238 N 
ATOM     16  C   UNL     1       0.133  -6.134   2.185  0.00  0.00    +0.129 A 
ATOM     17  C   UNL     1      -0.038  -4.924   2.848  0.00  0.00    +0.045 A 
ATOM     18  C   UNL     1      -0.313  -4.932   4.204  0.00  0.00    +0.025 A 
ATOM     19  C   UNL     1      -0.406  -6.157   4.854  0.00  0.00    +0.059 A 
ATOM     20  C   UNL     1      -0.225  -7.321   4.131  0.00  0.00    +0.132 A 
ATOM     21  N   UNL     1       0.031  -7.281   2.837  0.00  0.00    -0.238 NA
ATOM     22 CL   UNL     1      -0.748  -6.224   6.554  0.00  0.00    -0.082 Cl
ENDROOT
BRANCH   1  25
ATOM     23  C   UNL     1      -1.498  -1.849   0.006  0.00  0.00    +0.162 A 
ATOM     24  C   UNL     1      -0.389  -2.680  -0.003  0.00  0.00    +0.055 A 
ATOM     25  C   UNL     1      -0.553  -4.052  -0.008  0.00  0.00    -0.018 A 
ATOM     26  C   UNL     1      -1.823  -4.600  -0.005  0.00  0.00    +0.009 A 
ATOM     27  C   UNL     1      -2.934  -3.777   0.004  0.00  0.00    +0.049 A 
ATOM     28  C   UNL     1      -2.776  -2.400   0.016  0.00  0.00    +0.158 A 
BRANCH  28  29
ATOM     29  O   UNL     1      -3.868  -1.589   0.030  0.00  0.00    -0.503 OA
ATOM     30  H   UNL     1      -4.192  -1.350  -0.849  0.00  0.00    +0.292 HD
ENDBRANCH  28  29
BRANCH  23  31
ATOM     31  O   UNL     1      -1.339  -0.499   0.012  0.00  0.00    -0.489 OA
BRANCH  31  33
ATOM     32  C   UNL     1      -0.019   1.526   0.010  0.00  0.00    +0.048 C 
ATOM     33  C   UNL     1       0.002  -0.004   0.002  0.00  0.00    +0.226 C 
ENDBRANCH  31  33
ENDBRANCH  23  31
ENDBRANCH   1  25
TORSDOF 4
