REMARK  Name = ZINC40173006
REMARK  12 active torsions:
REMARK  status: ('A' for Active; 'I' for Inactive)
REMARK    1  A    between atoms: C_1  and  C_2
REMARK    2  A    between atoms: C_2  and  C_3
REMARK    3  A    between atoms: C_3  and  C_5
REMARK    4  A    between atoms: C_3  and  N_23
REMARK    5  A    between atoms: N_7  and  C_8
REMARK    6  A    between atoms: C_9  and  C_21
REMARK    7  A    between atoms: C_10  and  C_13
REMARK    8  A    between atoms: C_16  and  O_19
REMARK    9  A    between atoms: O_19  and  C_20
REMARK   10  A    between atoms: C_27  and  S_28
REMARK   11  A    between atoms: S_28  and  C_29
REMARK   12  A    between atoms: C_29  and  C_30
REMARK                            x       y       z     vdW  Elec       q    Type
REMARK                         _______ _______ _______ _____ _____    ______ ____
ROOT
ATOM      1  C   UNL     1      -1.433  -0.534   0.013  0.00  0.00    +0.178 C 
ENDROOT
BRANCH   1   2
ATOM      2  N   UNL     1      -2.105  -0.148  -1.230  0.00  0.00    -0.279 N 
ATOM      3  C   UNL     1      -1.721  -0.499  -2.493  0.00  0.00    +0.216 A 
ATOM      4  N   UNL     1      -2.568   0.034  -3.338  0.00  0.00    -0.113 NA
ATOM      5  N   UNL     1      -3.524   0.746  -2.602  0.00  0.00    -0.121 NA
ATOM      6  C   UNL     1      -3.231   0.621  -1.330  0.00  0.00    +0.194 A 
ATOM      7  N   UNL     1      -0.623  -1.284  -2.824  0.00  0.00    -0.328 N 
ATOM      8  H   UNL     1      -0.050  -1.635  -2.125  0.00  0.00    +0.145 HD
ATOM      9  H   UNL     1      -0.429  -1.480  -3.754  0.00  0.00    +0.145 HD
BRANCH   6  10
ATOM     10  S   UNL     1      -4.128   1.323   0.014  0.00  0.00    -0.081 S 
BRANCH  10  11
ATOM     11  C   UNL     1      -5.492   2.212  -0.786  0.00  0.00    +0.112 C 
BRANCH  11  12
ATOM     12  C   UNL     1      -6.349   2.869   0.265  0.00  0.00    -0.037 A 
ATOM     13  C   UNL     1      -7.417   2.183   0.813  0.00  0.00    +0.004 A 
ATOM     14  C   UNL     1      -8.203   2.785   1.778  0.00  0.00    +0.000 A 
ATOM     15  C   UNL     1      -7.921   4.072   2.195  0.00  0.00    +0.000 A 
ATOM     16  C   UNL     1      -6.853   4.758   1.647  0.00  0.00    +0.000 A 
ATOM     17  C   UNL     1      -6.064   4.154   0.686  0.00  0.00    +0.004 A 
ENDBRANCH  11  12
ENDBRANCH  10  11
ENDBRANCH   6  10
ENDBRANCH   1   2
BRANCH   1  18
ATOM     18  C   UNL     1      -1.414  -2.036   0.129  0.00  0.00    +0.241 C 
ATOM     19  O   UNL     1      -1.912  -2.718  -0.742  0.00  0.00    -0.273 OA
ATOM     20  N   UNL     1      -0.842  -2.622   1.199  0.00  0.00    -0.277 N 
ATOM     21  H   UNL     1      -0.444  -2.077   1.895  0.00  0.00    +0.155 HD
BRANCH  20  22
ATOM     22  C   UNL     1      -0.824  -4.006   1.306  0.00  0.00    +0.090 A 
ATOM     23  C   UNL     1      -0.295  -4.792   2.322  0.00  0.00    +0.088 A 
ATOM     24  C   UNL     1      -0.418  -6.227   2.172  0.00  0.00    +0.008 A 
ATOM     25  C   UNL     1      -1.036  -6.702   1.060  0.00  0.00    +0.056 A 
ATOM     26  S   UNL     1      -1.480  -5.219   0.177  0.00  0.00    -0.080 S 
BRANCH  24  27
ATOM     27  C   UNL     1       0.115  -7.151   3.202  0.00  0.00    -0.016 A 
ATOM     28  C   UNL     1       1.421  -7.000   3.668  0.00  0.00    +0.012 A 
ATOM     29  C   UNL     1       1.913  -7.860   4.626  0.00  0.00    +0.046 A 
ATOM     30  C   UNL     1       1.111  -8.876   5.127  0.00  0.00    +0.120 A 
ATOM     31  C   UNL     1      -0.189  -9.030   4.666  0.00  0.00    +0.046 A 
ATOM     32  C   UNL     1      -0.690  -8.169   3.711  0.00  0.00    +0.012 A 
BRANCH  30  33
ATOM     33  O   UNL     1       1.600  -9.723   6.072  0.00  0.00    -0.495 OA
ATOM     34  C   UNL     1       0.721 -10.746   6.544  0.00  0.00    +0.277 C 
ENDBRANCH  30  33
ENDBRANCH  24  27
BRANCH  23  35
ATOM     35  C   UNL     1       0.343  -4.210   3.464  0.00  0.00    +0.102 C 
ATOM     36  N   UNL     1       0.849  -3.748   4.371  0.00  0.00    -0.191 NA
ENDBRANCH  23  35
ENDBRANCH  20  22
ENDBRANCH   1  18
BRANCH   1  38
ATOM     37  C   UNL     1      -0.019   1.526   0.010  0.00  0.00    +0.006 C 
ATOM     38  C   UNL     1       0.002  -0.004   0.002  0.00  0.00    +0.031 C 
ENDBRANCH   1  38
TORSDOF 10
