REMARK  Name = ZINC30802279
REMARK  11 active torsions:
REMARK  status: ('A' for Active; 'I' for Inactive)
REMARK    1  A    between atoms: C_1  and  C_2
REMARK    2  A    between atoms: C_4  and  C_33
REMARK    3  A    between atoms: N_10  and  C_11
REMARK    4  A    between atoms: C_11  and  N_13
REMARK    5  A    between atoms: N_13  and  C_14
REMARK    6  A    between atoms: C_19  and  C_20
REMARK    7  A    between atoms: N_22  and  C_23
REMARK    8  A    between atoms: C_25  and  C_31
REMARK    9  A    between atoms: C_25  and  C_32
REMARK   10  A    between atoms: C_27  and  C_29
REMARK   11  A    between atoms: C_27  and  C_30
REMARK                            x       y       z     vdW  Elec       q    Type
REMARK                         _______ _______ _______ _____ _____    ______ ____
ROOT
ATOM      1  C   UNL     1       4.204   0.193   2.338  0.00  0.00    +0.066 C 
ATOM      2  C   UNL     1       3.516  -1.107   2.011  0.00  0.00    +0.044 A 
ATOM      3  C   UNL     1       4.207  -2.126   1.374  0.00  0.00    +0.046 A 
ATOM      4  C   UNL     1       3.536  -3.306   1.093  0.00  0.00    +0.044 A 
ATOM      5  N   UNL     1       2.265  -3.424   1.438  0.00  0.00    -0.217 NA
ATOM      6  C   UNL     1       1.634  -2.431   2.046  0.00  0.00    +0.231 A 
ATOM      7  N   UNL     1       2.247  -1.293   2.334  0.00  0.00    -0.217 NA
ATOM      8  N   UNL     1       0.299  -2.589   2.395  0.00  0.00    -0.297 N 
ATOM      9  C   UNL     1      -0.209  -1.921   3.476  0.00  0.00    +0.196 C 
ATOM     10  N   UNL     1      -0.176  -2.481   4.674  0.00  0.00    -0.159 NA
ATOM     11  N   UNL     1      -0.751  -0.679   3.318  0.00  0.00    -0.355 N 
ATOM     12  C   UNL     1       4.247  -4.441   0.400  0.00  0.00    +0.066 C 
ATOM     13  H   UNL     1      -0.273  -3.172   1.872  0.00  0.00    +0.171 HD
ATOM     14  H   UNL     1      -0.996  -0.154   4.096  0.00  0.00    +0.163 HD
ENDROOT
BRANCH  11  15
ATOM     15  C   UNL     1      -0.964  -0.136   1.970  0.00  0.00    +0.079 C 
ATOM     16  C   UNL     1       0.330   0.520   1.484  0.00  0.00    +0.011 C 
ATOM     17  C   UNL     1       0.122   1.101   0.085  0.00  0.00    -0.071 C 
ATOM     18  N   UNL     1      -1.017   2.005   0.032  0.00  0.00    +0.386 N 
ATOM     19  C   UNL     1      -2.258   1.567   0.652  0.00  0.00    -0.071 C 
ATOM     20  C   UNL     1      -2.053   0.934   2.024  0.00  0.00    +0.011 C 
ATOM     21  C   UNL     1      -3.144   2.820   0.852  0.00  0.00    -0.010 C 
ATOM     22  C   UNL     1      -3.036   0.610  -0.255  0.00  0.00    -0.010 C 
ATOM     23  C   UNL     1       0.012  -0.024  -0.944  0.00  0.00    -0.010 C 
ATOM     24  C   UNL     1       1.386   1.920  -0.264  0.00  0.00    -0.010 C 
ATOM     25  H   UNL     1      -0.741   2.894   0.457  0.00  0.00    -0.084 HD
ATOM     26  H   UNL     1      -1.207   2.225  -0.949  0.00  0.00    -0.084 HD
ENDBRANCH  11  15
BRANCH  10  27
ATOM     27  C   UNL     1      -0.212  -3.816   4.791  0.00  0.00    +0.161 C 
ATOM     28  S   UNL     1      -0.207  -4.799   3.390  0.00  0.00    -0.016 S 
BRANCH  27  29
ATOM     29  N   UNL     1      -0.252  -4.384   6.013  0.00  0.00    -0.295 N 
ATOM     30  H   UNL     1      -0.361  -3.830   6.802  0.00  0.00    +0.154 HD
BRANCH  29  31
ATOM     31  C   UNL     1      -0.136  -5.771   6.143  0.00  0.00    +0.037 A 
ATOM     32  C   UNL     1      -1.262  -6.542   6.405  0.00  0.00    +0.023 A 
ATOM     33  C   UNL     1      -1.145  -7.912   6.533  0.00  0.00    +0.003 A 
ATOM     34  C   UNL     1       0.091  -8.518   6.400  0.00  0.00    +0.020 A 
ATOM     35  C   UNL     1       1.215  -7.753   6.138  0.00  0.00    +0.046 A 
ATOM     36  C   UNL     1       1.103  -6.382   6.004  0.00  0.00    -0.011 A 
ATOM     37  C   UNL     1       2.326  -5.551   5.713  0.00  0.00    +0.047 C 
ATOM     38 CL   UNL     1       2.764  -8.518   5.972  0.00  0.00    -0.083 Cl
ENDBRANCH  29  31
ENDBRANCH  27  29
ENDBRANCH  10  27
TORSDOF 4
