REMARK  Name = ZINC36490192
REMARK  14 active torsions:
REMARK  status: ('A' for Active; 'I' for Inactive)
REMARK    1  A    between atoms: C_1  and  C_2
REMARK    2  A    between atoms: C_2  and  C_3
REMARK    3  A    between atoms: C_3  and  C_4
REMARK    4  A    between atoms: C_4  and  C_5
REMARK    5  A    between atoms: C_5  and  C_6
REMARK    6  A    between atoms: N_8  and  C_9
REMARK    7  A    between atoms: N_8  and  C_15
REMARK    8  A    between atoms: C_15  and  C_17
REMARK    9  A    between atoms: C_15  and  C_24
REMARK   10  A    between atoms: C_22  and  O_23
REMARK   11  A    between atoms: N_26  and  C_27
REMARK   12  A    between atoms: C_27  and  S_28
REMARK   13  A    between atoms: S_28  and  C_31
REMARK   14  A    between atoms: C_34  and  C_37
REMARK                            x       y       z     vdW  Elec       q    Type
REMARK                         _______ _______ _______ _____ _____    ______ ____
ROOT
ATOM      1  C   UNL     1       1.777  -6.253  -3.273  0.00  0.00    +0.196 C 
ENDROOT
BRANCH   1   2
ATOM      2  C   UNL     1       3.086  -6.768  -3.812  0.00  0.00    +0.023 A 
ATOM      3  C   UNL     1       3.127  -7.404  -5.038  0.00  0.00    +0.009 A 
ATOM      4  C   UNL     1       4.328  -7.877  -5.533  0.00  0.00    +0.001 A 
ATOM      5  C   UNL     1       5.491  -7.715  -4.803  0.00  0.00    +0.004 A 
ATOM      6  C   UNL     1       5.456  -7.079  -3.578  0.00  0.00    +0.046 A 
ATOM      7  C   UNL     1       4.253  -6.598  -3.081  0.00  0.00    +0.122 A 
BRANCH   7   8
ATOM      8  O   UNL     1       4.216  -5.968  -1.878  0.00  0.00    -0.506 OA
ATOM      9  H   UNL     1       4.143  -6.566  -1.122  0.00  0.00    +0.292 HD
ENDBRANCH   7   8
ENDBRANCH   1   2
BRANCH   1  10
ATOM     10  C   UNL     1       0.700  -6.432  -4.312  0.00  0.00    +0.239 C 
ATOM     11  O   UNL     1       0.323  -5.481  -4.965  0.00  0.00    -0.273 OA
ATOM     12  N   UNL     1       0.157  -7.648  -4.517  0.00  0.00    -0.294 N 
ATOM     13  H   UNL     1       0.421  -8.397  -3.961  0.00  0.00    +0.150 HD
BRANCH  12  14
ATOM     14  C   UNL     1      -0.834  -7.838  -5.580  0.00  0.00    +0.278 C 
BRANCH  14  15
ATOM     15  S   UNL     1      -0.010  -8.469  -7.068  0.00  0.00    +0.013 S 
ATOM     16  O   UNL     1      -0.964  -8.693  -8.097  0.00  0.00    -0.168 OA
ATOM     17  O   UNL     1       1.173  -7.725  -7.325  0.00  0.00    -0.168 OA
BRANCH  15  18
ATOM     18  C   UNL     1       0.558 -10.077  -6.624  0.00  0.00    +0.090 A 
ATOM     19  C   UNL     1       1.798 -10.233  -6.034  0.00  0.00    +0.027 A 
ATOM     20  C   UNL     1       2.244 -11.495  -5.686  0.00  0.00    +0.005 A 
ATOM     21  C   UNL     1       1.449 -12.599  -5.927  0.00  0.00    -0.050 A 
ATOM     22  C   UNL     1       0.208 -12.443  -6.516  0.00  0.00    +0.005 A 
ATOM     23  C   UNL     1      -0.239 -11.181  -6.861  0.00  0.00    +0.027 A 
ATOM     24  C   UNL     1       1.935 -13.975  -5.548  0.00  0.00    +0.044 C 
ENDBRANCH  15  18
ENDBRANCH  14  15
ENDBRANCH  12  14
ENDBRANCH   1  10
BRANCH   1  27
ATOM     25  C   UNL     1       1.602  -4.392  -1.709  0.00  0.00    +0.217 C 
ATOM     26  O   UNL     1       1.294  -5.184  -0.844  0.00  0.00    -0.276 OA
ATOM     27  N   UNL     1       1.909  -4.831  -2.946  0.00  0.00    -0.283 N 
BRANCH  27  28
ATOM     28  C   UNL     1       2.373  -3.885  -3.965  0.00  0.00    +0.077 C 
ATOM     29  C   UNL     1       2.870  -4.657  -5.188  0.00  0.00    +0.022 C 
ATOM     30  C   UNL     1       3.355  -3.670  -6.252  0.00  0.00    +0.002 C 
ATOM     31  C   UNL     1       2.201  -2.753  -6.661  0.00  0.00    +0.000 C 
ATOM     32  C   UNL     1       1.704  -1.981  -5.437  0.00  0.00    +0.002 C 
ATOM     33  C   UNL     1       1.219  -2.968  -4.374  0.00  0.00    +0.022 C 
ENDBRANCH  27  28
BRANCH  25  34
ATOM     34  C   UNL     1       1.643  -2.917  -1.401  0.00  0.00    +0.096 C 
BRANCH  34  35
ATOM     35  C   UNL     1       1.386  -2.701   0.092  0.00  0.00    +0.009 C 
BRANCH  35  36
ATOM     36  C   UNL     1       1.427  -1.204   0.405  0.00  0.00    +0.000 C 
BRANCH  36  38
ATOM     37  C   UNL     1       1.211   0.509   2.210  0.00  0.00    +0.004 C 
ATOM     38  C   UNL     1       1.169  -0.988   1.897  0.00  0.00    -0.003 C 
ENDBRANCH  36  38
ENDBRANCH  35  36
ENDBRANCH  34  35
ENDBRANCH  25  34
ENDBRANCH   1  27
TORSDOF 12
