REMARK  Name = ZINC37332211
REMARK  3 active torsions:
REMARK  status: ('A' for Active; 'I' for Inactive)
REMARK    1  A    between atoms: C_5  and  C_7
REMARK    2  A    between atoms: C_7  and  C_9
REMARK    3  A    between atoms: C_7  and  N_20
REMARK                            x       y       z     vdW  Elec       q    Type
REMARK                         _______ _______ _______ _____ _____    ______ ____
ROOT
ATOM      1  C   UNL     1       1.229  -2.186  -0.022  0.00  0.00    -0.011 C 
ENDROOT
BRANCH   1   2
ATOM      2  C   UNL     1       1.387  -2.577   1.425  0.00  0.00    -0.036 A 
ATOM      3  C   UNL     1       0.299  -3.047   2.136  0.00  0.00    +0.053 A 
ATOM      4  C   UNL     1       0.441  -3.408   3.467  0.00  0.00    +0.162 A 
ATOM      5  C   UNL     1       1.682  -3.299   4.084  0.00  0.00    +0.163 A 
ATOM      6  C   UNL     1       2.770  -2.825   3.367  0.00  0.00    +0.069 A 
ATOM      7  C   UNL     1       2.622  -2.470   2.038  0.00  0.00    +0.047 A 
ATOM      8 CL   UNL     1       3.988  -1.884   1.140  0.00  0.00    -0.083 Cl
ATOM      9  O   UNL     1       1.845  -3.655   5.387  0.00  0.00    -0.485 OA
ATOM     10  C   UNL     1       0.656  -3.772   6.176  0.00  0.00    +0.270 C 
ATOM     11  C   UNL     1      -0.378  -4.571   5.372  0.00  0.00    +0.270 C 
ATOM     12  O   UNL     1      -0.641  -3.866   4.154  0.00  0.00    -0.485 OA
ENDBRANCH   1   2
BRANCH   1  17
ATOM     13  C   UNL     1      -2.313  -2.856  -1.145  0.00  0.00    +0.000 A 
ATOM     14  C   UNL     1      -2.915  -1.635  -0.904  0.00  0.00    +0.001 A 
ATOM     15  C   UNL     1      -2.177  -0.592  -0.377  0.00  0.00    +0.015 A 
ATOM     16  C   UNL     1      -0.835  -0.770  -0.091  0.00  0.00    +0.020 A 
ATOM     17  C   UNL     1      -0.233  -1.992  -0.333  0.00  0.00    -0.044 A 
ATOM     18  C   UNL     1      -0.972  -3.034  -0.860  0.00  0.00    +0.003 A 
ATOM     19 BR   UNL     1       0.176   0.656   0.629  0.00  0.00    -0.050 Br
ENDBRANCH   1  17
BRANCH   1  20
ATOM     20  N   UNL     1       1.775  -3.247  -0.878  0.00  0.00    +0.385 N 
ATOM     21  H   UNL     1       1.277  -4.108  -0.706  0.00  0.00    -0.089 HD
ATOM     22  H   UNL     1       1.669  -2.986  -1.847  0.00  0.00    -0.089 HD
ATOM     23  H   UNL     1       2.753  -3.377  -0.670  0.00  0.00    -0.089 HD
ENDBRANCH   1  20
TORSDOF 3
