REMARK  Name = ZINC14460990
REMARK  7 active torsions:
REMARK  status: ('A' for Active; 'I' for Inactive)
REMARK    1  A    between atoms: C_1  and  C_2
REMARK    2  A    between atoms: C_2  and  C_3
REMARK    3  A    between atoms: C_2  and  N_4
REMARK    4  A    between atoms: N_4  and  S_5
REMARK    5  A    between atoms: S_5  and  C_8
REMARK    6  A    between atoms: C_21  and  C_24
REMARK    7  A    between atoms: C_29  and  O_30
REMARK                            x       y       z     vdW  Elec       q    Type
REMARK                         _______ _______ _______ _____ _____    ______ ____
ROOT
ATOM      1  C   UNL     1      -2.758   2.143  -3.029  0.00  0.00    +0.106 A 
ATOM      2  C   UNL     1      -2.120   3.170  -3.700  0.00  0.00    +0.030 A 
ATOM      3  C   UNL     1      -0.871   3.587  -3.285  0.00  0.00    +0.025 A 
ATOM      4  C   UNL     1      -0.261   2.976  -2.197  0.00  0.00    +0.031 A 
ATOM      5  C   UNL     1      -0.900   1.959  -1.511  0.00  0.00    -0.018 A 
ATOM      6  C   UNL     1      -2.152   1.536  -1.948  0.00  0.00    +0.034 A 
ATOM      7  C   UNL     1      -0.277   1.258  -0.346  0.00  0.00    +0.049 C 
ATOM      8  C   UNL     1      -0.921   1.693   0.949  0.00  0.00    -0.023 C 
ATOM      9  C   UNL     1      -0.023   1.761   1.901  0.00  0.00    -0.030 C 
ATOM     10  C   UNL     1       1.344   1.373   1.371  0.00  0.00    +0.033 C 
ATOM     11  C   UNL     1       1.214   1.602  -0.163  0.00  0.00    +0.029 C 
ATOM     12  C   UNL     1       1.441   3.094  -0.422  0.00  0.00    +0.108 C 
ATOM     13  N   UNL     1       1.004   3.411  -1.786  0.00  0.00    -0.336 N 
ATOM     14  H   UNL     1       1.578   3.910  -2.388  0.00  0.00    +0.147 HD
ENDROOT
BRANCH  12  15
ATOM     15  C   UNL     1       0.644   3.905   0.567  0.00  0.00    +0.015 A 
ATOM     16  C   UNL     1      -0.655   4.273   0.272  0.00  0.00    +0.024 A 
ATOM     17  C   UNL     1      -1.387   5.017   1.179  0.00  0.00    +0.018 A 
ATOM     18  C   UNL     1      -0.820   5.395   2.384  0.00  0.00    +0.019 A 
ATOM     19  C   UNL     1       0.478   5.029   2.683  0.00  0.00    +0.047 A 
ATOM     20  C   UNL     1       1.212   4.278   1.776  0.00  0.00    +0.122 A 
ATOM     21 BR   UNL     1      -3.164   5.519   0.774  0.00  0.00    -0.050 Br
BRANCH  20  22
ATOM     22  O   UNL     1       2.487   3.912   2.070  0.00  0.00    -0.506 OA
ATOM     23  H   UNL     1       3.155   4.551   1.786  0.00  0.00    +0.292 HD
ENDBRANCH  20  22
ENDBRANCH  12  15
BRANCH   1  24
ATOM     24  S   UNL     1      -4.352   1.608  -3.556  0.00  0.00    +0.059 S 
ATOM     25  O   UNL     1      -4.970   1.002  -2.429  0.00  0.00    -0.153 OA
ATOM     26  O   UNL     1      -4.938   2.700  -4.250  0.00  0.00    -0.153 OA
BRANCH  24  27
ATOM     27  N   UNL     1      -4.121   0.407  -4.672  0.00  0.00    -0.187 NA
ATOM     28  H   UNL     1      -4.395   0.541  -5.593  0.00  0.00    +0.148 HD
BRANCH  27  30
ATOM     29  C   UNL     1      -4.595  -1.878  -3.939  0.00  0.00    +0.025 C 
ATOM     30  C   UNL     1      -3.502  -0.859  -4.269  0.00  0.00    +0.070 C 
ATOM     31  C   UNL     1      -2.638  -1.391  -5.414  0.00  0.00    +0.025 C 
ENDBRANCH  27  30
ENDBRANCH  24  27
ENDBRANCH   1  24
TORSDOF 5
