REMARK  Name = ZINC01156877
REMARK  6 active torsions:
REMARK  status: ('A' for Active; 'I' for Inactive)
REMARK    1  A    between atoms: C_1  and  C_2
REMARK    2  A    between atoms: C_5  and  S_8
REMARK    3  A    between atoms: S_8  and  N_11
REMARK    4  A    between atoms: C_14  and  C_29
REMARK    5  A    between atoms: C_15  and  N_17
REMARK    6  A    between atoms: N_20  and  C_21
REMARK                            x       y       z     vdW  Elec       q    Type
REMARK                         _______ _______ _______ _____ _____    ______ ____
ROOT
ATOM      1  N   UNL     1       1.648  -4.999  -0.069  0.00  0.00    -0.103 NA
ATOM      2  C   UNL     1       1.955  -6.273  -0.075  0.00  0.00    +0.193 A 
ATOM      3  N   UNL     1       3.196  -6.870  -0.086  0.00  0.00    -0.335 N 
ATOM      4  C   UNL     1       3.263  -8.238  -0.089  0.00  0.00    +0.043 A 
ATOM      5  C   UNL     1       2.135  -8.961  -0.083  0.00  0.00    +0.095 A 
ATOM      6  S   UNL     1       0.876  -7.696  -0.064  0.00  0.00    -0.033 S 
ATOM      7  C   UNL     1       4.602  -8.928  -0.101  0.00  0.00    +0.066 C 
ATOM      8  H   UNL     1       4.004  -6.333  -0.091  0.00  0.00    +0.168 HD
ENDROOT
BRANCH   5   9
ATOM      9  N   UNL     1       1.983 -10.354  -0.085  0.00  0.00    -0.262 N 
ATOM     10  C   UNL     1       0.750 -10.897  -0.076  0.00  0.00    +0.309 C 
ATOM     11  O   UNL     1      -0.231 -10.178  -0.068  0.00  0.00    -0.252 OA
ATOM     12  N   UNL     1       0.604 -12.237  -0.078  0.00  0.00    -0.268 N 
ATOM     13  H   UNL     1       2.766 -10.927  -0.092  0.00  0.00    +0.157 HD
ATOM     14  H   UNL     1       1.383 -12.810  -0.151  0.00  0.00    +0.156 HD
BRANCH  12  15
ATOM     15  C   UNL     1      -0.673 -12.802   0.025  0.00  0.00    +0.053 A 
ATOM     16  C   UNL     1      -1.762 -12.171  -0.562  0.00  0.00    +0.026 A 
ATOM     17  C   UNL     1      -3.021 -12.731  -0.459  0.00  0.00    +0.022 A 
ATOM     18  C   UNL     1      -3.198 -13.919   0.228  0.00  0.00    +0.042 A 
ATOM     19  C   UNL     1      -2.115 -14.550   0.814  0.00  0.00    +0.041 A 
ATOM     20  C   UNL     1      -0.852 -13.998   0.709  0.00  0.00    +0.064 A 
ATOM     21 CL   UNL     1       0.507 -14.793   1.439  0.00  0.00    -0.082 Cl
ATOM     22 CL   UNL     1      -4.782 -14.618   0.356  0.00  0.00    -0.083 Cl
ENDBRANCH  12  15
ENDBRANCH   5   9
BRANCH   1  23
ATOM     23  S   UNL     1       0.060  -4.530  -0.049  0.00  0.00    +0.101 S 
ATOM     24  O   UNL     1      -0.470  -4.946   1.202  0.00  0.00    -0.146 OA
ATOM     25  O   UNL     1      -0.501  -4.942  -1.288  0.00  0.00    -0.146 OA
BRANCH  23  30
ATOM     26  C   UNL     1      -0.024   1.503  -0.039  0.00  0.00    +0.044 C 
ATOM     27  C   UNL     1      -0.003  -0.004  -0.041  0.00  0.00    -0.050 A 
ATOM     28  C   UNL     1      -0.007  -0.693  -1.240  0.00  0.00    +0.005 A 
ATOM     29  C   UNL     1       0.012  -2.075  -1.242  0.00  0.00    +0.029 A 
ATOM     30  C   UNL     1       0.036  -2.768  -0.046  0.00  0.00    +0.113 A 
ATOM     31  C   UNL     1       0.042  -2.079   1.152  0.00  0.00    +0.029 A 
ATOM     32  C   UNL     1       0.026  -0.697   1.155  0.00  0.00    +0.005 A 
ENDBRANCH  23  30
ENDBRANCH   1  23
TORSDOF 4
