REMARK  Name = ZINC16755825
REMARK  13 active torsions:
REMARK  status: ('A' for Active; 'I' for Inactive)
REMARK    1  A    between atoms: C_1  and  C_2
REMARK    2  A    between atoms: C_2  and  C_3
REMARK    3  A    between atoms: C_2  and  C_4
REMARK    4  A    between atoms: C_2  and  C_5
REMARK    5  A    between atoms: C_8  and  C_11
REMARK    6  A    between atoms: C_11  and  S_12
REMARK    7  A    between atoms: S_12  and  C_13
REMARK    8  A    between atoms: C_16  and  C_19
REMARK    9  A    between atoms: N_17  and  N_18
REMARK   10  A    between atoms: C_22  and  C_25
REMARK   11  A    between atoms: C_25  and  C_26
REMARK   12  A    between atoms: C_25  and  C_27
REMARK   13  A    between atoms: C_25  and  C_28
REMARK                            x       y       z     vdW  Elec       q    Type
REMARK                         _______ _______ _______ _____ _____    ______ ____
ROOT
ATOM      1  C   UNL     1      -0.668   3.560   0.028  0.00  0.00    +0.209 A 
ATOM      2  N   UNL     1       0.645   3.496   0.015  0.00  0.00    -0.121 NA
ATOM      3  N   UNL     1       1.027   2.269   0.004  0.00  0.00    -0.127 NA
ATOM      4  C   UNL     1      -0.018   1.474   0.010  0.00  0.00    +0.182 A 
ATOM      5  N   UNL     1      -1.135   2.277   0.019  0.00  0.00    -0.224 N 
ENDROOT
BRANCH   4   6
ATOM      6  C   UNL     1       0.002  -0.004   0.002  0.00  0.00    +0.021 A 
ATOM      7  C   UNL     1      -1.158  -0.719  -0.298  0.00  0.00    +0.012 A 
ATOM      8  C   UNL     1      -1.131  -2.098  -0.310  0.00  0.00    +0.005 A 
ATOM      9  C   UNL     1       0.040  -2.773  -0.014  0.00  0.00    -0.042 A 
ATOM     10  C   UNL     1       1.192  -2.070   0.291  0.00  0.00    +0.005 A 
ATOM     11  C   UNL     1       1.180  -0.691   0.300  0.00  0.00    +0.012 A 
BRANCH   9  12
ATOM     12  C   UNL     1       0.060  -4.280  -0.023  0.00  0.00    -0.013 C 
ATOM     13  C   UNL     1       0.453  -4.793   1.364  0.00  0.00    +0.015 C 
ATOM     14  C   UNL     1      -1.329  -4.807  -0.387  0.00  0.00    +0.015 C 
ATOM     15  C   UNL     1       1.078  -4.770  -1.054  0.00  0.00    +0.015 C 
ENDBRANCH   9  12
ENDBRANCH   4   6
BRANCH   5  16
ATOM     16  N   UNL     1      -2.441   1.874   0.022  0.00  0.00    -0.295 N 
ATOM     17  H   UNL     1      -2.783   1.762   0.964  0.00  0.00    +0.163 HD
ATOM     18  H   UNL     1      -3.019   2.517  -0.498  0.00  0.00    +0.163 HD
ENDBRANCH   5  16
BRANCH   1  19
ATOM     19  S   UNL     1      -1.642   5.027   0.045  0.00  0.00    -0.080 S 
BRANCH  19  20
ATOM     20  C   UNL     1      -0.331   6.276   0.040  0.00  0.00    +0.112 C 
BRANCH  20  24
ATOM     21  C   UNL     1      -2.076  10.175   0.078  0.00  0.00    -0.042 A 
ATOM     22  C   UNL     1      -1.783   9.537   1.269  0.00  0.00    +0.004 A 
ATOM     23  C   UNL     1      -1.218   8.275   1.256  0.00  0.00    +0.005 A 
ATOM     24  C   UNL     1      -0.947   7.651   0.053  0.00  0.00    -0.037 A 
ATOM     25  C   UNL     1      -1.235   8.291  -1.138  0.00  0.00    +0.005 A 
ATOM     26  C   UNL     1      -1.804   9.551  -1.125  0.00  0.00    +0.004 A 
BRANCH  21  28
ATOM     27  C   UNL     1      -1.753  12.522   0.810  0.00  0.00    +0.015 C 
ATOM     28  C   UNL     1      -2.691  11.550   0.091  0.00  0.00    -0.013 C 
ATOM     29  C   UNL     1      -2.912  12.024  -1.347  0.00  0.00    +0.015 C 
ATOM     30  C   UNL     1      -4.034  11.501   0.824  0.00  0.00    +0.015 C 
ENDBRANCH  21  28
ENDBRANCH  20  24
ENDBRANCH  19  20
ENDBRANCH   1  19
TORSDOF 7
