REMARK  Name = ZINC50438578
REMARK  3 active torsions:
REMARK  status: ('A' for Active; 'I' for Inactive)
REMARK    1  A    between atoms: C_5  and  C_7
REMARK    2  A    between atoms: C_9  and  C_12
REMARK    3  A    between atoms: C_17  and  N_18
REMARK                            x       y       z     vdW  Elec       q    Type
REMARK                         _______ _______ _______ _____ _____    ______ ____
ROOT
ATOM      1  C   UNL     1       1.797  -2.576   0.589  0.00  0.00    +0.204 A 
ATOM      2  N   UNL     1       0.624  -3.224   0.517  0.00  0.00    -0.187 NA
ATOM      3  C   UNL     1       0.830  -4.496   0.261  0.00  0.00    +0.261 A 
ATOM      4  O   UNL     1       2.156  -4.696   0.162  0.00  0.00    -0.332 OA
ATOM      5  N   UNL     1       2.767  -3.432   0.373  0.00  0.00    -0.056 NA
ENDROOT
BRANCH   1  10
ATOM      6  C   UNL     1       1.017   1.027   1.329  0.00  0.00    +0.001 A 
ATOM      7  C   UNL     1       2.287   1.576   1.372  0.00  0.00    +0.001 A 
ATOM      8  C   UNL     1       3.397   0.780   1.161  0.00  0.00    +0.021 A 
ATOM      9  C   UNL     1       3.245  -0.570   0.907  0.00  0.00    +0.052 A 
ATOM     10  C   UNL     1       1.968  -1.128   0.863  0.00  0.00    +0.041 A 
ATOM     11  C   UNL     1       0.853  -0.320   1.076  0.00  0.00    +0.013 A 
ATOM     12 CL   UNL     1       4.640  -1.568   0.642  0.00  0.00    -0.083 Cl
ENDBRANCH   1  10
BRANCH   3  13
ATOM     13  C   UNL     1      -0.213  -5.528   0.108  0.00  0.00    +0.060 A 
ATOM     14  C   UNL     1      -1.256  -5.614   1.033  0.00  0.00    +0.016 A 
ATOM     15  C   UNL     1      -2.228  -6.580   0.885  0.00  0.00    +0.016 A 
ATOM     16  C   UNL     1      -2.177  -7.468  -0.178  0.00  0.00    +0.020 A 
ATOM     17  C   UNL     1      -1.151  -7.394  -1.101  0.00  0.00    +0.038 A 
ATOM     18  C   UNL     1      -0.167  -6.424  -0.970  0.00  0.00    +0.038 A 
ATOM     19 BR   UNL     1      -3.518  -8.787  -0.367  0.00  0.00    -0.050 Br
BRANCH  18  20
ATOM     20  N   UNL     1       0.864  -6.345  -1.901  0.00  0.00    -0.357 N 
ATOM     21  H   UNL     1       1.500  -5.614  -1.859  0.00  0.00    +0.142 HD
ATOM     22  H   UNL     1       0.946  -7.020  -2.593  0.00  0.00    +0.142 HD
ENDBRANCH  18  20
ENDBRANCH   3  13
TORSDOF 3
