REMARK  Name = ZINC64703161
REMARK  6 active torsions:
REMARK  status: ('A' for Active; 'I' for Inactive)
REMARK    1  A    between atoms: C_1  and  C_2
REMARK    2  A    between atoms: C_2  and  C_3
REMARK    3  A    between atoms: C_6  and  C_9
REMARK    4  A    between atoms: C_17  and  S_21
REMARK    5  A    between atoms: S_21  and  C_22
REMARK    6  A    between atoms: C_22  and  C_23
REMARK                            x       y       z     vdW  Elec       q    Type
REMARK                         _______ _______ _______ _____ _____    ______ ____
ROOT
ATOM      1  C   UNL     1       2.767  -1.916   4.791  0.00  0.00    +0.047 C 
ATOM      2  C   UNL     1       2.220  -2.199   5.997  0.00  0.00    +0.027 C 
ATOM      3  C   UNL     1       3.382  -2.665   6.830  0.00  0.00    +0.193 C 
ATOM      4  C   UNL     1       3.421  -2.190   8.251  0.00  0.00    +0.276 C 
ATOM      5  O   UNL     1       2.411  -1.975   8.879  0.00  0.00    -0.270 OA
ATOM      6  N   UNL     1       4.653  -2.014   8.793  0.00  0.00    -0.081 NA
ATOM      7  N   UNL     1       5.702  -2.117   8.153  0.00  0.00    -0.163 NA
ATOM      8  C   UNL     1       5.748  -2.404   6.708  0.00  0.00    +0.272 C 
ATOM      9  N   UNL     1       4.502  -1.956   6.131  0.00  0.00    -0.178 NA
ATOM     10  N   UNL     1       4.159  -2.165   4.836  0.00  0.00    -0.274 N 
ATOM     11  H   UNL     1       4.738  -2.425   4.103  0.00  0.00    +0.167 HD
ENDROOT
BRANCH   1  15
ATOM     12  C   UNL     1       0.630  -0.517   1.393  0.00  0.00    -0.048 A 
ATOM     13  C   UNL     1       1.996  -0.722   1.312  0.00  0.00    +0.004 A 
ATOM     14  C   UNL     1       2.695  -1.176   2.412  0.00  0.00    +0.010 A 
ATOM     15  C   UNL     1       2.022  -1.428   3.607  0.00  0.00    -0.003 A 
ATOM     16  C   UNL     1       0.645  -1.220   3.683  0.00  0.00    +0.010 A 
ATOM     17  C   UNL     1      -0.042  -0.761   2.578  0.00  0.00    +0.004 A 
BRANCH  12  19
ATOM     18  C   UNL     1      -0.149   1.509   0.195  0.00  0.00    +0.009 C 
ATOM     19  C   UNL     1      -0.127  -0.021   0.189  0.00  0.00    +0.032 C 
ENDBRANCH  12  19
ENDBRANCH   1  15
BRANCH   8  20
ATOM     20  S   UNL     1       7.139  -1.523   5.947  0.00  0.00    -0.107 S 
BRANCH  20  21
ATOM     21  C   UNL     1       6.788   0.225   6.279  0.00  0.00    +0.168 C 
BRANCH  21  22
ATOM     22  C   UNL     1       7.882   1.078   5.692  0.00  0.00    +0.230 C 
ATOM     23  O   UNL     1       8.853   0.556   5.186  0.00  0.00    -0.274 OA
ATOM     24  N   UNL     1       7.782   2.422   5.729  0.00  0.00    -0.270 N 
ATOM     25  C   UNL     1       6.655   3.068   6.414  0.00  0.00    +0.114 C 
ATOM     26  C   UNL     1       6.138   4.192   5.507  0.00  0.00    +0.024 C 
ATOM     27  C   UNL     1       7.241   5.235   5.333  0.00  0.00    +0.038 C 
ATOM     28  C   UNL     1       8.527   4.577   4.905  0.00  0.00    -0.026 A 
ATOM     29  C   UNL     1       8.755   3.225   5.119  0.00  0.00    +0.039 A 
ATOM     30  C   UNL     1       9.957   2.650   4.721  0.00  0.00    +0.024 A 
ATOM     31  C   UNL     1      10.927   3.425   4.116  0.00  0.00    +0.002 A 
ATOM     32  C   UNL     1      10.701   4.772   3.905  0.00  0.00    +0.000 A 
ATOM     33  C   UNL     1       9.501   5.346   4.291  0.00  0.00    +0.005 A 
ENDBRANCH  21  22
ENDBRANCH  20  21
ENDBRANCH   8  20
TORSDOF 5
