REMARK  Name = ZINC59890678
REMARK  13 active torsions:
REMARK  status: ('A' for Active; 'I' for Inactive)
REMARK    1  A    between atoms: C_1  and  C_2
REMARK    2  A    between atoms: C_2  and  C_3
REMARK    3  A    between atoms: C_4  and  C_25
REMARK    4  A    between atoms: C_5  and  C_24
REMARK    5  A    between atoms: C_6  and  C_9
REMARK    6  A    between atoms: N_11  and  C_12
REMARK    7  A    between atoms: C_12  and  C_13
REMARK    8  A    between atoms: C_13  and  N_21
REMARK    9  A    between atoms: C_17  and  C_20
REMARK   10  A    between atoms: N_21  and  C_22
REMARK   11  A    between atoms: N_21  and  C_23
REMARK   12  A    between atoms: C_25  and  O_27
REMARK   13  A    between atoms: O_27  and  C_28
REMARK                            x       y       z     vdW  Elec       q    Type
REMARK                         _______ _______ _______ _____ _____    ______ ____
ROOT
ATOM      1  C   UNL     1       0.710  -1.415  -4.513  0.00  0.00    +0.261 C 
ATOM      2  O   UNL     1       1.679  -1.708  -5.188  0.00  0.00    -0.269 OA
ATOM      3  N   UNL     1      -0.530  -1.527  -5.029  0.00  0.00    -0.311 N 
ATOM      4  H   UNL     1      -1.302  -1.293  -4.491  0.00  0.00    +0.149 HD
ENDROOT
BRANCH   1   8
ATOM      5  C   UNL     1       0.423  -0.193  -1.100  0.00  0.00    +0.031 A 
ATOM      6  C   UNL     1       1.798  -0.306  -1.196  0.00  0.00    +0.083 A 
ATOM      7  C   UNL     1       2.085  -0.781  -2.496  0.00  0.00    -0.006 A 
ATOM      8  C   UNL     1       0.892  -0.939  -3.135  0.00  0.00    +0.106 A 
ATOM      9  N   UNL     1      -0.116  -0.580  -2.267  0.00  0.00    -0.353 N 
ATOM     10  H   UNL     1      -1.065  -0.602  -2.467  0.00  0.00    +0.166 HD
ATOM     11  C   UNL     1       3.452  -1.061  -3.067  0.00  0.00    +0.047 C 
BRANCH   5  13
ATOM     12  C   UNL     1      -0.419   1.805   0.102  0.00  0.00    +0.010 C 
ATOM     13  C   UNL     1      -0.340   0.277   0.111  0.00  0.00    +0.050 C 
ENDBRANCH   5  13
BRANCH   6  14
ATOM     14  C   UNL     1       2.779   0.011  -0.144  0.00  0.00    +0.341 C 
ATOM     15  O   UNL     1       3.127  -0.850   0.641  0.00  0.00    -0.245 OA
BRANCH  14  16
ATOM     16  O   UNL     1       3.290   1.254  -0.051  0.00  0.00    -0.464 OA
ATOM     17  C   UNL     1       4.235   1.490   0.994  0.00  0.00    +0.280 C 
ENDBRANCH  14  16
ENDBRANCH   6  14
ENDBRANCH   1   8
BRANCH   3  18
ATOM     18  C   UNL     1      -0.711  -2.001  -6.403  0.00  0.00    +0.092 C 
BRANCH  18  19
ATOM     19  C   UNL     1      -2.204  -2.171  -6.691  0.00  0.00    -0.050 C 
ATOM     20  C   UNL     1      -2.388  -2.789  -8.079  0.00  0.00    -0.010 C 
ATOM     21  C   UNL     1      -1.766  -1.870  -9.133  0.00  0.00    -0.001 C 
ATOM     22  C   UNL     1      -2.453  -0.503  -9.087  0.00  0.00    +0.003 C 
ATOM     23  C   UNL     1      -2.269   0.114  -7.699  0.00  0.00    -0.015 C 
ATOM     24  C   UNL     1      -2.891  -0.805  -6.646  0.00  0.00    -0.007 C 
ATOM     25  C   UNL     1      -2.956   1.480  -7.654  0.00  0.00    +0.007 C 
BRANCH  19  26
ATOM     26  N   UNL     1      -2.800  -3.054  -5.680  0.00  0.00    +0.381 N 
ATOM     27  C   UNL     1      -4.226  -3.245  -5.977  0.00  0.00    -0.096 C 
ATOM     28  C   UNL     1      -2.117  -4.354  -5.700  0.00  0.00    -0.096 C 
ATOM     29  H   UNL     1      -2.700  -2.635  -4.767  0.00  0.00    -0.082 HD
ENDBRANCH  19  26
ENDBRANCH  18  19
ENDBRANCH   3  18
TORSDOF 7
