REMARK  Name = ZINC63694474
REMARK  9 active torsions:
REMARK  status: ('A' for Active; 'I' for Inactive)
REMARK    1  A    between atoms: C_7  and  C_10
REMARK    2  A    between atoms: C_10  and  C_11
REMARK    3  A    between atoms: C_11  and  N_12
REMARK    4  A    between atoms: C_13  and  C_15
REMARK    5  A    between atoms: N_17  and  C_18
REMARK    6  A    between atoms: C_18  and  C_19
REMARK    7  A    between atoms: C_19  and  C_21
REMARK    8  A    between atoms: C_19  and  N_26
REMARK    9  A    between atoms: N_29  and  C_32
REMARK                            x       y       z     vdW  Elec       q    Type
REMARK                         _______ _______ _______ _____ _____    ______ ____
ROOT
ATOM      1  C   UNL     1      -1.744  -6.548  -2.622  0.00  0.00    +0.299 C 
ATOM      2  O   UNL     1      -2.184  -6.971  -1.573  0.00  0.00    -0.265 OA
ATOM      3  N   UNL     1      -2.096  -7.130  -3.785  0.00  0.00    -0.306 N 
ATOM      4  H   UNL     1      -1.744  -6.792  -4.623  0.00  0.00    +0.149 HD
ENDROOT
BRANCH   1   6
ATOM      5  N   UNL     1      -0.458  -4.798  -1.460  0.00  0.00    -0.307 N 
ATOM      6  C   UNL     1      -0.811  -5.380  -2.623  0.00  0.00    +0.299 C 
ATOM      7  O   UNL     1      -0.370  -4.957  -3.672  0.00  0.00    -0.265 OA
ATOM      8  H   UNL     1      -0.810  -5.136  -0.622  0.00  0.00    +0.149 HD
BRANCH   5   9
ATOM      9  C   UNL     1       0.457  -3.653  -1.462  0.00  0.00    +0.109 C 
BRANCH   9  10
ATOM     10  C   UNL     1       0.691  -3.186  -0.024  0.00  0.00    +0.052 C 
BRANCH  10  17
ATOM     11  C   UNL     1      -0.016   1.348   0.009  0.00  0.00    +0.001 A 
ATOM     12  C   UNL     1       1.166   2.101   0.002  0.00  0.00    +0.002 A 
ATOM     13  C   UNL     1       2.391   1.535  -0.013  0.00  0.00    +0.026 A 
ATOM     14  C   UNL     1       2.529   0.120  -0.022  0.00  0.00    +0.043 A 
ATOM     15  N   UNL     1       3.587  -0.654  -0.037  0.00  0.00    -0.380 N 
ATOM     16  C   UNL     1       3.143  -2.053  -0.041  0.00  0.00    +0.144 C 
ATOM     17  C   UNL     1       1.631  -2.008  -0.025  0.00  0.00    -0.040 C 
ATOM     18  C   UNL     1       1.295  -0.698  -0.014  0.00  0.00    -0.001 A 
ATOM     19  C   UNL     1       0.002  -0.004   0.002  0.00  0.00    +0.010 A 
ATOM     20  H   UNL     1       4.509  -0.353  -0.045  0.00  0.00    +0.160 HD
ENDBRANCH  10  17
ENDBRANCH   9  10
ENDBRANCH   5   9
ENDBRANCH   1   6
BRANCH   3  21
ATOM     21  C   UNL     1      -3.011  -8.274  -3.783  0.00  0.00    +0.131 C 
BRANCH  21  22
ATOM     22  C   UNL     1      -3.245  -8.742  -5.221  0.00  0.00    +0.140 C 
BRANCH  22  23
ATOM     23  N   UNL     1      -3.721  -7.614  -6.032  0.00  0.00    -0.288 NA
ATOM     24  C   UNL     1      -4.989  -7.088  -5.510  0.00  0.00    +0.104 C 
ATOM     25  C   UNL     1      -5.357  -5.807  -6.266  0.00  0.00    +0.120 C 
ATOM     26  N   UNL     1      -5.351  -6.097  -7.708  0.00  0.00    -0.325 N 
ATOM     27  C   UNL     1      -4.164  -6.752  -8.281  0.00  0.00    +0.120 C 
ATOM     28  C   UNL     1      -3.843  -7.995  -7.445  0.00  0.00    +0.104 C 
BRANCH  26  29
ATOM     29  C   UNL     1      -6.443  -5.760  -8.513  0.00  0.00    +0.065 A 
ATOM     30  C   UNL     1      -6.494  -4.519  -9.133  0.00  0.00    +0.026 A 
ATOM     31  C   UNL     1      -7.574  -4.189  -9.928  0.00  0.00    +0.002 A 
ATOM     32  C   UNL     1      -8.605  -5.092 -10.107  0.00  0.00    +0.003 A 
ATOM     33  C   UNL     1      -8.560  -6.330  -9.492  0.00  0.00    +0.040 A 
ATOM     34  C   UNL     1      -7.479  -6.669  -8.700  0.00  0.00    +0.144 A 
ATOM     35  F   UNL     1      -7.431  -7.881  -8.103  0.00  0.00    -0.204 F 
ENDBRANCH  26  29
ENDBRANCH  22  23
BRANCH  22  36
ATOM     36  C   UNL     1      -4.279  -9.838  -5.231  0.00  0.00    +0.123 A 
ATOM     37  C   UNL     1      -4.027 -11.158  -5.306  0.00  0.00    +0.046 A 
ATOM     38  C   UNL     1      -5.278 -11.816  -5.285  0.00  0.00    +0.041 A 
ATOM     39  C   UNL     1      -6.220 -10.860  -5.198  0.00  0.00    +0.195 A 
ATOM     40  O   UNL     1      -5.609  -9.664  -5.159  0.00  0.00    -0.466 OA
ENDBRANCH  22  36
ENDBRANCH  21  22
ENDBRANCH   3  21
TORSDOF 9
