REMARK  Name = ZINC02111358
REMARK  5 active torsions:
REMARK  status: ('A' for Active; 'I' for Inactive)
REMARK    1  A    between atoms: C_1  and  C_2
REMARK    2  A    between atoms: C_7  and  C_8
REMARK    3  A    between atoms: N_27  and  C_30
REMARK    4  A    between atoms: N_33  and  C_36
REMARK    5  A    between atoms: C_36  and  C_37
REMARK                            x       y       z     vdW  Elec       q    Type
REMARK                         _______ _______ _______ _____ _____    ______ ____
ROOT
ATOM      1  C   UNL     1       0.207  -0.064   2.557  0.00  0.00    +0.154 C 
ATOM      2  C   UNL     1      -1.175   0.117   3.143  0.00  0.00    +0.046 A 
ATOM      3  C   UNL     1      -1.493  -0.210   4.415  0.00  0.00    -0.015 A 
ATOM      4  C   UNL     1      -2.894   0.113   4.596  0.00  0.00    +0.003 A 
ATOM      5  C   UNL     1      -3.759  -0.003   5.688  0.00  0.00    +0.010 A 
ATOM      6  C   UNL     1      -5.056   0.407   5.499  0.00  0.00    +0.001 A 
ATOM      7  C   UNL     1      -5.498   0.914   4.288  0.00  0.00    +0.002 A 
ATOM      8  C   UNL     1      -4.663   1.040   3.191  0.00  0.00    +0.026 A 
ATOM      9  C   UNL     1      -3.341   0.632   3.354  0.00  0.00    +0.047 A 
ATOM     10  N   UNL     1      -2.275   0.621   2.502  0.00  0.00    -0.356 N 
ATOM     11  H   UNL     1      -2.293   0.925   1.580  0.00  0.00    +0.166 HD
ATOM     12  C   UNL     1      -0.534  -0.805   5.414  0.00  0.00    +0.069 C 
ATOM     13  C   UNL     1       0.902  -0.576   4.923  0.00  0.00    +0.167 C 
ATOM     14  N   UNL     1       0.982  -0.900   3.498  0.00  0.00    -0.276 N 
ATOM     15  C   UNL     1       1.712  -1.908   3.018  0.00  0.00    +0.234 C 
ATOM     16  O   UNL     1       1.653  -2.133   1.828  0.00  0.00    -0.274 OA
ATOM     17  C   UNL     1       2.598  -2.780   3.848  0.00  0.00    +0.204 C 
ATOM     18  N   UNL     1       2.601  -2.381   5.246  0.00  0.00    -0.288 N 
ATOM     19  C   UNL     1       1.845  -1.412   5.726  0.00  0.00    +0.237 C 
ATOM     20  O   UNL     1       1.940  -1.179   6.913  0.00  0.00    -0.274 OA
ENDROOT
BRANCH   1  27
ATOM     21  C   UNL     1       2.106   0.556   0.470  0.00  0.00    +0.044 C 
ATOM     22  C   UNL     1       1.018  -0.457   0.222  0.00  0.00    -0.045 A 
ATOM     23  C   UNL     1       0.933  -1.094  -1.002  0.00  0.00    +0.004 A 
ATOM     24  C   UNL     1      -0.065  -2.023  -1.230  0.00  0.00    +0.000 A 
ATOM     25  C   UNL     1      -0.977  -2.316  -0.233  0.00  0.00    +0.000 A 
ATOM     26  C   UNL     1      -0.891  -1.680   0.991  0.00  0.00    +0.006 A 
ATOM     27  C   UNL     1       0.110  -0.754   1.220  0.00  0.00    -0.018 A 
ENDBRANCH   1  27
BRANCH  18  28
ATOM     28  C   UNL     1       3.479  -3.105   6.168  0.00  0.00    +0.073 C 
ATOM     29  C   UNL     1       4.933  -2.965   5.706  0.00  0.00    +0.004 C 
ATOM     30  C   UNL     1       5.837  -3.788   6.627  0.00  0.00    -0.077 C 
ATOM     31  N   UNL     1       5.439  -5.200   6.575  0.00  0.00    +0.382 N 
ATOM     32  C   UNL     1       4.070  -5.351   7.083  0.00  0.00    -0.077 C 
ATOM     33  C   UNL     1       3.099  -4.588   6.180  0.00  0.00    +0.004 C 
ATOM     34  H   UNL     1       5.479  -5.524   5.620  0.00  0.00    -0.081 HD
BRANCH  31  35
ATOM     35  C   UNL     1       6.357  -5.997   7.399  0.00  0.00    -0.043 C 
BRANCH  35  36
ATOM     36  C   UNL     1       6.026  -7.459   7.249  0.00  0.00    -0.064 A 
ATOM     37  C   UNL     1       5.110  -8.051   8.098  0.00  0.00    +0.002 A 
ATOM     38  C   UNL     1       4.806  -9.393   7.960  0.00  0.00    +0.000 A 
ATOM     39  C   UNL     1       5.419 -10.142   6.973  0.00  0.00    +0.000 A 
ATOM     40  C   UNL     1       6.334  -9.550   6.123  0.00  0.00    +0.000 A 
ATOM     41  C   UNL     1       6.634  -8.207   6.258  0.00  0.00    +0.002 A 
ENDBRANCH  35  36
ENDBRANCH  31  35
ENDBRANCH  18  28
TORSDOF 4
