REMARK  Name = ZINC37712032
REMARK  8 active torsions:
REMARK  status: ('A' for Active; 'I' for Inactive)
REMARK    1  A    between atoms: C_1  and  C_2
REMARK    2  A    between atoms: C_2  and  O_3
REMARK    3  A    between atoms: O_3  and  C_4
REMARK    4  A    between atoms: C_6  and  C_20
REMARK    5  A    between atoms: C_9  and  O_10
REMARK    6  A    between atoms: O_10  and  C_11
REMARK    7  A    between atoms: C_16  and  O_18
REMARK    8  A    between atoms: C_20  and  N_21
REMARK                            x       y       z     vdW  Elec       q    Type
REMARK                         _______ _______ _______ _____ _____    ______ ____
ROOT
ATOM      1  C   UNL     1       0.802  -1.825   1.306  0.00  0.00    +0.163 A 
ATOM      2  C   UNL     1       0.260  -2.673   0.352  0.00  0.00    +0.051 A 
ATOM      3  C   UNL     1       0.371  -4.043   0.502  0.00  0.00    -0.060 A 
ATOM      4  C   UNL     1       1.022  -4.571   1.602  0.00  0.00    +0.021 A 
ATOM      5  C   UNL     1       1.565  -3.730   2.557  0.00  0.00    +0.063 A 
ATOM      6  C   UNL     1       1.462  -2.356   2.409  0.00  0.00    +0.176 A 
ATOM      7 BR   UNL     1       2.453  -4.456   4.061  0.00  0.00    -0.046 Br
ENDROOT
BRANCH   1   8
ATOM      8  O   UNL     1       0.693  -0.477   1.160  0.00  0.00    -0.489 OA
BRANCH   8  10
ATOM      9  C   UNL     1      -0.019   1.526   0.010  0.00  0.00    +0.048 C 
ATOM     10  C   UNL     1       0.002  -0.004   0.002  0.00  0.00    +0.226 C 
ENDBRANCH   8  10
ENDBRANCH   1   8
BRANCH   6  11
ATOM     11  O   UNL     1       2.000  -1.528   3.345  0.00  0.00    -0.481 OA
BRANCH  11  12
ATOM     12  C   UNL     1       1.161  -1.151   4.438  0.00  0.00    +0.202 C 
ATOM     13  C   UNL     1       1.365  -2.112   5.635  0.00  0.00    +0.047 C 
ATOM     14  C   UNL     1       0.906  -1.257   6.842  0.00  0.00    +0.006 C 
ATOM     15  C   UNL     1       1.413   0.163   6.515  0.00  0.00    +0.035 C 
ATOM     16  C   UNL     1       1.573   0.232   4.984  0.00  0.00    +0.155 C 
BRANCH  16  17
ATOM     17  O   UNL     1       2.934   0.506   4.646  0.00  0.00    -0.388 OA
ATOM     18  H   UNL     1       3.253   1.362   4.962  0.00  0.00    +0.210 HD
ENDBRANCH  16  17
ENDBRANCH  11  12
ENDBRANCH   6  11
BRANCH   3  19
ATOM     19  C   UNL     1      -0.219  -4.963  -0.535  0.00  0.00    -0.050 C 
BRANCH  19  20
ATOM     20  N   UNL     1       0.785  -5.241  -1.571  0.00  0.00    +0.381 N 
ATOM     21  H   UNL     1       1.066  -4.376  -2.008  0.00  0.00    -0.090 HD
ATOM     22  H   UNL     1       1.589  -5.681  -1.149  0.00  0.00    -0.090 HD
ATOM     23  H   UNL     1       0.390  -5.857  -2.265  0.00  0.00    -0.090 HD
ENDBRANCH  19  20
ENDBRANCH   3  19
TORSDOF 7
