REMARK  Name = ZINC54038755
REMARK  7 active torsions:
REMARK  status: ('A' for Active; 'I' for Inactive)
REMARK    1  A    between atoms: C_1  and  C_2
REMARK    2  A    between atoms: C_2  and  O_3
REMARK    3  A    between atoms: O_3  and  C_4
REMARK    4  A    between atoms: C_9  and  N_12
REMARK    5  A    between atoms: N_15  and  C_16
REMARK    6  A    between atoms: C_16  and  C_17
REMARK    7  A    between atoms: C_17  and  N_23
REMARK                            x       y       z     vdW  Elec       q    Type
REMARK                         _______ _______ _______ _____ _____    ______ ____
ROOT
ATOM      1  N   UNL     1      -6.335  -3.425   2.268  0.00  0.00    -0.296 N 
ATOM      2  C   UNL     1      -7.006  -4.586   2.127  0.00  0.00    +0.300 C 
ATOM      3  O   UNL     1      -6.902  -5.227   1.099  0.00  0.00    -0.253 OA
ATOM      4  N   UNL     1      -7.793  -5.034   3.125  0.00  0.00    -0.301 N 
ATOM      5  H   UNL     1      -6.418  -2.914   3.087  0.00  0.00    +0.151 HD
ATOM      6  H   UNL     1      -7.876  -4.522   3.945  0.00  0.00    +0.150 HD
ENDROOT
BRANCH   1  12
ATOM      7  C   UNL     1      -2.030  -0.956   0.157  0.00  0.00    +0.403 C 
ATOM      8  O   UNL     1      -0.979  -1.565   0.163  0.00  0.00    -0.226 OA
ATOM      9  N   UNL     1      -3.199  -1.629   0.142  0.00  0.00    -0.267 N 
ATOM     10  C   UNL     1      -4.478  -0.906   0.129  0.00  0.00    +0.113 C 
ATOM     11  C   UNL     1      -5.344  -1.417   1.285  0.00  0.00    +0.041 C 
ATOM     12  C   UNL     1      -5.480  -2.938   1.183  0.00  0.00    +0.077 C 
ATOM     13  C   UNL     1      -4.097  -3.584   1.293  0.00  0.00    +0.041 C 
ATOM     14  C   UNL     1      -3.216  -3.098   0.132  0.00  0.00    +0.113 C 
BRANCH   7  15
ATOM     15  O   UNL     1      -2.029   0.390   0.166  0.00  0.00    -0.451 OA
BRANCH  15  17
ATOM     16  C   UNL     1      -0.953   2.554   0.191  0.00  0.00    +0.048 C 
ATOM     17  C   UNL     1      -0.755   1.037   0.182  0.00  0.00    +0.230 C 
ENDBRANCH  15  17
ENDBRANCH   7  15
ENDBRANCH   1  12
BRANCH   4  18
ATOM     18  C   UNL     1      -8.523  -6.295   2.972  0.00  0.00    +0.094 C 
BRANCH  18  19
ATOM     19  C   UNL     1      -9.230  -6.638   4.285  0.00  0.00    -0.050 C 
ATOM     20  C   UNL     1      -9.882  -8.017   4.168  0.00  0.00    -0.010 C 
ATOM     21  C   UNL     1     -10.901  -8.005   3.027  0.00  0.00    -0.001 C 
ATOM     22  C   UNL     1     -11.977  -6.955   3.316  0.00  0.00    -0.000 C 
ATOM     23  C   UNL     1     -11.325  -5.576   3.433  0.00  0.00    -0.001 C 
ATOM     24  C   UNL     1     -10.305  -5.588   4.573  0.00  0.00    -0.010 C 
BRANCH  19  25
ATOM     25  N   UNL     1      -8.251  -6.650   5.380  0.00  0.00    +0.384 N 
ATOM     26  C   UNL     1      -7.197  -7.627   5.081  0.00  0.00    -0.078 C 
ATOM     27  C   UNL     1      -6.132  -7.585   6.179  0.00  0.00    -0.019 C 
ATOM     28  C   UNL     1      -6.780  -7.927   7.524  0.00  0.00    -0.004 C 
ATOM     29  C   UNL     1      -7.926  -6.947   7.790  0.00  0.00    -0.019 C 
ATOM     30  C   UNL     1      -8.925  -7.012   6.633  0.00  0.00    -0.078 C 
ATOM     31  H   UNL     1      -7.840  -5.733   5.473  0.00  0.00    -0.081 HD
ENDBRANCH  19  25
ENDBRANCH  18  19
ENDBRANCH   4  18
TORSDOF 6
