REMARK  Name = ZINC12546361
REMARK  7 active torsions:
REMARK  status: ('A' for Active; 'I' for Inactive)
REMARK    1  A    between atoms: C_1  and  C_2
REMARK    2  A    between atoms: C_2  and  C_3
REMARK    3  A    between atoms: C_3  and  N_4
REMARK    4  A    between atoms: N_13  and  C_14
REMARK    5  A    between atoms: C_14  and  C_16
REMARK    6  A    between atoms: C_16  and  C_17
REMARK    7  A    between atoms: C_17  and  C_18
REMARK                            x       y       z     vdW  Elec       q    Type
REMARK                         _______ _______ _______ _____ _____    ______ ____
ROOT
ATOM      1  N   UNL     1      -1.428  -1.998   0.005  0.00  0.00    -0.312 N 
ATOM      2  C   UNL     1      -1.425  -2.806  -1.127  0.00  0.00    +0.068 A 
ATOM      3  C   UNL     1      -1.444  -2.532  -2.487  0.00  0.00    +0.028 A 
ATOM      4  C   UNL     1      -1.435  -3.568  -3.398  0.00  0.00    +0.002 A 
ATOM      5  C   UNL     1      -1.407  -4.882  -2.961  0.00  0.00    +0.002 A 
ATOM      6  C   UNL     1      -1.388  -5.166  -1.611  0.00  0.00    +0.028 A 
ATOM      7  C   UNL     1      -1.396  -4.131  -0.686  0.00  0.00    +0.066 A 
ATOM      8  N   UNL     1      -1.383  -4.100   0.705  0.00  0.00    -0.326 N 
ATOM      9  C   UNL     1      -1.397  -2.800   1.102  0.00  0.00    +0.201 A 
ATOM     10  N   UNL     1      -1.385  -2.380   2.364  0.00  0.00    -0.147 NA
ATOM     11  H   UNL     1      -1.363  -4.873   1.290  0.00  0.00    +0.169 HD
ENDROOT
BRANCH  10  12
ATOM     12  C   UNL     1      -1.463  -3.259   3.358  0.00  0.00    +0.239 C 
ATOM     13  O   UNL     1      -1.450  -4.451   3.118  0.00  0.00    -0.274 OA
BRANCH  12  14
ATOM     14  C   UNL     1      -1.569  -2.778   4.782  0.00  0.00    +0.103 C 
BRANCH  14  15
ATOM     15  C   UNL     1      -1.645  -3.983   5.723  0.00  0.00    +0.046 C 
BRANCH  15  16
ATOM     16  C   UNL     1      -1.751  -3.502   7.147  0.00  0.00    -0.022 A 
ATOM     17  C   UNL     1      -0.737  -3.335   8.011  0.00  0.00    +0.087 A 
ATOM     18  N   UNL     1      -1.216  -2.885   9.211  0.00  0.00    -0.360 N 
ATOM     19  H   UNL     1      -0.673  -2.692   9.991  0.00  0.00    +0.165 HD
ATOM     20  C   UNL     1      -2.585  -2.748   9.147  0.00  0.00    +0.047 A 
ATOM     21  C   UNL     1      -2.979  -3.123   7.849  0.00  0.00    +0.003 A 
ATOM     22  C   UNL     1      -4.328  -3.077   7.491  0.00  0.00    +0.010 A 
ATOM     23  C   UNL     1      -5.258  -2.665   8.403  0.00  0.00    +0.001 A 
ATOM     24  C   UNL     1      -4.874  -2.291   9.683  0.00  0.00    +0.002 A 
ATOM     25  C   UNL     1      -3.550  -2.337  10.061  0.00  0.00    +0.026 A 
ENDBRANCH  15  16
ENDBRANCH  14  15
ENDBRANCH  12  14
ENDBRANCH  10  12
BRANCH   1  26
ATOM     26  C   UNL     1      -1.455  -0.533   0.014  0.00  0.00    +0.125 C 
BRANCH  26  28
ATOM     27  C   UNL     1      -0.050   1.533   0.004  0.00  0.00    +0.005 C 
ATOM     28  C   UNL     1      -0.022   0.003  -0.005  0.00  0.00    +0.018 C 
ENDBRANCH  26  28
ENDBRANCH   1  26
TORSDOF 6
