REMARK  Name = ZINC00136949
REMARK  4 active torsions:
REMARK  status: ('A' for Active; 'I' for Inactive)
REMARK    1  A    between atoms: C_1  and  C_2
REMARK    2  A    between atoms: N_11  and  C_12
REMARK    3  A    between atoms: C_12  and  N_14
REMARK    4  A    between atoms: C_15  and  C_17
REMARK                            x       y       z     vdW  Elec       q    Type
REMARK                         _______ _______ _______ _____ _____    ______ ____
ROOT
ATOM      1  C   UNL     1      -0.735   1.582   1.262  0.00  0.00    +0.008 C 
ATOM      2  C   UNL     1      -0.013   1.086   0.008  0.00  0.00    -0.009 C 
ATOM      3  C   UNL     1       1.423   1.619  -0.003  0.00  0.00    +0.010 C 
ATOM      4  C   UNL     1       2.229   0.936  -1.109  0.00  0.00    +0.056 C 
ATOM      5  C   UNL     1       1.472   1.075  -2.425  0.00  0.00    +0.054 A 
ATOM      6  C   UNL     1       0.147   1.373  -2.424  0.00  0.00    +0.015 A 
ATOM      7  S   UNL     1      -0.242   1.420  -4.152  0.00  0.00    -0.057 S 
ATOM      8  C   UNL     1       1.351   1.047  -4.739  0.00  0.00    +0.164 A 
ATOM      9  N   UNL     1       2.034   0.919  -3.621  0.00  0.00    -0.229 NA
ATOM     10  N   UNL     1       1.790   0.918  -6.051  0.00  0.00    -0.276 N 
ATOM     11  C   UNL     1      -0.739   1.598  -1.246  0.00  0.00    +0.047 C 
ATOM     12  H   UNL     1       1.168   1.041  -6.785  0.00  0.00    +0.156 HD
ENDROOT
BRANCH  10  13
ATOM     13  C   UNL     1       3.080   0.621  -6.303  0.00  0.00    +0.143 C 
ATOM     14  S   UNL     1       4.178   0.404  -5.008  0.00  0.00    -0.018 S 
BRANCH  13  15
ATOM     15  N   UNL     1       3.506   0.496  -7.576  0.00  0.00    -0.264 N 
ATOM     16  C   UNL     1       4.796   0.199  -7.828  0.00  0.00    +0.250 C 
ATOM     17  O   UNL     1       5.576   0.045  -6.909  0.00  0.00    -0.270 OA
ATOM     18  H   UNL     1       2.884   0.619  -8.310  0.00  0.00    +0.157 HD
BRANCH  16  19
ATOM     19  C   UNL     1       5.264   0.061  -9.223  0.00  0.00    +0.037 A 
ATOM     20  C   UNL     1       4.370   0.232 -10.282  0.00  0.00    +0.013 A 
ATOM     21  C   UNL     1       4.814   0.108 -11.582  0.00  0.00    +0.001 A 
ATOM     22  C   UNL     1       6.139  -0.197 -11.838  0.00  0.00    +0.000 A 
ATOM     23  C   UNL     1       7.029  -0.373 -10.793  0.00  0.00    +0.001 A 
ATOM     24  C   UNL     1       6.599  -0.246  -9.489  0.00  0.00    +0.013 A 
ENDBRANCH  16  19
ENDBRANCH  13  15
ENDBRANCH  10  13
TORSDOF 3
