REMARK  Name = ZINC43287585
REMARK  11 active torsions:
REMARK  status: ('A' for Active; 'I' for Inactive)
REMARK    1  A    between atoms: C_1  and  C_2
REMARK    2  A    between atoms: C_2  and  C_4
REMARK    3  A    between atoms: C_2  and  N_21
REMARK    4  A    between atoms: C_4  and  C_6
REMARK    5  A    between atoms: C_4  and  N_12
REMARK    6  A    between atoms: N_12  and  C_13
REMARK    7  A    between atoms: N_12  and  C_14
REMARK    8  A    between atoms: C_14  and  C_15
REMARK    9  A    between atoms: N_17  and  C_18
REMARK   10  A    between atoms: C_18  and  C_19
REMARK   11  A    between atoms: C_18  and  C_20
REMARK                            x       y       z     vdW  Elec       q    Type
REMARK                         _______ _______ _______ _____ _____    ______ ____
ROOT
ATOM      1  C   UNL     1      -1.477  -0.599   0.045  0.00  0.00    +0.079 C 
ENDROOT
BRANCH   1   2
ATOM      2  C   UNL     1      -0.199   0.160   0.294  0.00  0.00    +0.006 A 
ATOM      3  C   UNL     1       1.008  -0.309   0.696  0.00  0.00    +0.028 A 
ATOM      4  C   UNL     1       2.052   0.582   0.861  0.00  0.00    +0.025 A 
ATOM      5  C   UNL     1       1.838   1.898   0.616  0.00  0.00    +0.060 A 
ATOM      6  S   UNL     1       0.121   1.908   0.129  0.00  0.00    -0.099 S 
ATOM      7 BR   UNL     1       3.753  -0.026   1.421  0.00  0.00    -0.050 Br
ENDBRANCH   1   2
BRANCH   1   9
ATOM      8  C   UNL     1      -3.856  -0.866   0.760  0.00  0.00    -0.012 C 
ATOM      9  C   UNL     1      -2.518  -0.202   1.093  0.00  0.00    -0.056 C 
BRANCH   9  10
ATOM     10  N   UNL     1      -2.070  -0.644   2.421  0.00  0.00    +0.381 N 
ATOM     11  H   UNL     1      -1.957  -1.647   2.421  0.00  0.00    -0.090 HD
ATOM     12  H   UNL     1      -1.187  -0.206   2.640  0.00  0.00    -0.090 HD
ATOM     13  H   UNL     1      -2.756  -0.382   3.112  0.00  0.00    -0.090 HD
ENDBRANCH   9  10
ENDBRANCH   1   9
BRANCH   1  14
ATOM     14  N   UNL     1      -1.984  -0.278  -1.295  0.00  0.00    -0.291 NA
ATOM     15  C   UNL     1      -1.077  -0.779  -2.336  0.00  0.00    +0.106 C 
BRANCH  14  16
ATOM     16  C   UNL     1      -2.206   1.167  -1.442  0.00  0.00    +0.180 C 
BRANCH  16  17
ATOM     17  C   UNL     1      -3.097   1.421  -2.630  0.00  0.00    +0.227 C 
ATOM     18  O   UNL     1      -3.506   0.490  -3.291  0.00  0.00    -0.274 OA
ATOM     19  N   UNL     1      -3.438   2.682  -2.960  0.00  0.00    -0.312 N 
ATOM     20  H   UNL     1      -3.110   3.427  -2.432  0.00  0.00    +0.149 HD
BRANCH  19  21
ATOM     21  C   UNL     1      -4.304   2.929  -4.115  0.00  0.00    +0.067 C 
ATOM     22  C   UNL     1      -5.769   2.799  -3.692  0.00  0.00    +0.027 C 
ATOM     23  C   UNL     1      -4.051   4.340  -4.651  0.00  0.00    +0.027 C 
ENDBRANCH  19  21
ENDBRANCH  16  17
ENDBRANCH  14  16
ENDBRANCH   1  14
TORSDOF 7
