REMARK  Name = ZINC63547033
REMARK  6 active torsions:
REMARK  status: ('A' for Active; 'I' for Inactive)
REMARK    1  A    between atoms: C_3  and  C_6
REMARK    2  A    between atoms: C_10  and  C_20
REMARK    3  A    between atoms: C_14  and  C_16
REMARK    4  A    between atoms: N_22  and  C_23
REMARK    5  A    between atoms: C_23  and  C_24
REMARK    6  A    between atoms: C_24  and  C_25
REMARK                            x       y       z     vdW  Elec       q    Type
REMARK                         _______ _______ _______ _____ _____    ______ ____
ROOT
ATOM      1  C   UNL     1       3.567   0.619  -0.029  0.00  0.00    +0.085 C 
ATOM      2  N   UNL     1       4.204  -0.538  -0.047  0.00  0.00    -0.339 N 
ATOM      3  C   UNL     1       5.559  -0.589  -0.060  0.00  0.00    +0.116 C 
ATOM      4  C   UNL     1       6.362  -1.675  -0.078  0.00  0.00    +0.045 C 
ATOM      5  C   UNL     1       7.784  -1.166  -0.086  0.00  0.00    +0.185 C 
ATOM      6  N   UNL     1       7.650   0.301  -0.070  0.00  0.00    -0.218 NA
ATOM      7  N   UNL     1       6.308   0.578  -0.056  0.00  0.00    -0.215 N 
ATOM      8  C   UNL     1       5.680   1.803  -0.038  0.00  0.00    +0.133 C 
ATOM      9  C   UNL     1       4.335   1.865  -0.030  0.00  0.00    +0.058 C 
ATOM     10  H   UNL     1       8.110   0.698   0.735  0.00  0.00    +0.146 HD
ATOM     11  H   UNL     1       3.695  -1.363  -0.050  0.00  0.00    +0.167 HD
ENDROOT
BRANCH   1  14
ATOM     12  C   UNL     1      -0.016   1.346   0.009  0.00  0.00    +0.042 A 
ATOM     13  C   UNL     1       1.322   1.777  -0.001  0.00  0.00    +0.051 A 
ATOM     14  C   UNL     1       2.096   0.654  -0.014  0.00  0.00    +0.151 A 
ATOM     15  O   UNL     1       1.278  -0.417  -0.012  0.00  0.00    -0.461 OA
ATOM     16  C   UNL     1       0.002  -0.004   0.002  0.00  0.00    +0.196 A 
ENDBRANCH   1  14
BRANCH   8  17
ATOM     17  C   UNL     1       6.495   3.070  -0.033  0.00  0.00    +0.432 C 
ATOM     18  F   UNL     1       5.638   4.176  -0.015  0.00  0.00    -0.165 F 
ATOM     19  F   UNL     1       7.312   3.095   1.102  0.00  0.00    -0.165 F 
ATOM     20  F   UNL     1       7.292   3.117  -1.183  0.00  0.00    -0.165 F 
ENDBRANCH   8  17
BRANCH   5  21
ATOM     21  C   UNL     1       8.521  -1.642   1.140  0.00  0.00    +0.236 C 
ATOM     22  O   UNL     1       8.962  -0.838   1.933  0.00  0.00    -0.274 OA
ATOM     23  N   UNL     1       8.689  -2.962   1.354  0.00  0.00    -0.313 N 
ATOM     24  H   UNL     1       8.337  -3.605   0.720  0.00  0.00    +0.149 HD
BRANCH  23  25
ATOM     25  C   UNL     1       9.405  -3.425   2.546  0.00  0.00    +0.108 C 
BRANCH  25  26
ATOM     26  C   UNL     1       9.456  -4.954   2.548  0.00  0.00    +0.052 C 
BRANCH  26  27
ATOM     27  C   UNL     1      10.192  -5.430   3.773  0.00  0.00    -0.040 C 
ATOM     28  C   UNL     1       9.649  -5.812   4.952  0.00  0.00    +0.000 A 
ATOM     29  C   UNL     1       8.262  -5.893   5.427  0.00  0.00    +0.030 A 
ATOM     30  C   UNL     1       8.025  -6.322   6.688  0.00  0.00    +0.042 A 
ATOM     31  C   UNL     1       9.069  -6.689   7.551  0.00  0.00    +0.022 A 
ATOM     32  C   UNL     1      10.367  -6.640   7.186  0.00  0.00    +0.027 A 
ATOM     33  C   UNL     1      10.732  -6.205   5.881  0.00  0.00    +0.043 A 
ATOM     34  N   UNL     1      11.899  -6.072   5.300  0.00  0.00    -0.380 N 
ATOM     35  C   UNL     1      11.688  -5.585   3.933  0.00  0.00    +0.144 C 
ATOM     36 CL   UNL     1       6.387  -6.420   7.254  0.00  0.00    -0.084 Cl
ATOM     37  H   UNL     1      12.759  -6.267   5.705  0.00  0.00    +0.160 HD
ENDBRANCH  26  27
ENDBRANCH  25  26
ENDBRANCH  23  25
ENDBRANCH   5  21
TORSDOF 6
