REMARK  Name = ZINC22748712
REMARK  6 active torsions:
REMARK  status: ('A' for Active; 'I' for Inactive)
REMARK    1  A    between atoms: C_1  and  O_2
REMARK    2  A    between atoms: O_2  and  C_3
REMARK    3  A    between atoms: C_6  and  C_11
REMARK    4  A    between atoms: C_7  and  O_9
REMARK    5  A    between atoms: O_9  and  C_10
REMARK    6  A    between atoms: C_16  and  C_28
REMARK                            x       y       z     vdW  Elec       q    Type
REMARK                         _______ _______ _______ _____ _____    ______ ____
ROOT
ATOM      1  C   UNL     1      -0.013   1.086   0.008  0.00  0.00    +0.035 C 
ATOM      2  C   UNL     1      -0.703   1.585   1.279  0.00  0.00    +0.060 C 
ATOM      3  C   UNL     1       0.062   1.110   2.492  0.00  0.00    +0.020 C 
ATOM      4  C   UNL     1       1.400   0.944   2.445  0.00  0.00    +0.039 C 
ATOM      5  C   UNL     1       2.200   0.502   3.649  0.00  0.00    +0.158 C 
ATOM      6  N   UNL     1       1.312  -0.034   4.677  0.00  0.00    -0.301 N 
ATOM      7  C   UNL     1       1.600  -0.769   5.790  0.00  0.00    +0.069 A 
ATOM      8  C   UNL     1       2.790  -1.257   6.318  0.00  0.00    +0.028 A 
ATOM      9  C   UNL     1       2.707  -1.984   7.495  0.00  0.00    +0.002 A 
ATOM     10  C   UNL     1       1.499  -2.220   8.128  0.00  0.00    +0.002 A 
ATOM     11  C   UNL     1       0.301  -1.746   7.623  0.00  0.00    +0.028 A 
ATOM     12  C   UNL     1       0.360  -1.010   6.434  0.00  0.00    +0.066 A 
ATOM     13  N   UNL     1      -0.599  -0.421   5.692  0.00  0.00    -0.327 N 
ATOM     14  C   UNL     1      -0.053   0.153   4.655  0.00  0.00    +0.179 A 
ATOM     15  N   UNL     1      -0.661   0.860   3.633  0.00  0.00    -0.290 N 
ATOM     16  C   UNL     1       2.116   1.187   1.258  0.00  0.00    +0.164 C 
ATOM     17  O   UNL     1       3.322   1.042   1.252  0.00  0.00    -0.292 OA
ATOM     18  C   UNL     1       1.423   1.622  -0.003  0.00  0.00    +0.088 C 
ATOM     19  H   UNL     1      -1.698   1.220   3.718  0.00  0.00    +0.155 HD
ATOM     20  H   UNL     1      -1.651  -0.479   6.008  0.00  0.00    +0.169 HD
ENDROOT
BRANCH   5  21
ATOM     21  C   UNL     1       2.953   1.681   4.210  0.00  0.00    +0.005 A 
ATOM     22  C   UNL     1       2.419   2.823   4.671  0.00  0.00    +0.089 A 
ATOM     23  N   UNL     1       3.411   3.661   5.102  0.00  0.00    -0.360 N 
ATOM     24  H   UNL     1       3.156   4.646   5.521  0.00  0.00    +0.165 HD
ATOM     25  C   UNL     1       4.640   3.067   4.915  0.00  0.00    +0.047 A 
ATOM     26  C   UNL     1       4.407   1.801   4.348  0.00  0.00    +0.005 A 
ATOM     27  C   UNL     1       5.482   0.964   4.046  0.00  0.00    +0.010 A 
ATOM     28  C   UNL     1       6.758   1.381   4.302  0.00  0.00    +0.001 A 
ATOM     29  C   UNL     1       6.994   2.629   4.862  0.00  0.00    +0.002 A 
ATOM     30  C   UNL     1       5.947   3.471   5.168  0.00  0.00    +0.026 A 
ENDBRANCH   5  21
BRANCH   1  34
ATOM     31  C   UNL     1      -2.111   2.518  -3.432  0.00  0.00    +0.124 A 
ATOM     32  C   UNL     1      -1.575   3.415  -2.518  0.00  0.00    +0.046 A 
ATOM     33  C   UNL     1      -0.903   2.949  -1.405  0.00  0.00    +0.011 A 
ATOM     34  C   UNL     1      -0.752   1.590  -1.204  0.00  0.00    -0.002 A 
ATOM     35  C   UNL     1      -1.286   0.690  -2.115  0.00  0.00    +0.127 A 
ATOM     36  C   UNL     1      -1.966   1.155  -3.230  0.00  0.00    +0.091 A 
BRANCH  31  38
ATOM     37  C   UNL     1      -2.889   4.394  -4.669  0.00  0.00    +0.277 C 
ATOM     38  O   UNL     1      -2.778   2.977  -4.524  0.00  0.00    -0.495 OA
ENDBRANCH  31  38
BRANCH  35  39
ATOM     39  O   UNL     1      -1.143  -0.647  -1.914  0.00  0.00    -0.495 OA
ATOM     40  C   UNL     1      -1.718  -1.515  -2.892  0.00  0.00    +0.277 C 
ENDBRANCH  35  39
ENDBRANCH   1  34
TORSDOF 4
