REMARK  Name = ZINC08789781
REMARK  7 active torsions:
REMARK  status: ('A' for Active; 'I' for Inactive)
REMARK    1  A    between atoms: C_1  and  C_2
REMARK    2  A    between atoms: C_2  and  C_3
REMARK    3  A    between atoms: C_3  and  C_4
REMARK    4  A    between atoms: C_4  and  C_5
REMARK    5  A    between atoms: C_8  and  N_11
REMARK    6  A    between atoms: C_16  and  C_33
REMARK    7  A    between atoms: C_33  and  C_34
REMARK                            x       y       z     vdW  Elec       q    Type
REMARK                         _______ _______ _______ _____ _____    ______ ____
ROOT
ATOM      1  N   UNL     1      -0.017   1.398   0.010  0.00  0.00    -0.210 N 
ATOM      2  C   UNL     1       1.071   2.138  -0.237  0.00  0.00    +0.228 C 
ATOM      3  O   UNL     1       2.173   1.700  -0.486  0.00  0.00    -0.275 OA
ATOM      4  C   UNL     1       0.710   3.603  -0.155  0.00  0.00    +0.074 C 
ATOM      5  C   UNL     1       1.398   4.231   1.075  0.00  0.00    -0.049 C 
ATOM      6  C   UNL     1      -0.876   4.184   1.609  0.00  0.00    +0.050 C 
ATOM      7  C   UNL     1      -0.803   3.582   0.200  0.00  0.00    +0.088 C 
ATOM      8  C   UNL     1      -1.125   2.105   0.258  0.00  0.00    +0.229 C 
ATOM      9  O   UNL     1      -2.217   1.635   0.496  0.00  0.00    -0.275 OA
ATOM     10  C   UNL     1      -1.948   3.528   2.432  0.00  0.00    -0.026 A 
ATOM     11  C   UNL     1      -2.174   2.231   2.835  0.00  0.00    +0.024 A 
ATOM     12  C   UNL     1      -3.282   1.928   3.608  0.00  0.00    +0.041 A 
ATOM     13  C   UNL     1      -4.160   2.933   3.975  0.00  0.00    +0.022 A 
ATOM     14  C   UNL     1      -3.936   4.234   3.575  0.00  0.00    +0.025 A 
ATOM     15  C   UNL     1      -2.825   4.546   2.796  0.00  0.00    +0.036 A 
ATOM     16  N   UNL     1      -2.389   5.767   2.275  0.00  0.00    -0.286 N 
ATOM     17  C   UNL     1      -1.252   5.640   1.565  0.00  0.00    +0.211 C 
ATOM     18  O   UNL     1      -0.647   6.527   1.000  0.00  0.00    -0.277 OA
ATOM     19 CL   UNL     1      -3.568   0.293   4.116  0.00  0.00    -0.084 Cl
ATOM     20  H   UNL     1      -2.853   6.609   2.408  0.00  0.00    +0.155 HD
ATOM     21  N   UNL     1       0.451   3.998   2.168  0.00  0.00    +0.394 N 
ATOM     22  H   UNL     1       0.614   4.669   2.928  0.00  0.00    -0.083 HD
ATOM     23  H   UNL     1       0.554   3.042   2.528  0.00  0.00    -0.083 HD
ENDROOT
BRANCH   1  27
ATOM     24  C   UNL     1       0.041  -2.771  -0.014  0.00  0.00    -0.047 A 
ATOM     25  C   UNL     1      -0.666  -2.085  -0.985  0.00  0.00    +0.005 A 
ATOM     26  C   UNL     1      -0.687  -0.704  -0.979  0.00  0.00    +0.024 A 
ATOM     27  C   UNL     1       0.002  -0.004   0.002  0.00  0.00    +0.044 A 
ATOM     28  C   UNL     1       0.715  -0.695   0.972  0.00  0.00    +0.024 A 
ATOM     29  C   UNL     1       0.728  -2.076   0.965  0.00  0.00    +0.005 A 
BRANCH  24  30
ATOM     30  C   UNL     1       0.062  -4.277  -0.023  0.00  0.00    +0.035 C 
BRANCH  30  31
ATOM     31  C   UNL     1       1.243  -4.765  -0.865  0.00  0.00    +0.004 C 
BRANCH  31  33
ATOM     32  C   UNL     1       2.446  -6.783  -1.716  0.00  0.00    +0.004 C 
ATOM     33  C   UNL     1       1.265  -6.295  -0.874  0.00  0.00    -0.003 C 
ENDBRANCH  31  33
ENDBRANCH  30  31
ENDBRANCH  24  30
ENDBRANCH   1  27
BRANCH   5  34
ATOM     34  C   UNL     1       2.739   3.545   1.342  0.00  0.00    +0.080 C 
BRANCH  34  35
ATOM     35  C   UNL     1       3.449   4.251   2.469  0.00  0.00    +0.209 C 
ATOM     36  O   UNL     1       2.933   5.209   3.005  0.00  0.00    -0.276 OA
ATOM     37  N   UNL     1       4.657   3.819   2.880  0.00  0.00    -0.329 N 
ATOM     38  H   UNL     1       5.070   3.053   2.452  0.00  0.00    +0.145 HD
ATOM     39  H   UNL     1       5.114   4.273   3.605  0.00  0.00    +0.145 HD
ENDBRANCH  34  35
ENDBRANCH   5  34
TORSDOF 6
