REMARK  Name = ZINC35280268
REMARK  4 active torsions:
REMARK  status: ('A' for Active; 'I' for Inactive)
REMARK    1  A    between atoms: C_1  and  C_2
REMARK    2  A    between atoms: C_2  and  C_4
REMARK    3  A    between atoms: C_2  and  N_11
REMARK    4  A    between atoms: C_9  and  N_10
REMARK                            x       y       z     vdW  Elec       q    Type
REMARK                         _______ _______ _______ _____ _____    ______ ____
ROOT
ATOM      1  N   UNL     1       0.790  -0.366   1.183  0.00  0.00    -0.234 N 
ATOM      2  C   UNL     1       2.008   0.137   1.424  0.00  0.00    +0.223 C 
ATOM      3  O   UNL     1       2.593   0.929   0.719  0.00  0.00    -0.275 OA
ATOM      4  C   UNL     1       2.537  -0.443   2.720  0.00  0.00    +0.112 C 
ATOM      5  C   UNL     1       1.403  -1.373   3.183  0.00  0.00    +0.056 C 
ATOM      6  C   UNL     1       0.349  -1.223   2.114  0.00  0.00    +0.229 C 
ATOM      7  O   UNL     1      -0.723  -1.790   2.099  0.00  0.00    -0.275 OA
ATOM      8  C   UNL     1       0.862  -0.914   4.532  0.00  0.00    +0.016 C 
ATOM      9  C   UNL     1      -0.282  -1.835   4.965  0.00  0.00    +0.001 C 
ATOM     10  C   UNL     1       0.232  -3.272   5.064  0.00  0.00    +0.000 C 
ATOM     11  C   UNL     1       0.750  -3.726   3.697  0.00  0.00    +0.001 C 
ATOM     12  C   UNL     1       1.898  -2.812   3.259  0.00  0.00    +0.016 C 
ENDROOT
BRANCH   1  14
ATOM     13  C   UNL     1      -0.363   1.480   0.068  0.00  0.00    +0.034 C 
ATOM     14  C   UNL     1       0.002  -0.004   0.002  0.00  0.00    +0.113 C 
BRANCH  14  15
ATOM     15  C   UNL     1       0.811  -0.268  -1.242  0.00  0.00    -0.006 A 
ATOM     16  C   UNL     1       1.384   0.784  -1.930  0.00  0.00    +0.007 A 
ATOM     17  C   UNL     1       2.126   0.543  -3.072  0.00  0.00    +0.000 A 
ATOM     18  C   UNL     1       2.298  -0.751  -3.528  0.00  0.00    +0.002 A 
ATOM     19  C   UNL     1       1.729  -1.808  -2.844  0.00  0.00    +0.023 A 
ATOM     20  C   UNL     1       0.987  -1.569  -1.694  0.00  0.00    +0.030 A 
BRANCH  20  21
ATOM     21  N   UNL     1       0.414  -2.636  -0.997  0.00  0.00    -0.358 N 
ATOM     22  H   UNL     1      -0.107  -2.468  -0.196  0.00  0.00    +0.142 HD
ATOM     23  H   UNL     1       0.538  -3.544  -1.313  0.00  0.00    +0.142 HD
ENDBRANCH  20  21
ENDBRANCH  14  15
ENDBRANCH   1  14
TORSDOF 3
