REMARK  Name = ZINC65528252
REMARK  5 active torsions:
REMARK  status: ('A' for Active; 'I' for Inactive)
REMARK    1  A    between atoms: C_4  and  C_7
REMARK    2  A    between atoms: C_9  and  C_27
REMARK    3  A    between atoms: N_11  and  C_14
REMARK    4  A    between atoms: C_14  and  C_15
REMARK    5  A    between atoms: C_18  and  C_21
REMARK                            x       y       z     vdW  Elec       q    Type
REMARK                         _______ _______ _______ _____ _____    ______ ____
ROOT
ATOM      1  C   UNL     1       3.642  -0.642   0.231  0.00  0.00    +0.110 C 
ATOM      2  C   UNL     1       3.920  -1.321   1.589  0.00  0.00    +0.144 C 
ATOM      3  N   UNL     1       4.602  -2.593   1.268  0.00  0.00    -0.276 NA
ATOM      4  C   UNL     1       4.741  -2.647  -0.203  0.00  0.00    +0.169 C 
ATOM      5  N   UNL     1       3.662  -1.773  -0.736  0.00  0.00    -0.295 NA
ATOM      6  H   UNL     1       2.777  -2.257  -0.745  0.00  0.00    +0.124 HD
ENDROOT
BRANCH   2   7
ATOM      7  C   UNL     1       4.812  -0.449   2.434  0.00  0.00    +0.104 A 
ATOM      8  N   UNL     1       5.991   0.030   2.069  0.00  0.00    -0.349 N 
ATOM      9  C   UNL     1       6.483   0.764   3.088  0.00  0.00    +0.101 A 
ATOM     10  C   UNL     1       5.578   0.722   4.087  0.00  0.00    +0.101 A 
ATOM     11  N   UNL     1       4.544  -0.032   3.661  0.00  0.00    -0.349 N 
ATOM     12  H   UNL     1       3.742  -0.235   4.167  0.00  0.00    +0.166 HD
ATOM     13  H   UNL     1       6.426  -0.120   1.215  0.00  0.00    +0.166 HD
ENDBRANCH   2   7
BRANCH   1  17
ATOM     14  C   UNL     1      -0.186   1.253   0.249  0.00  0.00    +0.000 A 
ATOM     15  C   UNL     1       0.960   2.010   0.402  0.00  0.00    +0.000 A 
ATOM     16  C   UNL     1       2.199   1.397   0.396  0.00  0.00    +0.005 A 
ATOM     17  C   UNL     1       2.291   0.027   0.238  0.00  0.00    -0.029 A 
ATOM     18  C   UNL     1       1.145  -0.730   0.086  0.00  0.00    +0.005 A 
ATOM     19  C   UNL     1      -0.094  -0.117   0.090  0.00  0.00    +0.000 A 
ENDBRANCH   1  17
BRANCH   3  20
ATOM     20  C   UNL     1       5.914  -2.667   1.924  0.00  0.00    +0.119 C 
BRANCH  20  21
ATOM     21  C   UNL     1       6.407  -4.115   1.916  0.00  0.00    +0.167 C 
ATOM     22  C   UNL     1       7.836  -4.197   2.424  0.00  0.00    +0.032 C 
ATOM     23  C   UNL     1       8.522  -4.694   1.377  0.00  0.00    +0.091 C 
ATOM     24  N   UNL     1       7.690  -4.913   0.325  0.00  0.00    -0.154 NA
ATOM     25  N   UNL     1       6.507  -4.623   0.538  0.00  0.00    -0.178 NA
BRANCH  23  26
ATOM     26  C   UNL     1       9.982  -4.962   1.371  0.00  0.00    +0.002 A 
ATOM     27  C   UNL     1      10.744  -4.705   2.509  0.00  0.00    +0.010 A 
ATOM     28  C   UNL     1      12.101  -4.957   2.499  0.00  0.00    +0.001 A 
ATOM     29  C   UNL     1      12.704  -5.465   1.362  0.00  0.00    +0.000 A 
ATOM     30  C   UNL     1      11.952  -5.722   0.230  0.00  0.00    +0.001 A 
ATOM     31  C   UNL     1      10.594  -5.478   0.231  0.00  0.00    +0.010 A 
ENDBRANCH  23  26
ENDBRANCH  20  21
ENDBRANCH   3  20
TORSDOF 5
