REMARK  Name = ZINC67643463
REMARK  7 active torsions:
REMARK  status: ('A' for Active; 'I' for Inactive)
REMARK    1  A    between atoms: C_1  and  C_2
REMARK    2  A    between atoms: C_2  and  C_3
REMARK    3  A    between atoms: C_3  and  C_5
REMARK    4  A    between atoms: C_3  and  O_27
REMARK    5  A    between atoms: C_5  and  N_6
REMARK    6  A    between atoms: C_13  and  C_17
REMARK    7  A    between atoms: C_15  and  O_16
REMARK                            x       y       z     vdW  Elec       q    Type
REMARK                         _______ _______ _______ _____ _____    ______ ____
ROOT
ATOM      1  N   UNL     1       1.582  -2.520   2.361  0.00  0.00    +0.386 N 
ATOM      2  C   UNL     1       2.937  -1.978   2.364  0.00  0.00    -0.037 C 
ATOM      3  C   UNL     1       3.689  -2.209   3.656  0.00  0.00    +0.211 C 
ATOM      4  O   UNL     1       3.934  -3.606   3.860  0.00  0.00    -0.490 OA
ATOM      5  C   UNL     1       2.917  -4.294   4.452  0.00  0.00    +0.163 A 
ATOM      6  C   UNL     1       1.732  -4.490   3.770  0.00  0.00    -0.018 A 
ATOM      7  C   UNL     1       0.684  -5.157   4.365  0.00  0.00    +0.016 A 
ATOM      8  C   UNL     1       0.829  -5.656   5.662  0.00  0.00    +0.011 A 
ATOM      9  C   UNL     1       2.032  -5.474   6.346  0.00  0.00    +0.059 A 
ATOM     10  C   UNL     1       3.074  -4.794   5.743  0.00  0.00    +0.159 A 
ATOM     11  C   UNL     1       1.598  -3.987   2.345  0.00  0.00    -0.039 C 
ATOM     12  H   UNL     1       1.098  -2.204   3.188  0.00  0.00    -0.081 HD
ENDROOT
BRANCH   8  13
ATOM     13  C   UNL     1      -0.289  -6.375   6.308  0.00  0.00    +0.110 A 
ATOM     14  N   UNL     1      -1.483  -6.647   5.827  0.00  0.00    -0.239 NA
ATOM     15  C   UNL     1      -2.414  -7.316   6.535  0.00  0.00    +0.079 A 
ATOM     16  C   UNL     1      -3.726  -7.671   6.140  0.00  0.00    +0.029 A 
ATOM     17  C   UNL     1      -4.547  -8.353   6.981  0.00  0.00    +0.002 A 
ATOM     18  C   UNL     1      -4.138  -8.729   8.254  0.00  0.00    +0.001 A 
ATOM     19  C   UNL     1      -2.864  -8.402   8.680  0.00  0.00    +0.017 A 
ATOM     20  C   UNL     1      -2.026  -7.713   7.837  0.00  0.00    +0.040 A 
ATOM     21  S   UNL     1      -0.361  -7.102   7.939  0.00  0.00    -0.067 S 
ENDBRANCH   8  13
BRANCH  10  22
ATOM     22  O   UNL     1       4.247  -4.614   6.408  0.00  0.00    -0.503 OA
ATOM     23  H   UNL     1       4.281  -3.801   6.931  0.00  0.00    +0.292 HD
ENDBRANCH  10  22
BRANCH   1  24
ATOM     24  C   UNL     1       0.872  -2.034   1.171  0.00  0.00    -0.047 C 
BRANCH  24  25
ATOM     25  C   UNL     1       0.742  -0.511   1.242  0.00  0.00    +0.098 C 
BRANCH  25  27
ATOM     26  C   UNL     1      -0.019   1.526   0.010  0.00  0.00    +0.006 C 
ATOM     27  C   UNL     1       0.002  -0.004   0.002  0.00  0.00    +0.026 C 
ENDBRANCH  25  27
BRANCH  25  28
ATOM     28  O   UNL     1       0.010  -0.149   2.414  0.00  0.00    -0.394 OA
ATOM     29  H   UNL     1      -0.885  -0.514   2.447  0.00  0.00    +0.210 HD
ENDBRANCH  25  28
ENDBRANCH  24  25
ENDBRANCH   1  24
TORSDOF 6
