REMARK  Name = ZINC39369675
REMARK  9 active torsions:
REMARK  status: ('A' for Active; 'I' for Inactive)
REMARK    1  A    between atoms: C_1  and  C_2
REMARK    2  A    between atoms: C_2  and  C_3
REMARK    3  A    between atoms: C_2  and  O_4
REMARK    4  A    between atoms: O_4  and  C_5
REMARK    5  A    between atoms: C_5  and  C_7
REMARK    6  A    between atoms: C_12  and  C_13
REMARK    7  A    between atoms: C_16  and  C_18
REMARK    8  A    between atoms: N_19  and  N_20
REMARK    9  A    between atoms: C_21  and  C_22
REMARK                            x       y       z     vdW  Elec       q    Type
REMARK                         _______ _______ _______ _____ _____    ______ ____
ROOT
ATOM      1  C   UNL     1      -3.452  -4.277  -5.053  0.00  0.00    +0.137 A 
ATOM      2  C   UNL     1      -3.318  -5.587  -5.457  0.00  0.00    +0.050 A 
ATOM      3  C   UNL     1      -2.060  -5.703  -6.054  0.00  0.00    +0.051 A 
ATOM      4  C   UNL     1      -1.471  -4.454  -5.992  0.00  0.00    +0.148 A 
ATOM      5  O   UNL     1      -2.332  -3.609  -5.389  0.00  0.00    -0.454 OA
ENDROOT
BRANCH   1  11
ATOM      6  C   UNL     1      -4.463  -2.939  -3.199  0.00  0.00    +0.071 A 
ATOM      7  C   UNL     1      -5.585  -2.397  -2.570  0.00  0.00    +0.031 A 
ATOM      8  C   UNL     1      -6.842  -2.613  -3.096  0.00  0.00    +0.019 A 
ATOM      9  C   UNL     1      -7.002  -3.368  -4.249  0.00  0.00    +0.016 A 
ATOM     10  C   UNL     1      -5.908  -3.913  -4.886  0.00  0.00    +0.013 A 
ATOM     11  C   UNL     1      -4.625  -3.702  -4.374  0.00  0.00    +0.031 A 
ATOM     12 BR   UNL     1      -8.357  -1.876  -2.239  0.00  0.00    -0.050 Br
BRANCH   6  13
ATOM     13  C   UNL     1      -3.118  -2.711  -2.642  0.00  0.00    +0.340 C 
ATOM     14  O   UNL     1      -2.143  -3.181  -3.196  0.00  0.00    -0.245 OA
BRANCH  13  15
ATOM     15  O   UNL     1      -2.968  -1.982  -1.519  0.00  0.00    -0.458 OA
BRANCH  15  17
ATOM     16  C   UNL     1      -1.534  -0.459  -0.307  0.00  0.00    +0.052 C 
ATOM     17  C   UNL     1      -1.635  -1.801  -1.035  0.00  0.00    +0.171 C 
ATOM     18  C   UNL     1      -1.286  -2.934  -0.068  0.00  0.00    +0.052 C 
ENDBRANCH  15  17
ENDBRANCH  13  15
ENDBRANCH   6  13
ENDBRANCH   1  11
BRANCH   4  19
ATOM     19  C   UNL     1      -0.187  -4.118  -6.482  0.00  0.00    +0.178 C 
ATOM     20  N   UNL     1       0.300  -2.917  -6.277  0.00  0.00    -0.177 NA
BRANCH  20  21
ATOM     21  N   UNL     1      -0.315  -2.097  -5.494  0.00  0.00    -0.262 N 
ATOM     22  C   UNL     1       0.105  -0.854  -5.382  0.00  0.00    +0.143 C 
ATOM     23  N   UNL     1       1.202  -0.428  -6.103  0.00  0.00    -0.342 N 
ATOM     24  H   UNL     1       1.756  -1.074  -6.568  0.00  0.00    +0.144 HD
ATOM     25  H   UNL     1       1.418   0.516  -6.145  0.00  0.00    +0.144 HD
ATOM     26  H   UNL     1      -1.086  -2.396  -4.987  0.00  0.00    +0.190 HD
BRANCH  22  27
ATOM     27  C   UNL     1      -0.599   0.085  -4.486  0.00  0.00    +0.187 A 
ATOM     28  C   UNL     1      -0.062   1.353  -3.974  0.00  0.00    +0.191 A 
ATOM     29  N   UNL     1      -0.969   1.905  -3.216  0.00  0.00    -0.033 NA
ATOM     30  O   UNL     1      -2.101   1.054  -3.197  0.00  0.00    -0.240 OA
ATOM     31  N   UNL     1      -1.811  -0.067  -4.014  0.00  0.00    -0.044 NA
ATOM     32  N   UNL     1       1.195   1.874  -4.250  0.00  0.00    -0.339 N 
ATOM     33  H   UNL     1       1.835   1.353  -4.759  0.00  0.00    +0.144 HD
ATOM     34  H   UNL     1       1.433   2.760  -3.933  0.00  0.00    +0.144 HD
ENDBRANCH  22  27
ENDBRANCH  20  21
ENDBRANCH   4  19
TORSDOF 7
