REMARK  Name = ZINC20477464
REMARK  3 active torsions:
REMARK  status: ('A' for Active; 'I' for Inactive)
REMARK    1  A    between atoms: C_6  and  N_7
REMARK    2  A    between atoms: N_7  and  C_8
REMARK    3  A    between atoms: C_8  and  C_9
REMARK                            x       y       z     vdW  Elec       q    Type
REMARK                         _______ _______ _______ _____ _____    ______ ____
ROOT
ATOM      1  C   UNL     1      -2.567   4.521   0.049  0.00  0.00    +0.140 C 
ENDROOT
BRANCH   1   2
ATOM      2  C   UNL     1      -1.251   3.788   0.033  0.00  0.00    +0.019 A 
ATOM      3  C   UNL     1      -1.229   2.406   0.021  0.00  0.00    +0.029 A 
ATOM      4  C   UNL     1      -0.021   1.732   0.012  0.00  0.00    +0.043 A 
ATOM      5  C   UNL     1       1.168   2.439   0.004  0.00  0.00    +0.043 A 
ATOM      6  C   UNL     1       1.151   3.821   0.011  0.00  0.00    +0.089 A 
ATOM      7  C   UNL     1      -0.060   4.499   0.025  0.00  0.00    +0.202 A 
ATOM      8  O   UNL     1      -0.080   5.858   0.033  0.00  0.00    -0.286 OA
ATOM      9 CL   UNL     1       2.643   4.708   0.000  0.00  0.00    -0.080 Cl
ATOM     10 CL   UNL     1       0.002  -0.004   0.002  0.00  0.00    -0.083 Cl
ENDBRANCH   1   2
BRANCH   1  11
ATOM     11  N   UNL     1      -2.890   4.974  -1.306  0.00  0.00    -0.340 N 
ATOM     12  H   UNL     1      -2.202   4.757  -2.137  0.00  0.00    +0.146 HD
BRANCH  11  18
ATOM     13  C   UNL     1      -4.942   5.953  -0.496  0.00  0.00    +0.024 A 
ATOM     14  C   UNL     1      -6.105   6.660  -0.733  0.00  0.00    +0.016 A 
ATOM     15  C   UNL     1      -6.408   7.086  -2.013  0.00  0.00    +0.013 A 
ATOM     16  C   UNL     1      -5.545   6.813  -3.059  0.00  0.00    +0.016 A 
ATOM     17  C   UNL     1      -4.377   6.113  -2.828  0.00  0.00    +0.024 A 
ATOM     18  C   UNL     1      -4.070   5.683  -1.544  0.00  0.00    +0.027 A 
ATOM     19  I   UNL     1      -8.178   8.149  -2.369  0.00  0.00    -0.044 I 
ENDBRANCH  11  18
ENDBRANCH   1  11
TORSDOF 3
