REMARK  Name = ZINC03552102
REMARK  8 active torsions:
REMARK  status: ('A' for Active; 'I' for Inactive)
REMARK    1  A    between atoms: C_1  and  C_2
REMARK    2  A    between atoms: C_2  and  C_3
REMARK    3  A    between atoms: C_8  and  N_9
REMARK    4  A    between atoms: C_12  and  C_17
REMARK    5  A    between atoms: C_17  and  S_18
REMARK    6  A    between atoms: S_18  and  C_19
REMARK    7  A    between atoms: C_22  and  S_24
REMARK    8  A    between atoms: S_24  and  C_25
REMARK                            x       y       z     vdW  Elec       q    Type
REMARK                         _______ _______ _______ _____ _____    ______ ____
ROOT
ATOM      1  N   UNL     1       7.455   5.686  -2.385  0.00  0.00    -0.283 N 
ATOM      2  C   UNL     1       6.849   5.375  -1.183  0.00  0.00    +0.224 A 
ATOM      3  N   UNL     1       5.651   4.795  -1.171  0.00  0.00    -0.198 NA
ATOM      4  C   UNL     1       5.070   4.496  -0.022  0.00  0.00    +0.146 A 
ATOM      5  N   UNL     1       5.674   4.777   1.120  0.00  0.00    -0.199 NA
ATOM      6  C   UNL     1       6.874   5.353   1.116  0.00  0.00    +0.217 A 
ATOM      7  N   UNL     1       7.461   5.654  -0.037  0.00  0.00    -0.181 NA
ATOM      8  N   UNL     1       7.506   5.641   2.308  0.00  0.00    -0.327 N 
ATOM      9  H   UNL     1       7.048   5.405  -3.220  0.00  0.00    +0.155 HD
ATOM     10  H   UNL     1       8.379   6.063   2.305  0.00  0.00    +0.145 HD
ATOM     11  H   UNL     1       7.077   5.420   3.150  0.00  0.00    +0.145 HD
ENDROOT
BRANCH   1  17
ATOM     12  C   UNL     1       9.520   6.294  -3.478  0.00  0.00    -0.026 A 
ATOM     13  C   UNL     1      10.704   7.005  -3.487  0.00  0.00    +0.005 A 
ATOM     14  C   UNL     1      11.028   7.827  -2.423  0.00  0.00    +0.000 A 
ATOM     15  C   UNL     1      10.167   7.939  -1.346  0.00  0.00    +0.002 A 
ATOM     16  C   UNL     1       8.979   7.235  -1.333  0.00  0.00    +0.023 A 
ATOM     17  C   UNL     1       8.654   6.404  -2.397  0.00  0.00    +0.037 A 
BRANCH  12  19
ATOM     18  C   UNL     1       8.277   6.161  -5.619  0.00  0.00    +0.009 C 
ATOM     19  C   UNL     1       9.169   5.398  -4.638  0.00  0.00    +0.033 C 
ENDBRANCH  12  19
ENDBRANCH   1  17
BRANCH   4  20
ATOM     20  C   UNL     1       3.714   3.840  -0.013  0.00  0.00    +0.152 C 
BRANCH  20  21
ATOM     21  S   UNL     1       3.915   2.037  -0.033  0.00  0.00    -0.089 S 
BRANCH  21  22
ATOM     22  C   UNL     1       2.263   1.424  -0.021  0.00  0.00    +0.160 A 
ATOM     23  N   UNL     1       1.125   2.090  -0.001  0.00  0.00    -0.134 NA
ATOM     24  N   UNL     1      -0.069   1.405   0.006  0.00  0.00    -0.134 NA
ATOM     25  C   UNL     1      -0.068   0.086  -0.007  0.00  0.00    +0.159 A 
ATOM     26  S   UNL     1       1.683  -0.266  -0.030  0.00  0.00    -0.033 S 
BRANCH  25  27
ATOM     27  S   UNL     1      -1.431  -1.031  -0.002  0.00  0.00    -0.100 S 
ATOM     28  C   UNL     1      -2.886   0.052   0.026  0.00  0.00    +0.092 C 
ENDBRANCH  25  27
ENDBRANCH  21  22
ENDBRANCH  20  21
ENDBRANCH   4  20
TORSDOF 6
