REMARK  Name = ZINC01876743
REMARK  10 active torsions:
REMARK  status: ('A' for Active; 'I' for Inactive)
REMARK    1  A    between atoms: C_1  and  C_2
REMARK    2  A    between atoms: N_4  and  C_5
REMARK    3  A    between atoms: N_4  and  C_11
REMARK    4  A    between atoms: C_5  and  C_6
REMARK    5  A    between atoms: C_6  and  C_7
REMARK    6  A    between atoms: C_7  and  O_9
REMARK    7  A    between atoms: O_9  and  C_10
REMARK    8  A    between atoms: C_14  and  N_17
REMARK    9  A    between atoms: N_20  and  S_21
REMARK   10  A    between atoms: S_21  and  C_24
REMARK                            x       y       z     vdW  Elec       q    Type
REMARK                         _______ _______ _______ _____ _____    ______ ____
ROOT
ATOM      1  N   UNL     1       4.061   4.486  -4.310  0.00  0.00    -0.296 N 
ATOM      2  C   UNL     1       4.429   5.358  -3.304  0.00  0.00    +0.168 A 
ATOM      3  C   UNL     1       4.007   5.117  -1.901  0.00  0.00    +0.193 A 
ATOM      4  N   UNL     1       2.954   4.401  -1.611  0.00  0.00    -0.107 NA
ATOM      5  N   UNL     1       4.799   5.692  -0.914  0.00  0.00    -0.334 N 
ATOM      6  H   UNL     1       4.953   5.259  -0.060  0.00  0.00    +0.168 HD
ATOM      7  C   UNL     1       5.356   6.930  -1.228  0.00  0.00    +0.067 A 
ATOM      8  C   UNL     1       5.739   7.810  -0.228  0.00  0.00    +0.028 A 
ATOM      9  C   UNL     1       6.287   9.033  -0.562  0.00  0.00    +0.002 A 
ATOM     10  C   UNL     1       6.455   9.385  -1.893  0.00  0.00    +0.002 A 
ATOM     11  C   UNL     1       6.080   8.524  -2.899  0.00  0.00    +0.030 A 
ATOM     12  C   UNL     1       5.524   7.279  -2.579  0.00  0.00    +0.089 A 
ATOM     13  N   UNL     1       5.157   6.421  -3.567  0.00  0.00    -0.227 NA
ATOM     14  H   UNL     1       3.578   3.673  -4.094  0.00  0.00    +0.154 HD
ENDROOT
BRANCH   1  18
ATOM     15  C   UNL     1       5.026   5.348  -8.272  0.00  0.00    +0.036 A 
ATOM     16  C   UNL     1       5.898   5.704  -7.252  0.00  0.00    +0.025 A 
ATOM     17  C   UNL     1       5.579   5.419  -5.940  0.00  0.00    +0.025 A 
ATOM     18  C   UNL     1       4.385   4.775  -5.640  0.00  0.00    +0.033 A 
ATOM     19  C   UNL     1       3.514   4.414  -6.661  0.00  0.00    +0.025 A 
ATOM     20  C   UNL     1       3.832   4.704  -7.973  0.00  0.00    +0.025 A 
BRANCH  15  24
ATOM     21  C   UNL     1       6.874   6.563 -11.319  0.00  0.00    +0.109 C 
ATOM     22  C   UNL     1       6.572   6.115  -9.912  0.00  0.00    +0.217 C 
ATOM     23  O   UNL     1       7.429   6.184  -9.056  0.00  0.00    -0.276 OA
ATOM     24  N   UNL     1       5.350   5.637  -9.604  0.00  0.00    -0.271 N 
BRANCH  24  25
ATOM     25  C   UNL     1       4.360   5.421 -10.662  0.00  0.00    +0.125 C 
BRANCH  25  26
ATOM     26  C   UNL     1       3.457   6.651 -10.775  0.00  0.00    +0.140 C 
BRANCH  26  27
ATOM     27  C   UNL     1       2.439   6.429 -11.864  0.00  0.00    +0.308 C 
ATOM     28  O   UNL     1       2.436   5.393 -12.486  0.00  0.00    -0.251 OA
BRANCH  27  29
ATOM     29  O   UNL     1       1.535   7.382 -12.142  0.00  0.00    -0.468 OA
ATOM     30  C   UNL     1       0.585   7.099 -13.203  0.00  0.00    +0.280 C 
ENDBRANCH  27  29
ENDBRANCH  26  27
ENDBRANCH  25  26
ENDBRANCH  24  25
ENDBRANCH  15  24
ENDBRANCH   1  18
BRANCH   4  31
ATOM     31  S   UNL     1       2.530   4.156  -0.029  0.00  0.00    +0.101 S 
ATOM     32  O   UNL     1       2.151   5.423   0.491  0.00  0.00    -0.146 OA
ATOM     33  O   UNL     1       3.563   3.372   0.552  0.00  0.00    -0.146 OA
BRANCH  31  34
ATOM     34  C   UNL     1       1.079   3.156  -0.028  0.00  0.00    +0.113 A 
ATOM     35  C   UNL     1       1.189   1.779   0.003  0.00  0.00    +0.030 A 
ATOM     36  C   UNL     1       0.051   0.994   0.004  0.00  0.00    +0.022 A 
ATOM     37  C   UNL     1      -1.198   1.588  -0.031  0.00  0.00    +0.041 A 
ATOM     38  C   UNL     1      -1.308   2.967  -0.056  0.00  0.00    +0.022 A 
ATOM     39  C   UNL     1      -0.169   3.750  -0.057  0.00  0.00    +0.030 A 
ATOM     40 CL   UNL     1      -2.628   0.603  -0.037  0.00  0.00    -0.084 Cl
ENDBRANCH  31  34
ENDBRANCH   4  31
TORSDOF 8
