REMARK  Name = ZINC01323128
REMARK  9 active torsions:
REMARK  status: ('A' for Active; 'I' for Inactive)
REMARK    1  A    between atoms: C_1  and  O_2
REMARK    2  A    between atoms: O_2  and  C_3
REMARK    3  A    between atoms: C_5  and  C_13
REMARK    4  A    between atoms: C_7  and  O_11
REMARK    5  A    between atoms: C_8  and  O_9
REMARK    6  A    between atoms: O_9  and  C_10
REMARK    7  A    between atoms: O_11  and  C_12
REMARK    8  A    between atoms: C_18  and  C_23
REMARK    9  A    between atoms: C_36  and  C_38
REMARK                            x       y       z     vdW  Elec       q    Type
REMARK                         _______ _______ _______ _____ _____    ______ ____
ROOT
ATOM      1  C   UNL     1       1.160   2.182   0.556  0.00  0.00    +0.147 C 
ATOM      2  C   UNL     1       2.284   1.683  -0.320  0.00  0.00    +0.037 C 
ATOM      3  C   UNL     1       2.332   0.490  -0.936  0.00  0.00    +0.017 C 
ATOM      4  C   UNL     1       3.548   0.102  -1.762  0.00  0.00    +0.063 C 
ATOM      5  C   UNL     1       4.142   1.343  -2.427  0.00  0.00    +0.068 C 
ATOM      6  C   UNL     1       4.549   2.317  -1.315  0.00  0.00    +0.091 C 
ATOM      7  C   UNL     1       3.348   2.604  -0.466  0.00  0.00    +0.163 C 
ATOM      8  O   UNL     1       3.285   3.667   0.120  0.00  0.00    -0.292 OA
ATOM      9  N   UNL     1       1.359  -0.454  -0.881  0.00  0.00    -0.316 N 
ATOM     10  C   UNL     1       0.726  -0.872   0.284  0.00  0.00    +0.053 A 
ATOM     11  C   UNL     1       0.801  -2.178   0.737  0.00  0.00    +0.025 A 
ATOM     12  C   UNL     1       0.059  -2.555   1.843  0.00  0.00    +0.002 A 
ATOM     13  C   UNL     1      -0.747  -1.635   2.490  0.00  0.00    +0.002 A 
ATOM     14  C   UNL     1      -0.806  -0.325   2.050  0.00  0.00    +0.025 A 
ATOM     15  C   UNL     1      -0.052   0.061   0.953  0.00  0.00    +0.059 A 
ATOM     16  N   UNL     1      -0.044   1.380   0.501  0.00  0.00    -0.254 N 
ATOM     17  C   UNL     1      -1.175   1.915  -0.000  0.00  0.00    +0.252 C 
ATOM     18  O   UNL     1      -1.195   3.082  -0.343  0.00  0.00    -0.270 OA
ATOM     19  H   UNL     1       1.019  -0.948  -1.803  0.00  0.00    +0.152 HD
ENDROOT
BRANCH   1  22
ATOM     20  C   UNL     1       2.458   1.074   3.928  0.00  0.00    +0.165 A 
ATOM     21  C   UNL     1       2.011   1.045   2.616  0.00  0.00    +0.055 A 
ATOM     22  C   UNL     1       1.645   2.218   1.983  0.00  0.00    -0.015 A 
ATOM     23  C   UNL     1       1.730   3.425   2.652  0.00  0.00    +0.055 A 
ATOM     24  C   UNL     1       2.171   3.461   3.966  0.00  0.00    +0.165 A 
ATOM     25  C   UNL     1       2.539   2.284   4.606  0.00  0.00    +0.204 A 
BRANCH  20  27
ATOM     26  C   UNL     1       2.710  -1.287   3.792  0.00  0.00    +0.277 C 
ATOM     27  O   UNL     1       2.818  -0.081   4.550  0.00  0.00    -0.491 OA
ENDBRANCH  20  27
BRANCH  25  28
ATOM     28  O   UNL     1       2.978   2.316   5.894  0.00  0.00    -0.488 OA
ATOM     29  C   UNL     1       4.383   2.482   6.097  0.00  0.00    +0.277 C 
ENDBRANCH  25  28
BRANCH  24  30
ATOM     30  O   UNL     1       2.249   4.648   4.625  0.00  0.00    -0.491 OA
ATOM     31  C   UNL     1       1.752   5.802   3.945  0.00  0.00    +0.277 C 
ENDBRANCH  24  30
ENDBRANCH   1  22
BRANCH  17  32
ATOM     32  C   UNL     1      -2.390   1.084  -0.134  0.00  0.00    +0.037 A 
ATOM     33  C   UNL     1      -2.286  -0.307  -0.181  0.00  0.00    +0.013 A 
ATOM     34  C   UNL     1      -3.425  -1.077  -0.300  0.00  0.00    +0.001 A 
ATOM     35  C   UNL     1      -4.666  -0.472  -0.385  0.00  0.00    +0.000 A 
ATOM     36  C   UNL     1      -4.776   0.906  -0.345  0.00  0.00    +0.001 A 
ATOM     37  C   UNL     1      -3.646   1.688  -0.220  0.00  0.00    +0.013 A 
ENDBRANCH  17  32
BRANCH   5  38
ATOM     38  C   UNL     1       5.353   0.958  -3.237  0.00  0.00    +0.109 A 
ATOM     39  C   UNL     1       5.502   1.138  -4.562  0.00  0.00    +0.045 A 
ATOM     40  C   UNL     1       6.779   0.637  -4.902  0.00  0.00    +0.041 A 
ATOM     41  C   UNL     1       7.334   0.181  -3.765  0.00  0.00    +0.195 A 
ATOM     42  O   UNL     1       6.468   0.383  -2.759  0.00  0.00    -0.468 OA
ENDBRANCH   5  38
TORSDOF 6
