REMARK  Name = ZINC59490433
REMARK  8 active torsions:
REMARK  status: ('A' for Active; 'I' for Inactive)
REMARK    1  A    between atoms: C_1  and  C_2
REMARK    2  A    between atoms: C_2  and  N_3
REMARK    3  A    between atoms: C_4  and  S_14
REMARK    4  A    between atoms: N_5  and  C_6
REMARK    5  A    between atoms: C_6  and  C_7
REMARK    6  A    between atoms: C_7  and  C_8
REMARK    7  A    between atoms: S_14  and  C_15
REMARK    8  A    between atoms: N_20  and  C_23
REMARK                            x       y       z     vdW  Elec       q    Type
REMARK                         _______ _______ _______ _____ _____    ______ ____
ROOT
ATOM      1  N   UNL     1       0.569  -0.396   0.795  0.00  0.00    -0.326 N 
ATOM      2  C   UNL     1       0.698  -1.700   1.213  0.00  0.00    +0.129 C 
ATOM      3  N   UNL     1       1.306  -1.969   2.335  0.00  0.00    -0.367 N 
ATOM      4  H   UNL     1       1.004   0.317   1.289  0.00  0.00    +0.148 HD
ATOM      5  H   UNL     1       1.397  -2.889   2.630  0.00  0.00    +0.161 HD
ENDROOT
BRANCH   1   7
ATOM      6  C   UNL     1      -0.306   1.435  -0.570  0.00  0.00    +0.024 C 
ATOM      7  C   UNL     1      -0.224  -0.083  -0.396  0.00  0.00    +0.100 C 
ENDBRANCH   1   7
BRANCH   3   8
ATOM      8  C   UNL     1       1.853  -0.881   3.150  0.00  0.00    +0.119 C 
BRANCH   8   9
ATOM      9  C   UNL     1       2.510  -1.464   4.403  0.00  0.00    +0.056 C 
BRANCH   9  10
ATOM     10  C   UNL     1       3.073  -0.345   5.241  0.00  0.00    -0.046 A 
ATOM     11  C   UNL     1       4.370   0.087   5.037  0.00  0.00    +0.004 A 
ATOM     12  C   UNL     1       4.886   1.113   5.806  0.00  0.00    +0.000 A 
ATOM     13  C   UNL     1       4.105   1.708   6.779  0.00  0.00    +0.000 A 
ATOM     14  C   UNL     1       2.808   1.277   6.983  0.00  0.00    +0.000 A 
ATOM     15  C   UNL     1       2.290   0.253   6.211  0.00  0.00    +0.004 A 
ENDBRANCH   9  10
ENDBRANCH   8   9
ENDBRANCH   3   8
BRANCH   2  16
ATOM     16  S   UNL     1       0.040  -3.008   0.233  0.00  0.00    -0.079 S 
BRANCH  16  17
ATOM     17  C   UNL     1       1.462  -4.095  -0.061  0.00  0.00    +0.149 C 
ATOM     18  C   UNL     1       1.042  -5.328  -0.886  0.00  0.00    +0.120 C 
ATOM     19  C   UNL     1       1.869  -5.210  -2.148  0.00  0.00    +0.228 C 
ATOM     20  O   UNL     1       1.845  -5.986  -3.079  0.00  0.00    -0.275 OA
ATOM     21  N   UNL     1       2.631  -4.111  -2.074  0.00  0.00    -0.209 N 
ATOM     22  C   UNL     1       2.484  -3.408  -0.940  0.00  0.00    +0.240 C 
ATOM     23  O   UNL     1       3.074  -2.385  -0.663  0.00  0.00    -0.274 OA
BRANCH  21  24
ATOM     24  C   UNL     1       3.511  -3.728  -3.095  0.00  0.00    +0.044 A 
ATOM     25  C   UNL     1       4.882  -3.770  -2.884  0.00  0.00    +0.025 A 
ATOM     26  C   UNL     1       5.747  -3.392  -3.892  0.00  0.00    +0.016 A 
ATOM     27  C   UNL     1       5.248  -2.972  -5.112  0.00  0.00    +0.013 A 
ATOM     28  C   UNL     1       3.882  -2.928  -5.325  0.00  0.00    +0.016 A 
ATOM     29  C   UNL     1       3.013  -3.311  -4.322  0.00  0.00    +0.025 A 
ATOM     30  I   UNL     1       6.564  -2.399  -6.638  0.00  0.00    -0.044 I 
ENDBRANCH  21  24
ENDBRANCH  16  17
ENDBRANCH   2  16
TORSDOF 7
