REMARK  Name = ZINC05949374
REMARK  5 active torsions:
REMARK  status: ('A' for Active; 'I' for Inactive)
REMARK    1  A    between atoms: N_4  and  C_6
REMARK    2  A    between atoms: C_10  and  C_11
REMARK    3  A    between atoms: N_13  and  N_14
REMARK    4  A    between atoms: N_14  and  S_15
REMARK    5  A    between atoms: S_15  and  C_18
REMARK                            x       y       z     vdW  Elec       q    Type
REMARK                         _______ _______ _______ _____ _____    ______ ____
ROOT
ATOM      1  C   UNL     1       0.285  -2.531   1.949  0.00  0.00    +0.267 C 
ATOM      2  O   UNL     1      -0.233  -1.447   2.144  0.00  0.00    -0.268 OA
ATOM      3  N   UNL     1      -0.046  -3.585   2.721  0.00  0.00    -0.227 N 
ATOM      4  H   UNL     1       0.367  -4.449   2.566  0.00  0.00    +0.171 HD
ENDROOT
BRANCH   1   9
ATOM      5  C   UNL     1       1.744  -1.741  -0.024  0.00  0.00    +0.065 A 
ATOM      6  C   UNL     1       2.682  -2.200  -0.927  0.00  0.00    +0.034 A 
ATOM      7  C   UNL     1       3.060  -3.499  -0.880  0.00  0.00    +0.048 A 
ATOM      8  S   UNL     1       2.162  -4.149   0.382  0.00  0.00    -0.090 S 
ATOM      9  C   UNL     1       1.266  -2.690   0.878  0.00  0.00    +0.099 A 
BRANCH   5  13
ATOM     10  C   UNL     1      -0.016   1.344   0.009  0.00  0.00    +0.019 A 
ATOM     11  C   UNL     1       1.323   1.786  -0.001  0.00  0.00    +0.019 A 
ATOM     12  C   UNL     1       2.110   0.691  -0.014  0.00  0.00    +0.091 A 
ATOM     13  N   UNL     1       1.305  -0.413  -0.013  0.00  0.00    -0.322 N 
ATOM     14  C   UNL     1       0.002  -0.004   0.002  0.00  0.00    +0.091 A 
ENDBRANCH   5  13
ENDBRANCH   1   9
BRANCH   3  15
ATOM     15  N   UNL     1      -0.986  -3.432   3.748  0.00  0.00    -0.108 NA
ATOM     16  H   UNL     1      -0.857  -2.752   4.427  0.00  0.00    +0.172 HD
BRANCH  15  17
ATOM     17  S   UNL     1      -2.319  -4.414   3.804  0.00  0.00    +0.074 S 
ATOM     18  O   UNL     1      -2.992  -4.116   5.019  0.00  0.00    -0.152 OA
ATOM     19  O   UNL     1      -2.953  -4.310   2.536  0.00  0.00    -0.152 OA
BRANCH  17  20
ATOM     20  C   UNL     1      -1.739  -6.072   3.942  0.00  0.00    +0.107 A 
ATOM     21  C   UNL     1      -1.487  -6.813   2.802  0.00  0.00    +0.031 A 
ATOM     22  C   UNL     1      -1.032  -8.113   2.909  0.00  0.00    +0.040 A 
ATOM     23  C   UNL     1      -0.828  -8.674   4.159  0.00  0.00    +0.124 A 
ATOM     24  C   UNL     1      -1.081  -7.931   5.300  0.00  0.00    +0.040 A 
ATOM     25  C   UNL     1      -1.531  -6.629   5.190  0.00  0.00    +0.031 A 
ATOM     26  F   UNL     1      -0.384  -9.945   4.265  0.00  0.00    -0.205 F 
ENDBRANCH  17  20
ENDBRANCH  15  17
ENDBRANCH   3  15
TORSDOF 5
