REMARK  Name = ZINC02776626
REMARK  4 active torsions:
REMARK  status: ('A' for Active; 'I' for Inactive)
REMARK    1  A    between atoms: C_6  and  S_11
REMARK    2  A    between atoms: S_11  and  N_14
REMARK    3  A    between atoms: N_18  and  C_20
REMARK    4  A    between atoms: C_20  and  C_21
REMARK                            x       y       z     vdW  Elec       q    Type
REMARK                         _______ _______ _______ _____ _____    ______ ____
ROOT
ATOM      1  N   UNL     1       1.018   8.199  -1.549  0.00  0.00    -0.182 N 
ATOM      2  C   UNL     1      -0.081   7.906  -2.358  0.00  0.00    +0.254 A 
ATOM      3  N   UNL     1      -1.277   7.494  -1.926  0.00  0.00    -0.201 NA
ATOM      4  C   UNL     1      -2.078   7.313  -2.946  0.00  0.00    +0.221 A 
ATOM      5  N   UNL     1      -1.402   7.609  -4.068  0.00  0.00    -0.246 N 
ATOM      6  N   UNL     1      -0.113   7.996  -3.667  0.00  0.00    -0.132 NA
ATOM      7  H   UNL     1       1.769   8.694  -1.913  0.00  0.00    +0.177 HD
ENDROOT
BRANCH   1   8
ATOM      8  S   UNL     1       1.040   7.702   0.030  0.00  0.00    +0.075 S 
ATOM      9  O   UNL     1      -0.205   8.088   0.595  0.00  0.00    -0.150 OA
ATOM     10  O   UNL     1       2.285   8.123   0.571  0.00  0.00    -0.150 OA
BRANCH   8  16
ATOM     11  C   UNL     1      -0.013   1.076   0.008  0.00  0.00    +0.001 A 
ATOM     12  C   UNL     1      -1.235   1.746   0.017  0.00  0.00    +0.001 A 
ATOM     13  C   UNL     1      -1.288   3.106   0.031  0.00  0.00    +0.008 A 
ATOM     14  C   UNL     1      -0.096   3.849   0.023  0.00  0.00    -0.016 A 
ATOM     15  C   UNL     1      -0.111   5.254   0.030  0.00  0.00    +0.037 A 
ATOM     16  C   UNL     1       1.064   5.940   0.022  0.00  0.00    +0.109 A 
ATOM     17  C   UNL     1       2.286   5.270   0.007  0.00  0.00    +0.029 A 
ATOM     18  C   UNL     1       2.340   3.910  -0.000  0.00  0.00    +0.010 A 
ATOM     19  C   UNL     1       1.147   3.167   0.008  0.00  0.00    -0.018 A 
ATOM     20  C   UNL     1       1.163   1.762   0.000  0.00  0.00    +0.008 A 
ENDBRANCH   8  16
ENDBRANCH   1   8
BRANCH   5  21
ATOM     21  C   UNL     1      -1.910   7.545  -5.441  0.00  0.00    +0.182 C 
BRANCH  21  22
ATOM     22  C   UNL     1      -1.714   8.881  -6.112  0.00  0.00    -0.008 A 
ATOM     23  C   UNL     1      -2.744   9.803  -6.129  0.00  0.00    +0.008 A 
ATOM     24  C   UNL     1      -2.563  11.030  -6.739  0.00  0.00    +0.020 A 
ATOM     25  C   UNL     1      -1.355  11.331  -7.343  0.00  0.00    +0.042 A 
ATOM     26  C   UNL     1      -0.326  10.407  -7.330  0.00  0.00    +0.040 A 
ATOM     27  C   UNL     1      -0.506   9.181  -6.714  0.00  0.00    +0.047 A 
ATOM     28 CL   UNL     1       0.785   8.020  -6.698  0.00  0.00    -0.083 Cl
ATOM     29 CL   UNL     1      -1.131  12.870  -8.115  0.00  0.00    -0.083 Cl
ENDBRANCH  21  22
ENDBRANCH   5  21
TORSDOF 4
