REMARK  Name = ZINC63577473
REMARK  9 active torsions:
REMARK  status: ('A' for Active; 'I' for Inactive)
REMARK    1  A    between atoms: C_1  and  C_2
REMARK    2  A    between atoms: C_4  and  C_21
REMARK    3  A    between atoms: C_6  and  C_20
REMARK    4  A    between atoms: C_7  and  C_8
REMARK    5  A    between atoms: C_8  and  S_9
REMARK    6  A    between atoms: S_9  and  C_10
REMARK    7  A    between atoms: C_21  and  C_22
REMARK    8  A    between atoms: C_21  and  C_23
REMARK    9  A    between atoms: C_21  and  C_24
REMARK                            x       y       z     vdW  Elec       q    Type
REMARK                         _______ _______ _______ _____ _____    ______ ____
ROOT
ATOM      1  C   UNL     1      -0.018   1.503   0.010  0.00  0.00    +0.044 C 
ATOM      2  C   UNL     1       0.002  -0.004   0.002  0.00  0.00    -0.046 A 
ATOM      3  C   UNL     1       0.006  -0.689  -1.199  0.00  0.00    +0.007 A 
ATOM      4  C   UNL     1       0.025  -2.071  -1.206  0.00  0.00    -0.041 A 
ATOM      5  C   UNL     1       0.040  -2.768  -0.013  0.00  0.00    +0.007 A 
ATOM      6  C   UNL     1       0.037  -2.084   1.188  0.00  0.00    -0.046 A 
ATOM      7  C   UNL     1       0.023  -0.702   1.195  0.00  0.00    -0.031 A 
ATOM      8  C   UNL     1       0.054  -2.844   2.489  0.00  0.00    +0.044 C 
ENDROOT
BRANCH   4   9
ATOM      9  C   UNL     1       0.027  -2.817  -2.516  0.00  0.00    -0.013 C 
ATOM     10  C   UNL     1       1.267  -2.426  -3.323  0.00  0.00    +0.015 C 
ATOM     11  C   UNL     1       0.049  -4.323  -2.244  0.00  0.00    +0.015 C 
ATOM     12  C   UNL     1      -1.231  -2.460  -3.309  0.00  0.00    +0.015 C 
ENDBRANCH   4   9
BRANCH   7  13
ATOM     13  C   UNL     1       0.025   0.045   2.505  0.00  0.00    +0.111 C 
BRANCH  13  14
ATOM     14  S   UNL     1      -1.684   0.321   3.046  0.00  0.00    -0.103 S 
BRANCH  14  15
ATOM     15  C   UNL     1      -1.523   1.142   4.480  0.00  0.00    +0.108 C 
ATOM     16  N   UNL     1      -0.332   1.447   4.965  0.00  0.00    -0.231 NA
ATOM     17  C   UNL     1      -0.131   1.986   6.160  0.00  0.00    +0.224 C 
ATOM     18  N   UNL     1      -1.089   2.083   7.075  0.00  0.00    -0.218 NA
ATOM     19  C   UNL     1      -2.276   1.595   6.734  0.00  0.00    +0.163 C 
ATOM     20  N   UNL     1      -3.244   1.022   7.386  0.00  0.00    -0.219 NA
ATOM     21  C   UNL     1      -4.068   0.367   6.558  0.00  0.00    +0.218 C 
ATOM     22  N   UNL     1      -3.818   0.596   5.298  0.00  0.00    -0.254 NA
ATOM     23  C   UNL     1      -2.727   1.570   5.272  0.00  0.00    +0.229 C 
ENDBRANCH  14  15
ENDBRANCH  13  14
ENDBRANCH   7  13
TORSDOF 4
