REMARK  Name = ZINC17123084
REMARK  7 active torsions:
REMARK  status: ('A' for Active; 'I' for Inactive)
REMARK    1  A    between atoms: C_1  and  C_2
REMARK    2  A    between atoms: C_6  and  C_8
REMARK    3  A    between atoms: C_8  and  N_9
REMARK    4  A    between atoms: C_17  and  C_18
REMARK    5  A    between atoms: C_21  and  C_23
REMARK    6  A    between atoms: C_23  and  C_24
REMARK    7  A    between atoms: C_23  and  C_25
REMARK                            x       y       z     vdW  Elec       q    Type
REMARK                         _______ _______ _______ _____ _____    ______ ____
ROOT
ATOM      1  N   UNL     1      -0.090   5.842  -1.348  0.00  0.00    -0.332 N 
ATOM      2  C   UNL     1       1.026   6.131  -2.102  0.00  0.00    +0.050 A 
ATOM      3  C   UNL     1       2.392   6.060  -1.847  0.00  0.00    +0.026 A 
ATOM      4  C   UNL     1       3.291   6.426  -2.825  0.00  0.00    +0.002 A 
ATOM      5  C   UNL     1       2.849   6.865  -4.066  0.00  0.00    +0.001 A 
ATOM      6  C   UNL     1       1.514   6.936  -4.342  0.00  0.00    +0.010 A 
ATOM      7  C   UNL     1       0.582   6.574  -3.363  0.00  0.00    +0.001 A 
ATOM      8  C   UNL     1      -0.877   6.543  -3.319  0.00  0.00    +0.041 A 
ATOM      9  C   UNL     1      -1.227   6.095  -2.084  0.00  0.00    +0.107 A 
ENDROOT
BRANCH   9  10
ATOM     10  C   UNL     1      -2.607   5.909  -1.607  0.00  0.00    +0.265 A 
ATOM     11  N   UNL     1      -2.970   5.478  -0.419  0.00  0.00    -0.106 NA
ATOM     12  N   UNL     1      -4.255   5.442  -0.356  0.00  0.00    -0.112 NA
ATOM     13  C   UNL     1      -4.759   5.844  -1.489  0.00  0.00    +0.220 A 
ATOM     14  O   UNL     1      -3.735   6.154  -2.304  0.00  0.00    -0.419 OA
BRANCH  13  15
ATOM     15  C   UNL     1      -6.225   5.949  -1.823  0.00  0.00    +0.071 C 
ATOM     16  C   UNL     1      -6.876   4.570  -1.700  0.00  0.00    +0.017 C 
ATOM     17  C   UNL     1      -6.900   6.921  -0.853  0.00  0.00    +0.017 C 
ENDBRANCH  13  15
ENDBRANCH   9  10
BRANCH   1  18
ATOM     18  C   UNL     1      -0.070   5.347   0.030  0.00  0.00    +0.157 C 
BRANCH  18  24
ATOM     19  C   UNL     1      -2.514   0.980   0.019  0.00  0.00    +0.044 C 
ATOM     20  C   UNL     1      -1.219   1.751   0.017  0.00  0.00    -0.050 A 
ATOM     21  C   UNL     1      -0.013   1.076   0.008  0.00  0.00    +0.003 A 
ATOM     22  C   UNL     1       1.175   1.783   0.000  0.00  0.00    +0.001 A 
ATOM     23  C   UNL     1       1.156   3.166   0.008  0.00  0.00    +0.005 A 
ATOM     24  C   UNL     1      -0.050   3.840   0.022  0.00  0.00    -0.027 A 
ATOM     25  C   UNL     1      -1.238   3.133   0.029  0.00  0.00    +0.008 A 
ENDBRANCH  18  24
ENDBRANCH   1  18
TORSDOF 4
