REMARK  Name = ZINC64733579
REMARK  10 active torsions:
REMARK  status: ('A' for Active; 'I' for Inactive)
REMARK    1  A    between atoms: C_1  and  C_2
REMARK    2  A    between atoms: C_5  and  C_8
REMARK    3  A    between atoms: C_8  and  O_9
REMARK    4  A    between atoms: O_9  and  C_10
REMARK    5  A    between atoms: C_13  and  C_16
REMARK    6  A    between atoms: C_16  and  O_18
REMARK    7  A    between atoms: O_18  and  C_19
REMARK    8  A    between atoms: C_19  and  C_21
REMARK    9  A    between atoms: C_19  and  C_22
REMARK   10  A    between atoms: C_22  and  C_24
REMARK                            x       y       z     vdW  Elec       q    Type
REMARK                         _______ _______ _______ _____ _____    ______ ____
ROOT
ATOM      1  C   UNL     1       7.680  -5.232  -3.864  0.00  0.00    +0.340 C 
ATOM      2  O   UNL     1       7.660  -5.225  -5.079  0.00  0.00    -0.245 OA
ENDROOT
BRANCH   1   6
ATOM      3  C   UNL     1       4.675  -3.178  -1.678  0.00  0.00    +0.121 A 
ATOM      4  C   UNL     1       4.650  -3.169  -3.068  0.00  0.00    +0.046 A 
ATOM      5  C   UNL     1       5.623  -3.833  -3.781  0.00  0.00    +0.018 A 
ATOM      6  C   UNL     1       6.636  -4.518  -3.105  0.00  0.00    +0.059 A 
ATOM      7  C   UNL     1       6.658  -4.526  -1.707  0.00  0.00    +0.018 A 
ATOM      8  C   UNL     1       5.684  -3.854  -1.002  0.00  0.00    +0.046 A 
BRANCH   3   9
ATOM      9  O   UNL     1       3.714  -2.522  -0.980  0.00  0.00    -0.484 OA
BRANCH   9  10
ATOM     10  C   UNL     1       2.707  -1.849  -1.737  0.00  0.00    +0.302 C 
BRANCH  10  14
ATOM     11  C   UNL     1      -0.019   1.526   0.010  0.00  0.00    +0.065 C 
ATOM     12  C   UNL     1       0.002  -0.004   0.002  0.00  0.00    +0.240 C 
ATOM     13  N   UNL     1       0.714  -0.497  -1.184  0.00  0.00    -0.344 N 
ATOM     14  C   UNL     1       1.734  -1.182  -0.799  0.00  0.00    +0.141 C 
ATOM     15  N   UNL     1       1.827  -1.232   0.561  0.00  0.00    -0.248 N 
ATOM     16  O   UNL     1       0.748  -0.498   1.125  0.00  0.00    -0.249 OA
ATOM     17  H   UNL     1       2.517  -1.693   1.063  0.00  0.00    +0.196 HD
ATOM     18  H   UNL     1       0.458  -0.334  -2.105  0.00  0.00    +0.163 HD
ENDBRANCH  10  14
ENDBRANCH   9  10
ENDBRANCH   3   9
ENDBRANCH   1   6
BRANCH   1  19
ATOM     19  O   UNL     1       8.656  -5.892  -3.210  0.00  0.00    -0.450 OA
BRANCH  19  20
ATOM     20  C   UNL     1       9.634  -6.561  -4.009  0.00  0.00    +0.244 C 
ATOM     21  C   UNL     1      10.794  -5.606  -4.300  0.00  0.00    +0.061 C 
BRANCH  20  22
ATOM     22  C   UNL     1      10.150  -7.766  -3.266  0.00  0.00    +0.202 C 
ATOM     23  O   UNL     1       9.940  -7.882  -2.076  0.00  0.00    -0.288 OA
BRANCH  22  24
ATOM     24  C   UNL     1      10.878  -8.760  -3.953  0.00  0.00    +0.027 C 
ATOM     25  C   UNL     1      11.413  -9.922  -3.425  0.00  0.00    +0.006 A 
ATOM     26  C   UNL     1      11.417 -10.473  -2.122  0.00  0.00    +0.010 A 
ATOM     27  C   UNL     1      12.031 -11.653  -1.884  0.00  0.00    +0.001 A 
ATOM     28  C   UNL     1      12.684 -12.381  -2.893  0.00  0.00    +0.002 A 
ATOM     29  C   UNL     1      12.738 -11.942  -4.169  0.00  0.00    +0.026 A 
ATOM     30  C   UNL     1      12.093 -10.665  -4.514  0.00  0.00    +0.043 A 
ATOM     31  N   UNL     1      11.993 -10.018  -5.640  0.00  0.00    -0.380 N 
ATOM     32  C   UNL     1      11.233  -8.782  -5.424  0.00  0.00    +0.152 C 
ATOM     33  H   UNL     1      12.360 -10.309  -6.489  0.00  0.00    +0.160 HD
ENDBRANCH  22  24
ENDBRANCH  20  22
ENDBRANCH  19  20
ENDBRANCH   1  19
TORSDOF 8
