REMARK  Name = ZINC35649239
REMARK  4 active torsions:
REMARK  status: ('A' for Active; 'I' for Inactive)
REMARK    1  A    between atoms: C_1  and  C_2
REMARK    2  A    between atoms: C_3  and  C_9
REMARK    3  A    between atoms: C_7  and  N_8
REMARK    4  A    between atoms: C_9  and  N_10
REMARK                            x       y       z     vdW  Elec       q    Type
REMARK                         _______ _______ _______ _____ _____    ______ ____
ROOT
ATOM      1  C   UNL     1       0.025  -0.118  -2.600  0.00  0.00    +0.149 C 
ENDROOT
BRANCH   1   2
ATOM      2  N   UNL     1       1.405   0.162  -3.005  0.00  0.00    -0.261 N 
ATOM      3  C   UNL     1       2.048   1.333  -2.579  0.00  0.00    +0.079 A 
ATOM      4  C   UNL     1       1.535   2.082  -1.533  0.00  0.00    +0.027 A 
ATOM      5  C   UNL     1       2.184   3.234  -1.130  0.00  0.00    +0.002 A 
ATOM      6  C   UNL     1       3.343   3.639  -1.767  0.00  0.00    +0.004 A 
ATOM      7  C   UNL     1       3.860   2.895  -2.812  0.00  0.00    +0.047 A 
ATOM      8  C   UNL     1       3.216   1.740  -3.221  0.00  0.00    +0.143 A 
ATOM      9  O   UNL     1       3.712   0.995  -4.244  0.00  0.00    -0.481 OA
ATOM     10  C   UNL     1       3.509  -0.419  -4.168  0.00  0.00    +0.325 C 
ATOM     11  C   UNL     1       2.079  -0.707  -3.789  0.00  0.00    +0.258 C 
ATOM     12  O   UNL     1       1.534  -1.714  -4.191  0.00  0.00    -0.271 OA
ENDBRANCH   1   2
BRANCH   1  15
ATOM     13  C   UNL     1      -2.472  -0.979  -1.431  0.00  0.00    +0.046 C 
ATOM     14  C   UNL     1      -1.166  -1.357  -0.782  0.00  0.00    -0.025 A 
ATOM     15  C   UNL     1       0.029  -0.945  -1.341  0.00  0.00    -0.025 A 
ATOM     16  C   UNL     1       1.228  -1.292  -0.746  0.00  0.00    +0.005 A 
ATOM     17  C   UNL     1       1.236  -2.051   0.411  0.00  0.00    +0.002 A 
ATOM     18  C   UNL     1       0.045  -2.465   0.975  0.00  0.00    +0.023 A 
ATOM     19  C   UNL     1      -1.161  -2.114   0.383  0.00  0.00    +0.028 A 
BRANCH  19  20
ATOM     20  N   UNL     1      -2.368  -2.527   0.953  0.00  0.00    -0.358 N 
ATOM     21  H   UNL     1      -3.209  -2.285   0.537  0.00  0.00    +0.142 HD
ATOM     22  H   UNL     1      -2.363  -3.056   1.766  0.00  0.00    +0.142 HD
ENDBRANCH  19  20
ENDBRANCH   1  15
TORSDOF 3
