REMARK  Name = ZINC40370997
REMARK  9 active torsions:
REMARK  status: ('A' for Active; 'I' for Inactive)
REMARK    1  A    between atoms: C_1  and  C_2
REMARK    2  A    between atoms: C_2  and  C_3
REMARK    3  A    between atoms: C_3  and  C_4
REMARK    4  A    between atoms: C_3  and  C_6
REMARK    5  A    between atoms: C_3  and  N_10
REMARK    6  A    between atoms: C_4  and  C_5
REMARK    7  A    between atoms: N_7  and  O_8
REMARK    8  A    between atoms: C_11  and  C_13
REMARK    9  A    between atoms: C_18  and  C_19
REMARK                            x       y       z     vdW  Elec       q    Type
REMARK                         _______ _______ _______ _____ _____    ______ ____
ROOT
ATOM      1  C   UNL     1      -1.655  -1.427   0.089  0.00  0.00    +0.093 C 
ENDROOT
BRANCH   1   2
ATOM      2  C   UNL     1      -2.435  -0.941   1.283  0.00  0.00    +0.155 C 
ATOM      3  N   UNL     1      -2.909  -1.790   2.134  0.00  0.00    -0.075 NA
ATOM      4  N   UNL     1      -2.644   0.408   1.467  0.00  0.00    -0.342 N 
ATOM      5  H   UNL     1      -2.227   1.049   0.870  0.00  0.00    +0.144 HD
ATOM      6  H   UNL     1      -3.207   0.717   2.193  0.00  0.00    +0.144 HD
BRANCH   3   7
ATOM      7  O   UNL     1      -3.642  -1.333   3.256  0.00  0.00    -0.408 OA
ATOM      8  H   UNL     1      -3.956  -2.041   3.836  0.00  0.00    +0.328 HD
ENDBRANCH   3   7
ENDBRANCH   1   2
BRANCH   1   9
ATOM      9  N   UNL     1      -2.350  -1.037  -1.140  0.00  0.00    -0.299 N 
ATOM     10  C   UNL     1      -1.833  -1.367  -2.340  0.00  0.00    +0.245 C 
ATOM     11  O   UNL     1      -0.790  -1.988  -2.403  0.00  0.00    -0.270 OA
ATOM     12  H   UNL     1      -3.182  -0.542  -1.090  0.00  0.00    +0.150 HD
BRANCH  10  13
ATOM     13  C   UNL     1      -2.534  -0.974  -3.580  0.00  0.00    +0.040 A 
ATOM     14  C   UNL     1      -3.788  -0.364  -3.513  0.00  0.00    +0.014 A 
ATOM     15  C   UNL     1      -4.438   0.000  -4.674  0.00  0.00    +0.016 A 
ATOM     16  C   UNL     1      -3.848  -0.237  -5.904  0.00  0.00    +0.018 A 
ATOM     17  C   UNL     1      -2.604  -0.841  -5.978  0.00  0.00    +0.019 A 
ATOM     18  C   UNL     1      -1.942  -1.204  -4.823  0.00  0.00    -0.037 A 
ATOM     19  C   UNL     1      -0.585  -1.855  -4.904  0.00  0.00    +0.044 C 
ATOM     20 BR   UNL     1      -4.745   0.265  -7.491  0.00  0.00    -0.050 Br
ENDBRANCH  10  13
ENDBRANCH   1   9
BRANCH   1  22
ATOM     21  C   UNL     1       0.433  -1.133   1.430  0.00  0.00    +0.006 C 
ATOM     22  C   UNL     1      -0.258  -0.804   0.105  0.00  0.00    +0.030 C 
ENDBRANCH   1  22
BRANCH   1  23
ATOM     23  C   UNL     1      -1.534  -2.951   0.145  0.00  0.00    +0.030 C 
ATOM     24  C   UNL     1      -2.922  -3.579   0.004  0.00  0.00    +0.006 C 
ENDBRANCH   1  23
TORSDOF 6
