REMARK  Name = ZINC03252572
REMARK  10 active torsions:
REMARK  status: ('A' for Active; 'I' for Inactive)
REMARK    1  A    between atoms: C_1  and  C_2
REMARK    2  A    between atoms: C_2  and  O_3
REMARK    3  A    between atoms: O_3  and  C_4
REMARK    4  A    between atoms: C_4  and  C_6
REMARK    5  A    between atoms: C_10  and  N_11
REMARK    6  A    between atoms: C_12  and  C_14
REMARK    7  A    between atoms: C_14  and  C_16
REMARK    8  A    between atoms: C_14  and  N_60
REMARK    9  A    between atoms: C_19  and  C_22
REMARK   10  A    between atoms: C_26  and  C_30
REMARK                            x       y       z     vdW  Elec       q    Type
REMARK                         _______ _______ _______ _____ _____    ______ ____
ROOT
ATOM      1  N   UNL     1      -2.202  -6.165  -0.196  0.00  0.00    -0.281 N 
ATOM      2  C   UNL     1      -3.505  -6.274   0.128  0.00  0.00    +0.204 C 
ATOM      3  O   UNL     1      -4.215  -5.291   0.124  0.00  0.00    -0.277 OA
ATOM      4  H   UNL     1      -1.634  -6.952  -0.193  0.00  0.00    +0.155 HD
ENDROOT
BRANCH   1   9
ATOM      5  C   UNL     1      -0.367  -4.619  -0.891  0.00  0.00    +0.091 A 
ATOM      6  C   UNL     1      -0.069  -3.230  -1.200  0.00  0.00    -0.021 A 
ATOM      7  C   UNL     1      -1.115  -2.381  -1.102  0.00  0.00    -0.004 A 
ATOM      8  S   UNL     1      -2.478  -3.397  -0.608  0.00  0.00    -0.077 S 
ATOM      9  C   UNL     1      -1.672  -4.929  -0.532  0.00  0.00    +0.086 A 
ATOM     10  C   UNL     1      -1.108  -0.906  -1.359  0.00  0.00    +0.046 C 
ATOM     11  C   UNL     1       0.180  -0.553  -2.117  0.00  0.00    -0.009 C 
ATOM     12  C   UNL     1       1.366  -1.215  -1.409  0.00  0.00    +0.008 C 
ATOM     13  C   UNL     1       1.311  -2.730  -1.609  0.00  0.00    +0.037 C 
ATOM     14  C   UNL     1       0.370   0.965  -2.126  0.00  0.00    +0.008 C 
BRANCH   5  15
ATOM     15  C   UNL     1       0.670  -5.651  -0.956  0.00  0.00    +0.342 C 
ATOM     16  O   UNL     1       1.337  -5.905   0.029  0.00  0.00    -0.245 OA
BRANCH  15  17
ATOM     17  O   UNL     1       0.885  -6.319  -2.107  0.00  0.00    -0.461 OA
BRANCH  17  19
ATOM     18  C   UNL     1       2.025  -7.975  -3.482  0.00  0.00    +0.048 C 
ATOM     19  C   UNL     1       1.929  -7.329  -2.098  0.00  0.00    +0.229 C 
ENDBRANCH  17  19
ENDBRANCH  15  17
ENDBRANCH   5  15
ENDBRANCH   1   9
BRANCH   2  20
ATOM     20  C   UNL     1      -4.081  -7.618   0.494  0.00  0.00    +0.016 C 
ATOM     21  C   UNL     1      -3.911  -7.854   1.996  0.00  0.00    -0.004 C 
BRANCH  20  27
ATOM     22  C   UNL     1      -6.285  -6.788   1.055  0.00  0.00    -0.077 C 
ATOM     23  C   UNL     1      -7.778  -6.956   0.765  0.00  0.00    -0.006 C 
ATOM     24  C   UNL     1      -8.055  -6.579  -0.693  0.00  0.00    +0.071 C 
ATOM     25  C   UNL     1      -7.199  -7.457  -1.611  0.00  0.00    -0.006 C 
ATOM     26  C   UNL     1      -5.723  -7.274  -1.252  0.00  0.00    -0.077 C 
ATOM     27  N   UNL     1      -5.518  -7.677   0.156  0.00  0.00    +0.387 N 
ATOM     28  H   UNL     1      -5.850  -8.641   0.278  0.00  0.00    -0.081 HD
BRANCH  24  29
ATOM     29  C   UNL     1      -9.514  -6.800  -1.002  0.00  0.00    +0.213 C 
ATOM     30  O   UNL     1      -9.838  -7.581  -1.871  0.00  0.00    -0.276 OA
ATOM     31  N   UNL     1     -10.457  -6.128  -0.313  0.00  0.00    -0.329 N 
ATOM     32  H   UNL     1     -10.198  -5.502   0.381  0.00  0.00    +0.145 HD
ATOM     33  H   UNL     1     -11.396  -6.270  -0.512  0.00  0.00    +0.145 HD
ENDBRANCH  24  29
ENDBRANCH  20  27
ENDBRANCH   2  20
TORSDOF 7
