REMARK  Name = ZINC59016296
REMARK  10 active torsions:
REMARK  status: ('A' for Active; 'I' for Inactive)
REMARK    1  A    between atoms: C_4  and  C_7
REMARK    2  A    between atoms: C_8  and  C_9
REMARK    3  A    between atoms: N_10  and  N_11
REMARK    4  A    between atoms: C_14  and  S_17
REMARK    5  A    between atoms: S_17  and  C_18
REMARK    6  A    between atoms: C_18  and  C_19
REMARK    7  A    between atoms: N_21  and  C_22
REMARK    8  A    between atoms: C_27  and  S_28
REMARK    9  A    between atoms: S_28  and  C_29
REMARK   10  A    between atoms: C_29  and  C_30
REMARK                            x       y       z     vdW  Elec       q    Type
REMARK                         _______ _______ _______ _____ _____    ______ ____
ROOT
ATOM      1  C   UNL     1       5.639 -10.967  -0.134  0.00  0.00    +0.173 C 
ENDROOT
BRANCH   1   2
ATOM      2  C   UNL     1       4.847 -12.250  -0.125  0.00  0.00    +0.228 C 
ATOM      3  O   UNL     1       3.635 -12.214  -0.115  0.00  0.00    -0.275 OA
ATOM      4  N   UNL     1       5.487 -13.436  -0.128  0.00  0.00    -0.284 N 
ATOM      5  H   UNL     1       6.454 -13.466  -0.201  0.00  0.00    +0.155 HD
BRANCH   4   6
ATOM      6  C   UNL     1       4.755 -14.627  -0.025  0.00  0.00    +0.047 A 
ATOM      7  C   UNL     1       3.501 -14.725  -0.609  0.00  0.00    +0.024 A 
ATOM      8  C   UNL     1       2.781 -15.901  -0.507  0.00  0.00    +0.002 A 
ATOM      9  C   UNL     1       3.306 -16.981   0.178  0.00  0.00    +0.001 A 
ATOM     10  C   UNL     1       4.555 -16.893   0.764  0.00  0.00    +0.016 A 
ATOM     11  C   UNL     1       5.287 -15.719   0.661  0.00  0.00    +0.029 A 
BRANCH  11  12
ATOM     12  S   UNL     1       6.882 -15.605   1.401  0.00  0.00    -0.119 S 
BRANCH  12  13
ATOM     13  C   UNL     1       7.133 -17.234   2.158  0.00  0.00    +0.109 C 
BRANCH  13  14
ATOM     14  C   UNL     1       8.479 -17.273   2.834  0.00  0.00    -0.037 A 
ATOM     15  C   UNL     1       9.596 -17.679   2.128  0.00  0.00    +0.007 A 
ATOM     16  C   UNL     1      10.831 -17.714   2.748  0.00  0.00    +0.038 A 
ATOM     17  C   UNL     1      10.949 -17.342   4.076  0.00  0.00    +0.123 A 
ATOM     18  C   UNL     1       9.830 -16.935   4.782  0.00  0.00    +0.038 A 
ATOM     19  C   UNL     1       8.597 -16.896   4.159  0.00  0.00    +0.007 A 
ATOM     20  F   UNL     1      12.155 -17.376   4.683  0.00  0.00    -0.205 F 
ENDBRANCH  13  14
ENDBRANCH  12  13
ENDBRANCH  11  12
ENDBRANCH   4   6
ENDBRANCH   1   2
BRANCH   1  21
ATOM     21  S   UNL     1       4.501  -9.555  -0.128  0.00  0.00    -0.075 S 
BRANCH  21  25
ATOM     22  N   UNL     1       6.195  -4.699  -0.150  0.00  0.00    -0.205 N 
ATOM     23  C   UNL     1       6.219  -6.082  -0.148  0.00  0.00    +0.232 A 
ATOM     24  N   UNL     1       5.167  -6.874  -0.138  0.00  0.00    -0.186 NA
ATOM     25  C   UNL     1       5.565  -8.150  -0.139  0.00  0.00    +0.211 A 
ATOM     26  N   UNL     1       6.877  -8.188  -0.149  0.00  0.00    -0.144 NA
ATOM     27  N   UNL     1       7.324  -6.857  -0.161  0.00  0.00    -0.245 N 
ATOM     28  H   UNL     1       7.027  -4.200  -0.162  0.00  0.00    +0.177 HD
ATOM     29  H   UNL     1       8.246  -6.554  -0.173  0.00  0.00    +0.192 HD
BRANCH  22  31
ATOM     30  C   UNL     1       4.948  -2.717  -0.138  0.00  0.00    +0.130 C 
ATOM     31  N   UNL     1       4.970  -4.020  -0.135  0.00  0.00    -0.188 NA
BRANCH  30  33
ATOM     32  C   UNL     1       3.686  -0.680  -0.125  0.00  0.00    +0.009 C 
ATOM     33  C   UNL     1       3.709  -2.029  -0.123  0.00  0.00    +0.022 C 
BRANCH  32  37
ATOM     34  C   UNL     1      -0.023   1.378  -0.081  0.00  0.00    +0.000 A 
ATOM     35  C   UNL     1       1.161   2.094  -0.098  0.00  0.00    +0.001 A 
ATOM     36  C   UNL     1       2.371   1.432  -0.112  0.00  0.00    +0.008 A 
ATOM     37  C   UNL     1       2.399   0.034  -0.109  0.00  0.00    -0.025 A 
ATOM     38  C   UNL     1       1.198  -0.682  -0.093  0.00  0.00    +0.008 A 
ATOM     39  C   UNL     1      -0.004  -0.006  -0.079  0.00  0.00    +0.001 A 
ENDBRANCH  32  37
ENDBRANCH  30  33
ENDBRANCH  22  31
ENDBRANCH  21  25
ENDBRANCH   1  21
TORSDOF 10
