REMARK  Name = ZINC35778421
REMARK  6 active torsions:
REMARK  status: ('A' for Active; 'I' for Inactive)
REMARK    1  A    between atoms: C_1  and  C_2
REMARK    2  A    between atoms: N_8  and  S_9
REMARK    3  A    between atoms: S_9  and  C_12
REMARK    4  A    between atoms: C_15  and  C_18
REMARK    5  A    between atoms: C_18  and  C_20
REMARK    6  A    between atoms: C_18  and  O_21
REMARK                            x       y       z     vdW  Elec       q    Type
REMARK                         _______ _______ _______ _____ _____    ______ ____
ROOT
ATOM      1  S   UNL     1       1.366   0.537   2.296  0.00  0.00    +0.061 S 
ATOM      2  O   UNL     1       2.586  -0.006   2.782  0.00  0.00    -0.153 OA
ATOM      3  O   UNL     1       1.277   1.849   1.759  0.00  0.00    -0.153 OA
ENDROOT
BRANCH   1  10
ATOM      4  C   UNL     1      -0.446   1.433   0.288  0.00  0.00    +0.028 C 
ATOM      5  C   UNL     1      -0.205  -0.072   0.157  0.00  0.00    +0.102 C 
ATOM      6  C   UNL     1       0.293  -0.393  -1.257  0.00  0.00    +0.180 C 
ATOM      7  O   UNL     1       0.691  -1.765  -1.315  0.00  0.00    -0.377 OA
ATOM      8  C   UNL     1       1.780  -2.096  -0.450  0.00  0.00    +0.177 C 
ATOM      9  C   UNL     1       1.359  -1.861   1.005  0.00  0.00    +0.138 C 
ATOM     10  N   UNL     1       0.824  -0.495   1.119  0.00  0.00    -0.169 NA
ENDBRANCH   1  10
BRANCH   1  11
ATOM     11  C   UNL     1       0.215   0.458   3.628  0.00  0.00    +0.106 A 
ATOM     12  C   UNL     1      -0.869   1.315   3.656  0.00  0.00    +0.029 A 
ATOM     13  C   UNL     1      -1.772   1.254   4.700  0.00  0.00    +0.008 A 
ATOM     14  C   UNL     1      -1.591   0.335   5.717  0.00  0.00    -0.019 A 
ATOM     15  C   UNL     1      -0.508  -0.523   5.689  0.00  0.00    +0.008 A 
ATOM     16  C   UNL     1       0.393  -0.464   4.642  0.00  0.00    +0.029 A 
BRANCH  14  17
ATOM     17  C   UNL     1      -2.575   0.269   6.856  0.00  0.00    +0.141 C 
ATOM     18  C   UNL     1      -3.548  -0.889   6.624  0.00  0.00    +0.043 C 
BRANCH  17  19
ATOM     19  O   UNL     1      -1.871   0.061   8.082  0.00  0.00    -0.387 OA
ATOM     20  H   UNL     1      -2.443   0.008   8.861  0.00  0.00    +0.210 HD
ENDBRANCH  17  19
ENDBRANCH  14  17
ENDBRANCH   1  11
TORSDOF 4
