REMARK  Name = ZINC32764784
REMARK  10 active torsions:
REMARK  status: ('A' for Active; 'I' for Inactive)
REMARK    1  A    between atoms: C_1  and  C_2
REMARK    2  A    between atoms: C_2  and  C_4
REMARK    3  A    between atoms: C_2  and  N_17
REMARK    4  A    between atoms: N_6  and  C_7
REMARK    5  A    between atoms: N_21  and  C_24
REMARK    6  A    between atoms: C_24  and  C_25
REMARK    7  A    between atoms: N_27  and  C_28
REMARK    8  A    between atoms: C_28  and  C_29
REMARK    9  A    between atoms: C_28  and  C_30
REMARK   10  A    between atoms: C_28  and  C_31
REMARK                            x       y       z     vdW  Elec       q    Type
REMARK                         _______ _______ _______ _____ _____    ______ ____
ROOT
ATOM      1  N   UNL     1       1.772  -5.167   0.308  0.00  0.00    +0.388 N 
ATOM      2  C   UNL     1       0.331  -5.176   0.649  0.00  0.00    -0.076 C 
ATOM      3  C   UNL     1      -0.471  -4.146  -0.162  0.00  0.00    -0.003 C 
ATOM      4  C   UNL     1       0.261  -2.834  -0.294  0.00  0.00    +0.083 C 
ATOM      5  N   UNL     1       1.046  -2.859  -1.547  0.00  0.00    -0.296 NA
ATOM      6  C   UNL     1       2.255  -3.559  -1.450  0.00  0.00    +0.066 C 
ATOM      7  C   UNL     1       2.037  -5.047  -1.108  0.00  0.00    -0.062 C 
ATOM      8  H   UNL     1       2.197  -4.253   0.747  0.00  0.00    -0.081 HD
ENDROOT
BRANCH   1  10
ATOM      9  C   UNL     1       2.068  -6.492   2.346  0.00  0.00    -0.004 C 
ATOM     10  C   UNL     1       2.454  -6.339   0.873  0.00  0.00    +0.016 C 
BRANCH  10  11
ATOM     11  C   UNL     1       3.946  -6.154   0.762  0.00  0.00    +0.200 C 
ATOM     12  O   UNL     1       4.418  -5.037   0.738  0.00  0.00    -0.278 OA
ATOM     13  N   UNL     1       4.754  -7.230   0.688  0.00  0.00    -0.311 N 
ATOM     14  H   UNL     1       4.326  -8.242   0.709  0.00  0.00    +0.149 HD
BRANCH  13  15
ATOM     15  C   UNL     1       6.204  -7.050   0.579  0.00  0.00    +0.035 C 
ATOM     16  C   UNL     1       6.717  -6.286   1.801  0.00  0.00    +0.029 C 
ATOM     17  C   UNL     1       8.231  -6.098   1.688  0.00  0.00    -0.008 C 
ATOM     18  C   UNL     1       8.911  -7.467   1.620  0.00  0.00    +0.007 C 
ATOM     19  C   UNL     1       8.398  -8.232   0.398  0.00  0.00    -0.008 C 
ATOM     20  C   UNL     1       6.884  -8.419   0.511  0.00  0.00    +0.029 C 
ATOM     21  C   UNL     1       8.720  -7.439  -0.871  0.00  0.00    +0.007 C 
ATOM     22  C   UNL     1       8.040  -6.070  -0.803  0.00  0.00    -0.008 C 
ATOM     23  C   UNL     1       8.553  -5.306   0.419  0.00  0.00    +0.007 C 
ATOM     24  C   UNL     1       6.526  -6.258  -0.690  0.00  0.00    +0.029 C 
ENDBRANCH  13  15
ENDBRANCH  10  11
ENDBRANCH   1  10
BRANCH   5  25
ATOM     25  C   UNL     1       1.266  -1.499  -2.058  0.00  0.00    +0.180 C 
BRANCH  25  26
ATOM     26  C   UNL     1      -0.062  -0.864  -2.381  0.00  0.00    +0.227 C 
ATOM     27  O   UNL     1      -1.090  -1.483  -2.203  0.00  0.00    -0.274 OA
ATOM     28  N   UNL     1      -0.108   0.392  -2.868  0.00  0.00    -0.310 N 
ATOM     29  H   UNL     1       0.824   0.955  -3.025  0.00  0.00    +0.149 HD
BRANCH  28  30
ATOM     30  C   UNL     1      -1.399   1.008  -3.187  0.00  0.00    +0.026 C 
ATOM     31  C   UNL     1      -2.261   1.069  -1.925  0.00  0.00    +0.031 C 
ATOM     32  C   UNL     1      -1.170   2.424  -3.718  0.00  0.00    +0.031 C 
ATOM     33  C   UNL     1      -2.112   0.172  -4.252  0.00  0.00    +0.031 C 
ENDBRANCH  28  30
ENDBRANCH  25  26
ENDBRANCH   5  25
TORSDOF 6
