REMARK  Name = ZINC14018102
REMARK  6 active torsions:
REMARK  status: ('A' for Active; 'I' for Inactive)
REMARK    1  A    between atoms: C_4  and  N_23
REMARK    2  A    between atoms: C_5  and  C_7
REMARK    3  A    between atoms: N_9  and  C_10
REMARK    4  A    between atoms: C_10  and  N_12
REMARK    5  A    between atoms: N_12  and  N_13
REMARK    6  A    between atoms: C_14  and  C_16
REMARK                            x       y       z     vdW  Elec       q    Type
REMARK                         _______ _______ _______ _____ _____    ______ ____
ROOT
ATOM      1  C   UNL     1       0.167  -4.205  -0.286  0.00  0.00    +0.153 C 
ATOM      2  S   UNL     1       1.665  -5.025  -0.179  0.00  0.00    -0.017 S 
ENDROOT
BRANCH   1   5
ATOM      3  C   UNL     1       1.274  -2.158  -0.106  0.00  0.00    +0.252 C 
ATOM      4  O   UNL     1       2.338  -2.740  -0.030  0.00  0.00    -0.270 OA
ATOM      5  N   UNL     1       0.130  -2.858  -0.238  0.00  0.00    -0.263 N 
ATOM      6  H   UNL     1      -0.719  -2.394  -0.299  0.00  0.00    +0.157 HD
BRANCH   3  11
ATOM      7  C   UNL     1       0.587   1.418  -1.025  0.00  0.00    +0.001 A 
ATOM      8  C   UNL     1       1.160   2.085   0.043  0.00  0.00    +0.002 A 
ATOM      9  C   UNL     1       1.770   1.376   1.063  0.00  0.00    +0.033 A 
ATOM     10  C   UNL     1       1.810  -0.002   1.020  0.00  0.00    +0.138 A 
ATOM     11  C   UNL     1       1.234  -0.681  -0.054  0.00  0.00    +0.067 A 
ATOM     12  C   UNL     1       0.620   0.040  -1.080  0.00  0.00    +0.015 A 
BRANCH  10  13
ATOM     13  N   UNL     1       2.463  -0.759   2.112  0.00  0.00    +0.057 N 
ATOM     14  O   UNL     1       3.064  -0.170   2.980  0.00  0.00    -0.126 OA
ATOM     15  O   UNL     1       2.396  -1.966   2.135  0.00  0.00    -0.126 OA
ENDBRANCH  10  13
ENDBRANCH   3  11
ENDBRANCH   1   5
BRANCH   1  16
ATOM     16  N   UNL     1      -0.977  -4.906  -0.418  0.00  0.00    -0.245 N 
ATOM     17  H   UNL     1      -0.951  -5.875  -0.452  0.00  0.00    +0.172 HD
BRANCH  16  18
ATOM     18  N   UNL     1      -2.204  -4.234  -0.506  0.00  0.00    -0.231 N 
ATOM     19  C   UNL     1      -3.348  -4.935  -0.638  0.00  0.00    +0.261 C 
ATOM     20  O   UNL     1      -3.315  -6.150  -0.680  0.00  0.00    -0.269 OA
ATOM     21  H   UNL     1      -2.230  -3.265  -0.471  0.00  0.00    +0.173 HD
BRANCH  19  22
ATOM     22  C   UNL     1      -4.641  -4.227  -0.730  0.00  0.00    +0.052 A 
ATOM     23  C   UNL     1      -4.682  -2.832  -0.687  0.00  0.00    +0.014 A 
ATOM     24  C   UNL     1      -5.893  -2.178  -0.774  0.00  0.00    +0.001 A 
ATOM     25  C   UNL     1      -7.067  -2.900  -0.903  0.00  0.00    +0.001 A 
ATOM     26  C   UNL     1      -7.035  -4.282  -0.947  0.00  0.00    +0.016 A 
ATOM     27  C   UNL     1      -5.829  -4.950  -0.867  0.00  0.00    +0.030 A 
ATOM     28 BR   UNL     1      -5.785  -6.840  -0.935  0.00  0.00    -0.050 Br
ENDBRANCH  19  22
ENDBRANCH  16  18
ENDBRANCH   1  16
TORSDOF 6
