REMARK  Name = ZINC00859119
REMARK  8 active torsions:
REMARK  status: ('A' for Active; 'I' for Inactive)
REMARK    1  A    between atoms: C_1  and  O_2
REMARK    2  A    between atoms: O_2  and  C_3
REMARK    3  A    between atoms: C_3  and  C_5
REMARK    4  A    between atoms: C_7  and  C_28
REMARK    5  A    between atoms: C_9  and  C_26
REMARK    6  A    between atoms: C_10  and  S_14
REMARK    7  A    between atoms: S_14  and  C_15
REMARK    8  A    between atoms: C_15  and  C_16
REMARK                            x       y       z     vdW  Elec       q    Type
REMARK                         _______ _______ _______ _____ _____    ______ ____
ROOT
ATOM      1  C   UNL     1       1.374  -0.727   4.649  0.00  0.00    +0.196 C 
ATOM      2  C   UNL     1       0.779   0.600   5.122  0.00  0.00    +0.086 C 
ATOM      3  C   UNL     1      -0.114   1.167   4.048  0.00  0.00    +0.066 C 
ATOM      4  C   UNL     1       0.174   0.961   2.735  0.00  0.00    +0.082 C 
ATOM      5  N   UNL     1       1.267   0.210   2.360  0.00  0.00    -0.279 N 
ATOM      6  C   UNL     1       1.908  -0.569   3.249  0.00  0.00    +0.232 C 
ATOM      7  O   UNL     1       2.924  -1.146   2.922  0.00  0.00    -0.275 OA
ATOM      8  H   UNL     1       1.577   0.243   1.442  0.00  0.00    +0.155 HD
ENDROOT
BRANCH   2   9
ATOM      9  C   UNL     1       1.891   1.575   5.410  0.00  0.00    -0.020 A 
ATOM     10  C   UNL     1       2.767   1.941   4.404  0.00  0.00    +0.006 A 
ATOM     11  C   UNL     1       3.787   2.835   4.668  0.00  0.00    +0.000 A 
ATOM     12  C   UNL     1       3.933   3.364   5.936  0.00  0.00    +0.001 A 
ATOM     13  C   UNL     1       3.059   2.999   6.942  0.00  0.00    +0.020 A 
ATOM     14  C   UNL     1       2.034   2.108   6.678  0.00  0.00    +0.045 A 
ATOM     15 CL   UNL     1       0.930   1.655   7.939  0.00  0.00    -0.083 Cl
ENDBRANCH   2   9
BRANCH   1  16
ATOM     16  C   UNL     1       2.494  -1.133   5.571  0.00  0.00    +0.320 C 
ATOM     17  O   UNL     1       2.787  -0.431   6.511  0.00  0.00    -0.250 OA
BRANCH  16  19
ATOM     18  C   UNL     1       4.233  -2.601   6.279  0.00  0.00    +0.280 C 
ATOM     19  O   UNL     1       3.166  -2.273   5.350  0.00  0.00    -0.467 OA
ENDBRANCH  16  19
ENDBRANCH   1  16
BRANCH   3  20
ATOM     20  C   UNL     1      -1.274   1.923   4.412  0.00  0.00    +0.098 C 
ATOM     21  N   UNL     1      -2.194   2.523   4.701  0.00  0.00    -0.191 NA
ENDBRANCH   3  20
BRANCH   4  22
ATOM     22  S   UNL     1      -0.860   1.669   1.497  0.00  0.00    -0.104 S 
BRANCH  22  23
ATOM     23  C   UNL     1      -0.013   1.086   0.008  0.00  0.00    +0.111 C 
BRANCH  23  24
ATOM     24  C   UNL     1      -0.742   1.585  -1.213  0.00  0.00    -0.029 A 
ATOM     25  C   UNL     1      -1.735   0.839  -1.769  0.00  0.00    +0.005 A 
ATOM     26  C   UNL     1      -2.423   1.286  -2.895  0.00  0.00    +0.001 A 
ATOM     27  C   UNL     1      -2.116   2.478  -3.477  0.00  0.00    +0.008 A 
ATOM     28  C   UNL     1      -1.092   3.273  -2.934  0.00  0.00    -0.018 A 
ATOM     29  C   UNL     1      -0.395   2.820  -1.786  0.00  0.00    -0.014 A 
ATOM     30  C   UNL     1       0.628   3.616  -1.243  0.00  0.00    +0.009 A 
ATOM     31  C   UNL     1       0.934   4.808  -1.825  0.00  0.00    +0.001 A 
ATOM     32  C   UNL     1       0.249   5.253  -2.954  0.00  0.00    +0.001 A 
ATOM     33  C   UNL     1      -0.747   4.509  -3.507  0.00  0.00    +0.008 A 
ENDBRANCH  23  24
ENDBRANCH  22  23
ENDBRANCH   4  22
TORSDOF 7
