REMARK  Name = ZINC62182343
REMARK  4 active torsions:
REMARK  status: ('A' for Active; 'I' for Inactive)
REMARK    1  A    between atoms: C_1  and  C_2
REMARK    2  A    between atoms: C_2  and  C_24
REMARK    3  A    between atoms: C_3  and  N_18
REMARK    4  A    between atoms: C_5  and  O_17
REMARK                            x       y       z     vdW  Elec       q    Type
REMARK                         _______ _______ _______ _____ _____    ______ ____
ROOT
ATOM      1  C   UNL     1       0.383   1.565   0.120  0.00  0.00    +0.057 C 
ATOM      2  C   UNL     1       0.390   0.036   0.147  0.00  0.00    +0.123 C 
ATOM      3  C   UNL     1       0.743  -0.504  -1.245  0.00  0.00    +0.133 C 
ATOM      4  C   UNL     1       2.073   0.117  -1.678  0.00  0.00    +0.169 C 
ATOM      5  C   UNL     1       3.079  -0.008  -0.562  0.00  0.00    +0.028 A 
ATOM      6  C   UNL     1       4.425   0.139  -0.862  0.00  0.00    +0.059 A 
ATOM      7  C   UNL     1       5.379   0.034   0.135  0.00  0.00    +0.167 A 
ATOM      8  C   UNL     1       4.984  -0.218   1.447  0.00  0.00    +0.170 A 
ATOM      9  C   UNL     1       3.641  -0.365   1.744  0.00  0.00    +0.095 A 
ATOM     10  C   UNL     1       2.685  -0.262   0.739  0.00  0.00    +0.131 A 
ATOM     11  O   UNL     1       1.377  -0.424   1.072  0.00  0.00    -0.484 OA
ATOM     12  O   UNL     1       6.098  -0.274   2.234  0.00  0.00    -0.452 OA
ATOM     13  C   UNL     1       7.201  -0.462   1.328  0.00  0.00    +0.466 C 
ATOM     14  O   UNL     1       6.741   0.135   0.101  0.00  0.00    -0.453 OA
ATOM     15  C   UNL     1      -0.988  -0.479   0.566  0.00  0.00    +0.057 C 
ENDROOT
BRANCH   3  16
ATOM     16  N   UNL     1       0.872  -1.966  -1.191  0.00  0.00    -0.289 NA
ATOM     17  C   UNL     1       2.131  -2.360  -0.542  0.00  0.00    +0.113 C 
ATOM     18  C   UNL     1       2.198  -3.887  -0.453  0.00  0.00    +0.175 C 
ATOM     19  O   UNL     1       2.069  -4.441  -1.765  0.00  0.00    -0.377 OA
ATOM     20  C   UNL     1       0.854  -4.079  -2.426  0.00  0.00    +0.175 C 
ATOM     21  C   UNL     1       0.773  -2.554  -2.535  0.00  0.00    +0.113 C 
ENDBRANCH   3  16
BRANCH   4  22
ATOM     22  O   UNL     1       2.561  -0.564  -2.836  0.00  0.00    -0.385 OA
ATOM     23  H   UNL     1       3.402  -0.222  -3.167  0.00  0.00    +0.210 HD
ENDBRANCH   4  22
TORSDOF 2
