REMARK  Name = ZINC62874554
REMARK  5 active torsions:
REMARK  status: ('A' for Active; 'I' for Inactive)
REMARK    1  A    between atoms: C_1  and  C_2
REMARK    2  A    between atoms: C_2  and  C_20
REMARK    3  A    between atoms: C_14  and  C_17
REMARK    4  A    between atoms: C_17  and  N_18
REMARK    5  A    between atoms: N_18  and  C_19
REMARK                            x       y       z     vdW  Elec       q    Type
REMARK                         _______ _______ _______ _____ _____    ______ ____
ROOT
ATOM      1  C   UNL     1      -2.071  -0.960   1.461  0.00  0.00    +0.024 C 
ATOM      2  C   UNL     1      -1.860   0.437   0.875  0.00  0.00    +0.085 C 
ATOM      3  C   UNL     1      -0.967   0.342  -0.364  0.00  0.00    +0.021 C 
ATOM      4  C   UNL     1       0.374  -0.289   0.019  0.00  0.00    +0.020 C 
ATOM      5  C   UNL     1       1.074   0.598   1.053  0.00  0.00    +0.109 C 
ATOM      6  N   UNL     1       0.164   0.814   2.186  0.00  0.00    -0.284 N 
ATOM      7  C   UNL     1      -1.185   1.333   1.919  0.00  0.00    +0.127 C 
ATOM      8  C   UNL     1       0.557   0.541   3.445  0.00  0.00    +0.305 C 
ATOM      9  O   UNL     1       1.580  -0.088   3.640  0.00  0.00    -0.252 OA
ATOM     10  N   UNL     1      -0.182   0.964   4.489  0.00  0.00    -0.285 N 
ATOM     11  C   UNL     1      -1.600   0.595   4.602  0.00  0.00    +0.109 C 
ATOM     12  C   UNL     1      -1.835  -0.044   5.974  0.00  0.00    +0.019 C 
ATOM     13  C   UNL     1      -1.346   0.909   7.067  0.00  0.00    +0.005 C 
ATOM     14  C   UNL     1       0.156   1.153   6.899  0.00  0.00    -0.011 C 
ATOM     15  C   UNL     1       0.416   1.800   5.540  0.00  0.00    +0.111 C 
ENDROOT
BRANCH   2  16
ATOM     16  C   UNL     1      -3.192   1.028   0.491  0.00  0.00    +0.363 C 
ATOM     17  O   UNL     1      -4.053   1.192   1.339  0.00  0.00    -0.246 OA
ATOM     18  O   UNL     1      -3.408   1.343  -0.667  0.00  0.00    -0.246 OA
ENDBRANCH   2  16
BRANCH  14  19
ATOM     19  C   UNL     1       0.651   2.079   8.011  0.00  0.00    -0.078 C 
BRANCH  19  20
ATOM     20  N   UNL     1       2.110   2.216   7.921  0.00  0.00    +0.377 N 
ATOM     21  C   UNL     1       2.586   3.105   8.989  0.00  0.00    -0.100 C 
ATOM     22  H   UNL     1       2.541   1.309   8.022  0.00  0.00    -0.086 HD
ATOM     23  H   UNL     1       2.357   2.607   7.024  0.00  0.00    -0.086 HD
ENDBRANCH  19  20
ENDBRANCH  14  19
TORSDOF 3
