REMARK  Name = ZINC36618848
REMARK  11 active torsions:
REMARK  status: ('A' for Active; 'I' for Inactive)
REMARK    1  A    between atoms: C_1  and  C_2
REMARK    2  A    between atoms: C_2  and  C_3
REMARK    3  A    between atoms: C_2  and  C_4
REMARK    4  A    between atoms: C_4  and  C_5
REMARK    5  A    between atoms: C_8  and  C_11
REMARK    6  A    between atoms: C_17  and  C_25
REMARK    7  A    between atoms: C_19  and  C_23
REMARK    8  A    between atoms: C_20  and  N_22
REMARK    9  A    between atoms: C_30  and  O_31
REMARK   10  A    between atoms: O_31  and  C_32
REMARK   11  A    between atoms: C_32  and  C_34
REMARK                            x       y       z     vdW  Elec       q    Type
REMARK                         _______ _______ _______ _____ _____    ______ ____
ROOT
ATOM      1  C   UNL     1      -2.068   0.971   5.849  0.00  0.00    +0.084 C 
ATOM      2  N   UNL     1      -1.935   2.071   6.540  0.00  0.00    -0.150 NA
ATOM      3  N   UNL     1      -2.770   2.097   7.658  0.00  0.00    -0.115 NA
ATOM      4  C   UNL     1      -3.522   1.057   7.722  0.00  0.00    +0.227 C 
ATOM      5  C   UNL     1      -3.086   0.133   6.588  0.00  0.00    +0.140 C 
ATOM      6  C   UNL     1      -4.335  -0.095   5.728  0.00  0.00    +0.086 C 
ATOM      7  C   UNL     1      -5.522  -0.301   6.630  0.00  0.00    +0.095 C 
ATOM      8  C   UNL     1      -5.578   0.100   7.917  0.00  0.00    +0.200 C 
ATOM      9  O   UNL     1      -4.541   0.721   8.542  0.00  0.00    -0.425 OA
ENDROOT
BRANCH   1  13
ATOM     10  C   UNL     1      -0.062  -0.038   2.250  0.00  0.00    -0.047 A 
ATOM     11  C   UNL     1       0.197   1.174   2.866  0.00  0.00    +0.004 A 
ATOM     12  C   UNL     1      -0.451   1.509   4.036  0.00  0.00    +0.010 A 
ATOM     13  C   UNL     1      -1.372   0.621   4.600  0.00  0.00    -0.001 A 
ATOM     14  C   UNL     1      -1.629  -0.602   3.972  0.00  0.00    +0.010 A 
ATOM     15  C   UNL     1      -0.976  -0.920   2.799  0.00  0.00    +0.004 A 
BRANCH  10  16
ATOM     16  C   UNL     1       0.651  -0.397   0.972  0.00  0.00    +0.038 C 
BRANCH  16  18
ATOM     17  C   UNL     1      -0.215   1.631  -0.203  0.00  0.00    +0.007 C 
ATOM     18  C   UNL     1      -0.164   0.102  -0.223  0.00  0.00    -0.013 C 
ATOM     19  C   UNL     1       0.494  -0.369  -1.522  0.00  0.00    +0.007 C 
ENDBRANCH  16  18
ENDBRANCH  10  16
ENDBRANCH   1  13
BRANCH   6  20
ATOM     20  C   UNL     1      -4.569   1.108   4.851  0.00  0.00    +0.004 A 
ATOM     21  C   UNL     1      -4.774   2.350   5.420  0.00  0.00    +0.008 A 
ATOM     22  C   UNL     1      -4.989   3.453   4.616  0.00  0.00    +0.001 A 
ATOM     23  C   UNL     1      -5.000   3.318   3.240  0.00  0.00    +0.004 A 
ATOM     24  C   UNL     1      -4.796   2.079   2.666  0.00  0.00    +0.047 A 
ATOM     25  C   UNL     1      -4.573   0.970   3.470  0.00  0.00    +0.136 A 
BRANCH  25  26
ATOM     26  O   UNL     1      -4.366  -0.249   2.907  0.00  0.00    -0.420 OA
BRANCH  26  27
ATOM     27  C   UNL     1      -5.417  -1.090   2.813  0.00  0.00    +0.380 C 
ATOM     28  O   UNL     1      -6.530  -0.710   3.124  0.00  0.00    -0.241 OA
BRANCH  27  29
ATOM     29  C   UNL     1      -5.218  -2.460   2.336  0.00  0.00    +0.212 A 
ATOM     30  C   UNL     1      -6.191  -3.409   2.188  0.00  0.00    +0.056 A 
ATOM     31  C   UNL     1      -5.557  -4.565   1.709  0.00  0.00    +0.042 A 
ATOM     32  C   UNL     1      -4.242  -4.277   1.587  0.00  0.00    +0.196 A 
ATOM     33  O   UNL     1      -4.043  -3.006   1.960  0.00  0.00    -0.456 OA
ENDBRANCH  27  29
ENDBRANCH  26  27
ENDBRANCH  25  26
ENDBRANCH   6  20
BRANCH   8  34
ATOM     34  N   UNL     1      -6.729  -0.133   8.628  0.00  0.00    -0.328 N 
ATOM     35  H   UNL     1      -7.479  -0.578   8.204  0.00  0.00    +0.145 HD
ATOM     36  H   UNL     1      -6.792   0.147   9.555  0.00  0.00    +0.145 HD
ENDBRANCH   8  34
BRANCH   7  37
ATOM     37  C   UNL     1      -6.667  -0.967   6.087  0.00  0.00    +0.100 C 
ATOM     38  N   UNL     1      -7.576  -1.495   5.656  0.00  0.00    -0.191 NA
ENDBRANCH   7  37
TORSDOF 9
