REMARK  Name = ZINC33868901
REMARK  15 active torsions:
REMARK  status: ('A' for Active; 'I' for Inactive)
REMARK    1  A    between atoms: C_1  and  C_2
REMARK    2  A    between atoms: C_2  and  C_3
REMARK    3  A    between atoms: C_2  and  C_4
REMARK    4  A    between atoms: C_4  and  C_6
REMARK    5  A    between atoms: C_4  and  N_24
REMARK    6  A    between atoms: C_6  and  O_8
REMARK    7  A    between atoms: O_8  and  C_9
REMARK    8  A    between atoms: C_9  and  C_10
REMARK    9  A    between atoms: N_12  and  C_13
REMARK   10  A    between atoms: C_14  and  C_21
REMARK   11  A    between atoms: C_25  and  C_27
REMARK   12  A    between atoms: C_30  and  C_33
REMARK   13  A    between atoms: C_33  and  C_34
REMARK   14  A    between atoms: C_33  and  C_35
REMARK   15  A    between atoms: C_33  and  C_36
REMARK                            x       y       z     vdW  Elec       q    Type
REMARK                         _______ _______ _______ _____ _____    ______ ____
ROOT
ATOM      1  C   UNL     1      -1.413  -2.041   0.005  0.00  0.00    +0.328 C 
ATOM      2  O   UNL     1      -1.936  -2.647  -0.900  0.00  0.00    -0.249 OA
ENDROOT
BRANCH   1   3
ATOM      3  C   UNL     1      -1.433  -0.534   0.013  0.00  0.00    +0.185 C 
BRANCH   3   4
ATOM      4  N   UNL     1      -2.142  -0.048  -1.174  0.00  0.00    -0.298 N 
ATOM      5  C   UNL     1      -2.727   1.166  -1.160  0.00  0.00    +0.245 C 
ATOM      6  O   UNL     1      -2.667   1.858  -0.163  0.00  0.00    -0.270 OA
ATOM      7  H   UNL     1      -2.190  -0.601  -1.970  0.00  0.00    +0.150 HD
BRANCH   5   8
ATOM      8  C   UNL     1      -3.442   1.655  -2.358  0.00  0.00    +0.037 A 
ATOM      9  C   UNL     1      -3.518   0.861  -3.503  0.00  0.00    +0.013 A 
ATOM     10  C   UNL     1      -4.187   1.323  -4.617  0.00  0.00    +0.005 A 
ATOM     11  C   UNL     1      -4.782   2.573  -4.601  0.00  0.00    -0.042 A 
ATOM     12  C   UNL     1      -4.710   3.366  -3.470  0.00  0.00    +0.005 A 
ATOM     13  C   UNL     1      -4.049   2.912  -2.347  0.00  0.00    +0.013 A 
BRANCH  11  14
ATOM     14  C   UNL     1      -5.511   3.072  -5.822  0.00  0.00    -0.013 C 
ATOM     15  C   UNL     1      -6.659   2.118  -6.156  0.00  0.00    +0.015 C 
ATOM     16  C   UNL     1      -6.072   4.468  -5.546  0.00  0.00    +0.015 C 
ATOM     17  C   UNL     1      -4.541   3.136  -7.004  0.00  0.00    +0.015 C 
ENDBRANCH  11  14
ENDBRANCH   5   8
ENDBRANCH   3   4
BRANCH   3  19
ATOM     18  C   UNL     1      -0.019   1.526   0.010  0.00  0.00    +0.009 C 
ATOM     19  C   UNL     1       0.002  -0.004   0.002  0.00  0.00    +0.014 C 
ATOM     20  C   UNL     1       0.742  -0.511   1.242  0.00  0.00    +0.009 C 
ENDBRANCH   3  19
ENDBRANCH   1   3
BRANCH   1  21
ATOM     21  O   UNL     1      -0.813  -2.709   1.002  0.00  0.00    -0.454 OA
BRANCH  21  22
ATOM     22  C   UNL     1      -0.832  -4.136   0.930  0.00  0.00    +0.328 C 
BRANCH  22  23
ATOM     23  C   UNL     1      -0.116  -4.709   2.126  0.00  0.00    +0.255 C 
ATOM     24  O   UNL     1       0.363  -3.968   2.958  0.00  0.00    -0.272 OA
ATOM     25  N   UNL     1      -0.008  -6.045   2.271  0.00  0.00    -0.277 N 
ATOM     26  H   UNL     1      -0.391  -6.637   1.605  0.00  0.00    +0.155 HD
BRANCH  25  27
ATOM     27  C   UNL     1       0.650  -6.572   3.371  0.00  0.00    +0.084 A 
ATOM     28  C   UNL     1       0.861  -7.903   3.679  0.00  0.00    +0.068 A 
ATOM     29  C   UNL     1       1.591  -8.199   4.910  0.00  0.00    -0.023 A 
ATOM     30  C   UNL     1       1.970  -7.107   5.599  0.00  0.00    -0.004 A 
ATOM     31  S   UNL     1       1.381  -5.741   4.632  0.00  0.00    -0.077 S 
ATOM     32  C   UNL     1       2.713  -7.468   6.856  0.00  0.00    +0.043 C 
ATOM     33  C   UNL     1       2.382  -8.958   7.092  0.00  0.00    +0.010 C 
ATOM     34  C   UNL     1       2.066  -9.441   5.662  0.00  0.00    +0.037 C 
BRANCH  28  35
ATOM     35  C   UNL     1       0.370  -8.975   2.806  0.00  0.00    +0.244 C 
ATOM     36  O   UNL     1       1.075  -9.400   1.910  0.00  0.00    -0.270 OA
ATOM     37  N   UNL     1      -0.861  -9.489   2.997  0.00  0.00    -0.325 N 
ATOM     38  H   UNL     1      -1.423  -9.150   3.711  0.00  0.00    +0.145 HD
ATOM     39  H   UNL     1      -1.185 -10.198   2.420  0.00  0.00    +0.145 HD
ENDBRANCH  28  35
ENDBRANCH  25  27
ENDBRANCH  22  23
ENDBRANCH  21  22
ENDBRANCH   1  21
TORSDOF 10
