REMARK  Name = ZINC58590912
REMARK  4 active torsions:
REMARK  status: ('A' for Active; 'I' for Inactive)
REMARK    1  A    between atoms: C_1  and  C_2
REMARK    2  A    between atoms: C_4  and  C_7
REMARK    3  A    between atoms: C_7  and  N_13
REMARK    4  A    between atoms: C_14  and  C_16
REMARK                            x       y       z     vdW  Elec       q    Type
REMARK                         _______ _______ _______ _____ _____    ______ ____
ROOT
ATOM      1  C   UNL     1      -1.588  -3.254  -0.008  0.00  0.00    +0.097 C 
ATOM      2  C   UNL     1      -2.389  -3.276  -1.311  0.00  0.00    +0.034 C 
ATOM      3  C   UNL     1      -3.328  -4.483  -1.313  0.00  0.00    +0.003 C 
ATOM      4  C   UNL     1      -2.506  -5.769  -1.198  0.00  0.00    +0.000 C 
ATOM      5  C   UNL     1      -1.705  -5.747   0.105  0.00  0.00    +0.003 C 
ATOM      6  C   UNL     1      -0.766  -4.540   0.107  0.00  0.00    +0.034 C 
ENDROOT
BRANCH   1  10
ATOM      7  C   UNL     1      -0.018   1.503   0.010  0.00  0.00    +0.112 C 
ATOM      8  C   UNL     1       0.002  -0.004   0.002  0.00  0.00    +0.224 A 
ATOM      9  N   UNL     1      -1.044  -0.783   0.003  0.00  0.00    -0.194 NA
ATOM     10  C   UNL     1      -0.663  -2.065  -0.006  0.00  0.00    +0.195 A 
ATOM     11  N   UNL     1       0.638  -2.118  -0.012  0.00  0.00    -0.059 NA
ATOM     12  O   UNL     1       1.097  -0.774  -0.013  0.00  0.00    -0.338 OA
ENDBRANCH   1  10
BRANCH   1  13
ATOM     13  N   UNL     1      -2.507  -3.159   1.129  0.00  0.00    -0.302 N 
ATOM     14  C   UNL     1      -3.336  -2.103   1.238  0.00  0.00    +0.217 C 
ATOM     15  O   UNL     1      -3.321  -1.230   0.396  0.00  0.00    -0.275 OA
ATOM     16  H   UNL     1      -2.519  -3.857   1.802  0.00  0.00    +0.150 HD
BRANCH  14  17
ATOM     17  C   UNL     1      -4.282  -2.005   2.408  0.00  0.00    +0.079 C 
ATOM     18  C   UNL     1      -5.231  -3.208   2.401  0.00  0.00    +0.041 C 
ATOM     19  C   UNL     1      -6.237  -3.060   3.545  0.00  0.00    +0.160 C 
ATOM     20  O   UNL     1      -6.948  -1.829   3.396  0.00  0.00    -0.380 OA
ATOM     21  C   UNL     1      -6.117  -0.667   3.442  0.00  0.00    +0.160 C 
ATOM     22  C   UNL     1      -5.106  -0.718   2.294  0.00  0.00    +0.041 C 
ENDBRANCH  14  17
ENDBRANCH   1  13
TORSDOF 3
