REMARK  Name = ZINC38920019
REMARK  6 active torsions:
REMARK  status: ('A' for Active; 'I' for Inactive)
REMARK    1  A    between atoms: C_1  and  C_2
REMARK    2  A    between atoms: C_5  and  C_9
REMARK    3  A    between atoms: C_6  and  C_8
REMARK    4  A    between atoms: C_11  and  C_14
REMARK    5  A    between atoms: N_19  and  C_21
REMARK    6  A    between atoms: C_26  and  C_27
REMARK                            x       y       z     vdW  Elec       q    Type
REMARK                         _______ _______ _______ _____ _____    ______ ____
ROOT
ATOM      1  C   UNL     1      -0.745  -7.247  -2.229  0.00  0.00    +0.104 C 
ATOM      2  C   UNL     1      -2.049  -8.051  -2.018  0.00  0.00    +0.111 C 
ATOM      3  C   UNL     1      -1.669  -9.473  -2.370  0.00  0.00    +0.221 C 
ATOM      4  O   UNL     1      -2.457 -10.364  -2.607  0.00  0.00    -0.275 OA
ATOM      5  N   UNL     1      -0.331  -9.604  -2.382  0.00  0.00    -0.270 N 
ATOM      6  C   UNL     1       0.333  -8.339  -2.045  0.00  0.00    +0.127 C 
ENDROOT
BRANCH   5   7
ATOM      7  C   UNL     1       0.343 -10.795  -2.680  0.00  0.00    +0.039 A 
ATOM      8  C   UNL     1       0.702 -11.082  -3.990  0.00  0.00    +0.026 A 
ATOM      9  C   UNL     1       1.367 -12.256  -4.282  0.00  0.00    +0.040 A 
ATOM     10  C   UNL     1       1.675 -13.149  -3.268  0.00  0.00    +0.124 A 
ATOM     11  C   UNL     1       1.317 -12.864  -1.961  0.00  0.00    +0.043 A 
ATOM     12  C   UNL     1       0.658 -11.688  -1.665  0.00  0.00    -0.026 A 
ATOM     13  C   UNL     1       0.275 -11.376  -0.241  0.00  0.00    +0.046 C 
ATOM     14  F   UNL     1       2.324 -14.298  -3.556  0.00  0.00    -0.205 F 
ENDBRANCH   5   7
BRANCH   1  17
ATOM     15  C   UNL     1      -0.349  -4.221  -0.265  0.00  0.00    +0.202 A 
ATOM     16  N   UNL     1      -0.438  -4.898  -1.423  0.00  0.00    -0.191 NA
ATOM     17  C   UNL     1      -0.603  -6.168  -1.187  0.00  0.00    +0.233 A 
ATOM     18  O   UNL     1      -0.625  -6.353   0.140  0.00  0.00    -0.337 OA
ATOM     19  N   UNL     1      -0.453  -5.072   0.726  0.00  0.00    -0.056 NA
BRANCH  15  24
ATOM     20  C   UNL     1       0.394   1.467   0.256  0.00  0.00    +0.044 C 
ATOM     21  C   UNL     1       0.200  -0.021   0.120  0.00  0.00    -0.050 A 
ATOM     22  C   UNL     1      -0.761  -0.663   0.880  0.00  0.00    +0.004 A 
ATOM     23  C   UNL     1      -0.943  -2.026   0.760  0.00  0.00    +0.012 A 
ATOM     24  C   UNL     1      -0.158  -2.755  -0.131  0.00  0.00    +0.025 A 
ATOM     25  C   UNL     1       0.808  -2.103  -0.895  0.00  0.00    -0.039 A 
ATOM     26  C   UNL     1       0.978  -0.739  -0.770  0.00  0.00    +0.007 A 
ATOM     27  C   UNL     1       1.661  -2.885  -1.860  0.00  0.00    +0.044 C 
ENDBRANCH  15  24
ENDBRANCH   1  17
TORSDOF 3
