REMARK  Name = ZINC13550803
REMARK  4 active torsions:
REMARK  status: ('A' for Active; 'I' for Inactive)
REMARK    1  A    between atoms: C_1  and  C_2
REMARK    2  A    between atoms: C_10  and  C_12
REMARK    3  A    between atoms: C_21  and  C_24
REMARK    4  A    between atoms: C_27  and  O_30
REMARK                            x       y       z     vdW  Elec       q    Type
REMARK                         _______ _______ _______ _____ _____    ______ ____
ROOT
ATOM      1  C   UNL     1      -0.018   1.503   0.010  0.00  0.00    +0.069 C 
ATOM      2  C   UNL     1       0.002  -0.004   0.002  0.00  0.00    +0.087 A 
ATOM      3  C   UNL     1       0.008  -0.816  -1.130  0.00  0.00    +0.049 A 
ATOM      4  C   UNL     1       0.026  -2.118  -0.716  0.00  0.00    +0.226 A 
ATOM      5  O   UNL     1       0.035  -2.127   0.616  0.00  0.00    -0.339 OA
ATOM      6  N   UNL     1       0.023  -0.778   1.057  0.00  0.00    -0.081 NA
ATOM      7  N   UNL     1       0.028  -3.163  -1.623  0.00  0.00    -0.286 N 
ATOM      8  C   UNL     1      -0.295  -2.898  -2.932  0.00  0.00    +0.019 C 
ATOM      9  C   UNL     1      -0.324  -1.644  -3.428  0.00  0.00    +0.024 C 
ATOM     10  C   UNL     1      -0.000  -0.431  -2.583  0.00  0.00    +0.092 C 
ATOM     11  C   UNL     1      -0.656  -1.407  -4.775  0.00  0.00    +0.162 C 
ATOM     12  O   UNL     1      -0.697  -0.263  -5.184  0.00  0.00    -0.292 OA
ATOM     13  C   UNL     1      -0.962  -2.536  -5.719  0.00  0.00    +0.088 C 
ATOM     14  C   UNL     1      -0.214  -3.790  -5.251  0.00  0.00    +0.032 C 
ATOM     15  C   UNL     1      -0.628  -4.084  -3.808  0.00  0.00    +0.059 C 
ATOM     16  H   UNL     1       0.253  -4.063  -1.341  0.00  0.00    +0.155 HD
ENDROOT
BRANCH  10  17
ATOM     17  C   UNL     1       1.355   0.103  -2.968  0.00  0.00    -0.017 A 
ATOM     18  C   UNL     1       1.490   1.398  -3.446  0.00  0.00    +0.007 A 
ATOM     19  C   UNL     1       2.757   1.846  -3.788  0.00  0.00    +0.020 A 
ATOM     20  C   UNL     1       3.835   0.993  -3.643  0.00  0.00    +0.111 A 
ATOM     21  N   UNL     1       3.669  -0.232  -3.185  0.00  0.00    -0.263 NA
ATOM     22  C   UNL     1       2.480  -0.690  -2.844  0.00  0.00    +0.115 A 
ENDBRANCH  10  17
BRANCH  14  23
ATOM     23  C   UNL     1      -0.578  -4.956  -6.133  0.00  0.00    -0.043 A 
ATOM     24  C   UNL     1      -1.895  -5.366  -6.227  0.00  0.00    +0.007 A 
ATOM     25  C   UNL     1      -2.232  -6.435  -7.035  0.00  0.00    +0.045 A 
ATOM     26  C   UNL     1      -1.246  -7.098  -7.751  0.00  0.00    +0.117 A 
ATOM     27  C   UNL     1       0.075  -6.685  -7.655  0.00  0.00    +0.045 A 
ATOM     28  C   UNL     1       0.405  -5.612  -6.851  0.00  0.00    +0.007 A 
BRANCH  26  29
ATOM     29  O   UNL     1      -1.574  -8.151  -8.546  0.00  0.00    -0.507 OA
ATOM     30  H   UNL     1      -1.792  -7.904  -9.455  0.00  0.00    +0.292 HD
ENDBRANCH  26  29
ENDBRANCH  14  23
TORSDOF 3
