REMARK  Name = ZINC38737768
REMARK  17 active torsions:
REMARK  status: ('A' for Active; 'I' for Inactive)
REMARK    1  A    between atoms: C_1  and  N_2
REMARK    2  A    between atoms: N_2  and  C_3
REMARK    3  A    between atoms: N_2  and  C_4
REMARK    4  A    between atoms: C_4  and  C_5
REMARK    5  A    between atoms: C_5  and  N_6
REMARK    6  A    between atoms: N_6  and  C_7
REMARK    7  A    between atoms: C_7  and  C_8
REMARK    8  A    between atoms: C_14  and  C_16
REMARK    9  A    between atoms: N_19  and  C_35
REMARK   10  A    between atoms: C_21  and  C_23
REMARK   11  A    between atoms: C_25  and  O_33
REMARK   12  A    between atoms: C_26  and  O_31
REMARK   13  A    between atoms: C_27  and  O_29
REMARK   14  A    between atoms: O_29  and  C_30
REMARK   15  A    between atoms: O_31  and  C_32
REMARK   16  A    between atoms: O_33  and  C_34
REMARK   17  A    between atoms: C_35  and  C_36
REMARK                            x       y       z     vdW  Elec       q    Type
REMARK                         _______ _______ _______ _____ _____    ______ ____
ROOT
ATOM      1  C   UNL     1      -2.686  -2.591  -2.106  0.00  0.00    +0.098 C 
ATOM      2  C   UNL     1      -1.790  -2.892  -0.885  0.00  0.00    +0.098 C 
ATOM      3  N   UNL     1      -2.140  -4.283  -0.498  0.00  0.00    -0.297 NA
ATOM      4  C   UNL     1      -2.308  -4.991  -1.793  0.00  0.00    +0.093 C 
ATOM      5  C   UNL     1      -3.026  -3.971  -2.706  0.00  0.00    +0.046 C 
ENDROOT
BRANCH   5   6
ATOM      6  C   UNL     1      -2.506  -4.071  -4.117  0.00  0.00    -0.035 A 
ATOM      7  C   UNL     1      -1.152  -3.942  -4.363  0.00  0.00    +0.053 A 
ATOM      8  C   UNL     1      -0.670  -4.033  -5.660  0.00  0.00    +0.165 A 
ATOM      9  C   UNL     1      -1.550  -4.254  -6.713  0.00  0.00    +0.204 A 
ATOM     10  C   UNL     1      -2.911  -4.383  -6.461  0.00  0.00    +0.165 A 
ATOM     11  C   UNL     1      -3.384  -4.296  -5.160  0.00  0.00    +0.053 A 
BRANCH  10  12
ATOM     12  O   UNL     1      -3.776  -4.599  -7.487  0.00  0.00    -0.491 OA
ATOM     13  C   UNL     1      -5.160  -4.721  -7.155  0.00  0.00    +0.277 C 
ENDBRANCH  10  12
BRANCH   9  14
ATOM     14  O   UNL     1      -1.081  -4.343  -7.987  0.00  0.00    -0.488 OA
ATOM     15  C   UNL     1      -0.711  -5.643  -8.453  0.00  0.00    +0.277 C 
ENDBRANCH   9  14
BRANCH   8  16
ATOM     16  O   UNL     1       0.662  -3.906  -5.901  0.00  0.00    -0.491 OA
ATOM     17  C   UNL     1       1.508  -3.681  -4.771  0.00  0.00    +0.277 C 
ENDBRANCH   8  16
ENDBRANCH   5   6
BRANCH   1  19
ATOM     18  N   UNL     1      -4.521  -0.976  -2.482  0.00  0.00    -0.299 N 
ATOM     19  C   UNL     1      -3.944  -1.884  -1.671  0.00  0.00    +0.221 C 
ATOM     20  O   UNL     1      -4.436  -2.133  -0.591  0.00  0.00    -0.275 OA
BRANCH  18  21
ATOM     21  C   UNL     1      -3.989  -0.753  -3.828  0.00  0.00    +0.089 C 
BRANCH  21  22
ATOM     22  C   UNL     1      -3.017   0.427  -3.803  0.00  0.00    -0.060 C 
BRANCH  22  24
ATOM     23  C   UNL     1      -3.635   1.143  -6.008  0.00  0.00    -0.097 C 
ATOM     24  N   UNL     1      -2.524   0.685  -5.163  0.00  0.00    +0.377 N 
ATOM     25  C   UNL     1      -1.483   1.720  -5.119  0.00  0.00    -0.097 C 
ATOM     26  H   UNL     1      -2.137  -0.164  -5.547  0.00  0.00    -0.083 HD
ENDBRANCH  22  24
ENDBRANCH  21  22
ENDBRANCH  18  21
BRANCH  18  27
ATOM     27  C   UNL     1      -5.682  -0.212  -2.017  0.00  0.00    +0.142 C 
BRANCH  27  28
ATOM     28  C   UNL     1      -6.945  -0.955  -2.366  0.00  0.00    -0.030 A 
ATOM     29  C   UNL     1      -7.567  -0.729  -3.580  0.00  0.00    +0.005 A 
ATOM     30  C   UNL     1      -8.726  -1.411  -3.901  0.00  0.00    +0.000 A 
ATOM     31  C   UNL     1      -9.263  -2.319  -3.007  0.00  0.00    +0.000 A 
ATOM     32  C   UNL     1      -8.641  -2.545  -1.794  0.00  0.00    +0.000 A 
ATOM     33  C   UNL     1      -7.480  -1.867  -1.475  0.00  0.00    +0.005 A 
ENDBRANCH  27  28
ENDBRANCH  18  27
ENDBRANCH   1  19
BRANCH   3  34
ATOM     34  C   UNL     1      -1.068  -4.893   0.301  0.00  0.00    +0.119 C 
BRANCH  34  35
ATOM     35  C   UNL     1      -1.105  -4.335   1.700  0.00  0.00    -0.033 A 
ATOM     36  C   UNL     1      -0.418  -3.173   1.999  0.00  0.00    +0.005 A 
ATOM     37  C   UNL     1      -0.451  -2.661   3.283  0.00  0.00    +0.000 A 
ATOM     38  C   UNL     1      -1.172  -3.311   4.267  0.00  0.00    +0.000 A 
ATOM     39  C   UNL     1      -1.859  -4.472   3.968  0.00  0.00    +0.000 A 
ATOM     40  C   UNL     1      -1.830  -4.982   2.683  0.00  0.00    +0.005 A 
ENDBRANCH  34  35
ENDBRANCH   3  34
TORSDOF 12
