REMARK  Name = ZINC02299272
REMARK  9 active torsions:
REMARK  status: ('A' for Active; 'I' for Inactive)
REMARK    1  A    between atoms: C_1  and  C_2
REMARK    2  A    between atoms: C_2  and  C_3
REMARK    3  A    between atoms: C_3  and  N_61
REMARK    4  A    between atoms: N_13  and  C_27
REMARK    5  A    between atoms: C_14  and  S_16
REMARK    6  A    between atoms: S_16  and  C_17
REMARK    7  A    between atoms: C_17  and  C_18
REMARK    8  A    between atoms: C_18  and  C_20
REMARK    9  A    between atoms: C_30  and  C_33
REMARK                            x       y       z     vdW  Elec       q    Type
REMARK                         _______ _______ _______ _____ _____    ______ ____
ROOT
ATOM      1  C   UNL     1       9.096   8.586   3.001  0.00  0.00    -0.074 C 
ATOM      2  C   UNL     1       7.879   8.936   2.141  0.00  0.00    +0.018 C 
ATOM      3  C   UNL     1       7.520   7.713   1.301  0.00  0.00    -0.026 A 
ATOM      4  C   UNL     1       8.425   6.725   1.131  0.00  0.00    -0.021 A 
ATOM      5  S   UNL     1       7.610   5.525   0.115  0.00  0.00    -0.075 S 
ATOM      6  C   UNL     1       6.053   6.356  -0.080  0.00  0.00    +0.117 A 
ATOM      7  C   UNL     1       6.220   7.543   0.654  0.00  0.00    +0.076 A 
ATOM      8  C   UNL     1       5.095   8.427   0.673  0.00  0.00    +0.268 A 
ATOM      9  O   UNL     1       5.148   9.480   1.284  0.00  0.00    -0.267 OA
ATOM     10  N   UNL     1       3.979   8.081   0.006  0.00  0.00    -0.255 N 
ATOM     11  C   UNL     1       3.902   6.904  -0.685  0.00  0.00    +0.178 A 
ATOM     12  N   UNL     1       4.921   6.069  -0.713  0.00  0.00    -0.215 NA
ATOM     13  C   UNL     1       9.813   6.680   1.691  0.00  0.00    -0.035 C 
ATOM     14  N   UNL     1      10.168   8.048   2.138  0.00  0.00    +0.383 N 
ATOM     15  H   UNL     1      10.269   8.653   1.314  0.00  0.00    -0.081 HD
ENDROOT
BRANCH  10  16
ATOM     16  C   UNL     1       2.874   8.943   0.020  0.00  0.00    +0.052 A 
ATOM     17  C   UNL     1       2.744   9.923  -0.955  0.00  0.00    +0.026 A 
ATOM     18  C   UNL     1       1.652  10.768  -0.941  0.00  0.00    +0.005 A 
ATOM     19  C   UNL     1       0.694  10.645   0.049  0.00  0.00    -0.050 A 
ATOM     20  C   UNL     1       0.824   9.674   1.024  0.00  0.00    +0.005 A 
ATOM     21  C   UNL     1       1.911   8.822   1.013  0.00  0.00    +0.026 A 
ATOM     22  C   UNL     1      -0.494  11.573   0.065  0.00  0.00    +0.044 C 
ENDBRANCH  10  16
BRANCH  14  23
ATOM     23  C   UNL     1      11.449   8.024   2.876  0.00  0.00    -0.079 C 
BRANCH  23  25
ATOM     24  C   UNL     1      12.640   7.209   4.915  0.00  0.00    +0.002 C 
ATOM     25  C   UNL     1      11.304   7.218   4.169  0.00  0.00    -0.022 C 
ENDBRANCH  23  25
ENDBRANCH  14  23
BRANCH  11  26
ATOM     26  S   UNL     1       2.418   6.494  -1.542  0.00  0.00    -0.079 S 
BRANCH  26  27
ATOM     27  C   UNL     1       2.890   4.891  -2.238  0.00  0.00    +0.157 C 
BRANCH  27  28
ATOM     28  C   UNL     1       1.741   4.332  -3.037  0.00  0.00    +0.173 C 
ATOM     29  O   UNL     1       0.705   4.956  -3.126  0.00  0.00    -0.291 OA
BRANCH  28  30
ATOM     30  C   UNL     1       1.875   3.030  -3.708  0.00  0.00    +0.018 A 
ATOM     31  C   UNL     1       0.811   2.508  -4.450  0.00  0.00    +0.013 A 
ATOM     32  C   UNL     1       0.944   1.288  -5.076  0.00  0.00    +0.020 A 
ATOM     33  C   UNL     1       2.130   0.578  -4.972  0.00  0.00    +0.041 A 
ATOM     34  C   UNL     1       3.189   1.089  -4.239  0.00  0.00    +0.020 A 
ATOM     35  C   UNL     1       3.069   2.308  -3.607  0.00  0.00    +0.013 A 
ATOM     36 CL   UNL     1       2.289  -0.958  -5.764  0.00  0.00    -0.084 Cl
ENDBRANCH  28  30
ENDBRANCH  27  28
ENDBRANCH  26  27
ENDBRANCH  11  26
TORSDOF 7
