REMARK  Name = ZINC04177723
REMARK  8 active torsions:
REMARK  status: ('A' for Active; 'I' for Inactive)
REMARK    1  A    between atoms: C_1  and  C_2
REMARK    2  A    between atoms: N_5  and  S_11
REMARK    3  A    between atoms: C_7  and  C_10
REMARK    4  A    between atoms: S_11  and  C_14
REMARK    5  A    between atoms: C_17  and  C_20
REMARK    6  A    between atoms: N_22  and  C_23
REMARK    7  A    between atoms: C_24  and  C_33
REMARK    8  A    between atoms: N_29  and  C_32
REMARK                            x       y       z     vdW  Elec       q    Type
REMARK                         _______ _______ _______ _____ _____    ______ ____
ROOT
ATOM      1  C   UNL     1       1.433  -4.377  -5.381  0.00  0.00    +0.249 C 
ATOM      2  O   UNL     1       1.448  -3.681  -6.378  0.00  0.00    -0.270 OA
ATOM      3  N   UNL     1       2.236  -5.457  -5.300  0.00  0.00    -0.275 N 
ATOM      4  H   UNL     1       2.224  -6.012  -4.505  0.00  0.00    +0.156 HD
ENDROOT
BRANCH   3   5
ATOM      5  C   UNL     1       3.079  -5.773  -6.353  0.00  0.00    +0.085 A 
ATOM      6  C   UNL     1       3.963  -6.839  -6.448  0.00  0.00    +0.068 A 
ATOM      7  C   UNL     1       4.738  -6.948  -7.668  0.00  0.00    -0.027 A 
ATOM      8  C   UNL     1       4.492  -5.972  -8.572  0.00  0.00    -0.021 A 
ATOM      9  S   UNL     1       3.261  -4.958  -7.811  0.00  0.00    -0.079 S 
ATOM     10  C   UNL     1       5.143  -5.825  -9.911  0.00  0.00    -0.036 C 
ATOM     11  N   UNL     1       6.350  -6.671  -9.935  0.00  0.00    +0.381 N 
ATOM     12  C   UNL     1       6.011  -8.028  -9.487  0.00  0.00    -0.074 C 
ATOM     13  C   UNL     1       5.755  -8.038  -7.976  0.00  0.00    +0.018 C 
ATOM     14  C   UNL     1       6.882  -6.727 -11.303  0.00  0.00    -0.096 C 
ATOM     15  H   UNL     1       7.047  -6.279  -9.320  0.00  0.00    -0.082 HD
BRANCH   6  16
ATOM     16  C   UNL     1       4.106  -7.812  -5.361  0.00  0.00    +0.244 C 
ATOM     17  O   UNL     1       3.407  -8.808  -5.340  0.00  0.00    -0.270 OA
ATOM     18  N   UNL     1       5.013  -7.604  -4.386  0.00  0.00    -0.325 N 
ATOM     19  H   UNL     1       5.571  -6.811  -4.403  0.00  0.00    +0.145 HD
ATOM     20  H   UNL     1       5.108  -8.248  -3.667  0.00  0.00    +0.145 HD
ENDBRANCH   6  16
ENDBRANCH   3   5
BRANCH   1  24
ATOM     21  C   UNL     1      -1.152  -3.408  -2.154  0.00  0.00    +0.106 A 
ATOM     22  C   UNL     1      -1.136  -2.613  -3.286  0.00  0.00    +0.029 A 
ATOM     23  C   UNL     1      -0.299  -2.922  -4.338  0.00  0.00    +0.015 A 
ATOM     24  C   UNL     1       0.534  -4.040  -4.258  0.00  0.00    +0.037 A 
ATOM     25  C   UNL     1       0.514  -4.837  -3.112  0.00  0.00    +0.015 A 
ATOM     26  C   UNL     1      -0.325  -4.514  -2.065  0.00  0.00    +0.029 A 
BRANCH  21  27
ATOM     27  S   UNL     1      -2.225  -3.006  -0.815  0.00  0.00    +0.061 S 
ATOM     28  O   UNL     1      -2.443  -4.211  -0.094  0.00  0.00    -0.153 OA
ATOM     29  O   UNL     1      -3.290  -2.243  -1.363  0.00  0.00    -0.153 OA
BRANCH  27  33
ATOM     30  C   UNL     1      -0.019   1.526   0.010  0.00  0.00    +0.039 C 
ATOM     31  C   UNL     1       0.002  -0.004   0.002  0.00  0.00    +0.131 C 
ATOM     32  C   UNL     1      -1.436  -0.536   0.015  0.00  0.00    +0.140 C 
ATOM     33  N   UNL     1      -1.389  -1.995   0.196  0.00  0.00    -0.172 NA
ATOM     34  C   UNL     1      -0.578  -2.530   1.302  0.00  0.00    +0.140 C 
ATOM     35  C   UNL     1       0.818  -1.901   1.226  0.00  0.00    +0.131 C 
ATOM     36  O   UNL     1       0.691  -0.479   1.161  0.00  0.00    -0.371 OA
ATOM     37  C   UNL     1       1.539  -2.407  -0.025  0.00  0.00    +0.039 C 
ENDBRANCH  27  33
ENDBRANCH  21  27
ENDBRANCH   1  24
TORSDOF 5
