REMARK  Name = ZINC11249896
REMARK  12 active torsions:
REMARK  status: ('A' for Active; 'I' for Inactive)
REMARK    1  A    between atoms: C_1  and  C_2
REMARK    2  A    between atoms: C_2  and  C_3
REMARK    3  A    between atoms: C_3  and  C_4
REMARK    4  A    between atoms: C_4  and  N_5
REMARK    5  A    between atoms: N_5  and  C_6
REMARK    6  A    between atoms: C_7  and  N_19
REMARK    7  A    between atoms: N_8  and  C_15
REMARK    8  A    between atoms: C_15  and  C_16
REMARK    9  A    between atoms: C_16  and  C_17
REMARK   10  A    between atoms: C_16  and  C_18
REMARK   11  A    between atoms: C_20  and  C_22
REMARK   12  A    between atoms: C_22  and  N_23
REMARK                            x       y       z     vdW  Elec       q    Type
REMARK                         _______ _______ _______ _____ _____    ______ ____
ROOT
ATOM      1  N   UNL     1      -0.681   1.566   1.128  0.00  0.00    -0.263 N 
ATOM      2  C   UNL     1      -1.509   0.799   1.867  0.00  0.00    +0.240 C 
ATOM      3  O   UNL     1      -1.860   1.171   2.967  0.00  0.00    -0.273 OA
ENDROOT
BRANCH   1   4
ATOM      4  C   UNL     1      -0.139   2.748   1.674  0.00  0.00    +0.140 A 
ATOM      5  C   UNL     1      -0.958   3.807   2.009  0.00  0.00    +0.127 A 
ATOM      6  N   UNL     1      -0.400   4.944   2.545  0.00  0.00    -0.280 N 
ATOM      7  C   UNL     1       0.930   5.028   2.730  0.00  0.00    +0.331 A 
ATOM      8  O   UNL     1       1.404   6.044   3.201  0.00  0.00    -0.246 OA
ATOM      9  N   UNL     1       1.744   4.008   2.405  0.00  0.00    -0.273 N 
ATOM     10  H   UNL     1       2.729   4.096   2.552  0.00  0.00    +0.173 HD
ATOM     11  C   UNL     1       1.248   2.870   1.881  0.00  0.00    +0.277 A 
ATOM     12  O   UNL     1       1.996   1.952   1.590  0.00  0.00    -0.266 OA
BRANCH   5  13
ATOM     13  N   UNL     1      -2.316   3.723   1.815  0.00  0.00    -0.343 N 
ATOM     14  H   UNL     1      -2.699   2.934   1.401  0.00  0.00    +0.144 HD
ATOM     15  H   UNL     1      -2.891   4.454   2.092  0.00  0.00    +0.144 HD
ENDBRANCH   5  13
BRANCH   6  16
ATOM     16  C   UNL     1      -1.259   6.073   2.911  0.00  0.00    +0.131 C 
BRANCH  16  17
ATOM     17  C   UNL     1      -1.407   7.011   1.710  0.00  0.00    +0.003 C 
ATOM     18  C   UNL     1      -2.401   8.122   2.051  0.00  0.00    +0.009 C 
ATOM     19  C   UNL     1      -0.048   7.628   1.374  0.00  0.00    +0.009 C 
ENDBRANCH  16  17
ENDBRANCH   6  16
ENDBRANCH   1   4
BRANCH   1  20
ATOM     20  C   UNL     1      -0.346   1.171  -0.243  0.00  0.00    +0.114 C 
BRANCH  20  21
ATOM     21  C   UNL     1      -1.372   1.765  -1.210  0.00  0.00    +0.019 C 
BRANCH  21  23
ATOM     22  C   UNL     1      -2.048   1.946  -3.608  0.00  0.00    +0.004 C 
ATOM     23  C   UNL     1      -1.022   1.353  -2.641  0.00  0.00    -0.002 C 
ENDBRANCH  21  23
ENDBRANCH  20  21
ENDBRANCH   1  20
BRANCH   2  24
ATOM     24  C   UNL     1      -1.996  -0.521   1.327  0.00  0.00    +0.218 C 
BRANCH  24  25
ATOM     25  N   UNL     1      -2.874  -1.157   2.312  0.00  0.00    -0.331 N 
ATOM     26  C   UNL     1      -2.318  -2.003   3.247  0.00  0.00    +0.054 A 
ATOM     27  C   UNL     1      -0.945  -2.241   3.245  0.00  0.00    +0.026 A 
ATOM     28  C   UNL     1      -0.391  -3.087   4.179  0.00  0.00    +0.002 A 
ATOM     29  C   UNL     1      -1.186  -3.711   5.130  0.00  0.00    +0.001 A 
ATOM     30  C   UNL     1      -2.539  -3.484   5.159  0.00  0.00    +0.014 A 
ATOM     31  C   UNL     1      -3.119  -2.633   4.215  0.00  0.00    +0.046 A 
ATOM     32  C   UNL     1      -4.572  -2.388   4.215  0.00  0.00    +0.197 A 
ATOM     33  O   UNL     1      -5.302  -2.917   5.034  0.00  0.00    -0.287 OA
ATOM     34  C   UNL     1      -5.109  -1.478   3.187  0.00  0.00    +0.046 A 
ATOM     35  C   UNL     1      -4.226  -0.891   2.265  0.00  0.00    +0.054 A 
ATOM     36  C   UNL     1      -4.734  -0.030   1.294  0.00  0.00    +0.026 A 
ATOM     37  C   UNL     1      -6.085   0.234   1.247  0.00  0.00    +0.002 A 
ATOM     38  C   UNL     1      -6.953  -0.348   2.160  0.00  0.00    +0.001 A 
ATOM     39  C   UNL     1      -6.475  -1.198   3.125  0.00  0.00    +0.014 A 
ENDBRANCH  24  25
ENDBRANCH   2  24
TORSDOF 9
