REMARK  Name = ZINC25148387
REMARK  7 active torsions:
REMARK  status: ('A' for Active; 'I' for Inactive)
REMARK    1  A    between atoms: C_1  and  C_2
REMARK    2  A    between atoms: C_3  and  C_32
REMARK    3  A    between atoms: N_9  and  C_12
REMARK    4  A    between atoms: C_12  and  C_13
REMARK    5  A    between atoms: C_13  and  C_14
REMARK    6  A    between atoms: N_16  and  C_17
REMARK    7  A    between atoms: C_20  and  C_23
REMARK                            x       y       z     vdW  Elec       q    Type
REMARK                         _______ _______ _______ _____ _____    ______ ____
ROOT
ATOM      1  C   UNL     1      -4.088  -0.066   1.468  0.00  0.00    +0.219 C 
ATOM      2  O   UNL     1      -4.542  -0.511   0.436  0.00  0.00    -0.275 OA
ATOM      3  N   UNL     1      -4.736  -0.267   2.632  0.00  0.00    -0.285 N 
ATOM      4  H   UNL     1      -4.281   0.060   3.579  0.00  0.00    +0.155 HD
ENDROOT
BRANCH   3   5
ATOM      5  C   UNL     1      -5.987  -0.894   2.637  0.00  0.00    +0.033 A 
ATOM      6  C   UNL     1      -6.865  -0.698   1.578  0.00  0.00    +0.024 A 
ATOM      7  C   UNL     1      -8.096  -1.318   1.578  0.00  0.00    +0.012 A 
ATOM      8  C   UNL     1      -8.464  -2.134   2.647  0.00  0.00    +0.002 A 
ATOM      9  C   UNL     1      -7.584  -2.324   3.711  0.00  0.00    +0.012 A 
ATOM     10  C   UNL     1      -6.352  -1.706   3.704  0.00  0.00    +0.024 A 
BRANCH   8  11
ATOM     11  C   UNL     1      -9.791  -2.797   2.652  0.00  0.00    +0.090 A 
ATOM     12  C   UNL     1     -10.739  -2.694   1.679  0.00  0.00    +0.121 A 
ATOM     13  N   UNL     1     -11.803  -3.457   2.073  0.00  0.00    -0.306 N 
ATOM     14  C   UNL     1     -13.012  -3.718   1.494  0.00  0.00    +0.093 A 
ATOM     15  C   UNL     1     -13.906  -4.524   2.103  0.00  0.00    +0.018 A 
ATOM     16  C   UNL     1     -13.604  -5.108   3.345  0.00  0.00    +0.005 A 
ATOM     17  C   UNL     1     -12.403  -4.856   3.933  0.00  0.00    +0.047 A 
ATOM     18  C   UNL     1     -11.479  -4.012   3.284  0.00  0.00    +0.138 A 
ATOM     19  N   UNL     1     -10.262  -3.607   3.614  0.00  0.00    -0.228 NA
ENDBRANCH   8  11
ENDBRANCH   3   5
BRANCH   1  20
ATOM     20  C   UNL     1      -2.798   0.713   1.449  0.00  0.00    +0.118 C 
BRANCH  20  21
ATOM     21  C   UNL     1      -2.273   0.795   0.014  0.00  0.00    +0.135 C 
BRANCH  21  30
ATOM     22  C   UNL     1       3.027  -0.282   0.466  0.00  0.00    +0.045 C 
ATOM     23  C   UNL     1       2.737   1.183   0.262  0.00  0.00    -0.026 A 
ATOM     24  C   UNL     1       3.741   2.072   0.206  0.00  0.00    -0.008 A 
ATOM     25  S   UNL     1       2.902   3.626  -0.040  0.00  0.00    -0.073 S 
ATOM     26  C   UNL     1       1.229   3.035  -0.059  0.00  0.00    +0.116 A 
ATOM     27  C   UNL     1       1.370   1.648   0.125  0.00  0.00    +0.075 A 
ATOM     28  C   UNL     1       0.148   0.900   0.151  0.00  0.00    +0.262 A 
ATOM     29  O   UNL     1       0.165  -0.309   0.305  0.00  0.00    -0.267 OA
ATOM     30  N   UNL     1      -1.019   1.553  -0.004  0.00  0.00    -0.298 N 
ATOM     31  C   UNL     1      -1.058   2.900  -0.173  0.00  0.00    +0.203 A 
ATOM     32  N   UNL     1       0.038   3.609  -0.201  0.00  0.00    -0.230 NA
ATOM     33  C   UNL     1       5.222   1.819   0.322  0.00  0.00    +0.052 C 
ENDBRANCH  21  30
ENDBRANCH  20  21
ENDBRANCH   1  20
TORSDOF 5
