REMARK  Name = ZINC40205439
REMARK  7 active torsions:
REMARK  status: ('A' for Active; 'I' for Inactive)
REMARK    1  A    between atoms: C_1  and  C_2
REMARK    2  A    between atoms: C_2  and  C_4
REMARK    3  A    between atoms: C_2  and  N_7
REMARK    4  A    between atoms: C_25  and  C_35
REMARK    5  A    between atoms: C_38  and  N_41
REMARK    6  A    between atoms: N_41  and  C_42
REMARK    7  A    between atoms: N_41  and  C_43
REMARK                            x       y       z     vdW  Elec       q    Type
REMARK                         _______ _______ _______ _____ _____    ______ ____
ROOT
ATOM      1  N   UNL     1       0.813  -0.606  -0.787  0.00  0.00    -0.228 N 
ATOM      2  C   UNL     1       0.238  -1.259  -1.804  0.00  0.00    +0.227 C 
ATOM      3  O   UNL     1      -0.953  -1.441  -1.935  0.00  0.00    -0.275 OA
ATOM      4  C   UNL     1       1.307  -1.735  -2.766  0.00  0.00    +0.091 C 
ATOM      5  C   UNL     1       1.486  -3.282  -2.509  0.00  0.00    +0.007 C 
ATOM      6  C   UNL     1       3.006  -3.383  -2.920  0.00  0.00    +0.010 C 
ATOM      7  C   UNL     1       3.545  -2.342  -1.854  0.00  0.00    +0.015 C 
ATOM      8  C   UNL     1       2.610  -1.130  -2.165  0.00  0.00    +0.092 C 
ATOM      9  C   UNL     1       2.143  -0.493  -0.880  0.00  0.00    +0.227 C 
ATOM     10  O   UNL     1       2.861   0.037  -0.059  0.00  0.00    -0.275 OA
ATOM     11  C   UNL     1       3.023  -3.076  -0.601  0.00  0.00    +0.061 C 
ATOM     12  C   UNL     1       1.517  -3.306  -0.984  0.00  0.00    +0.019 C 
ATOM     13  C   UNL     1       0.867  -4.357  -0.156  0.00  0.00    +0.063 C 
ATOM     14  C   UNL     1       0.932  -3.924   1.286  0.00  0.00    +0.032 A 
ATOM     15  C   UNL     1       1.718  -2.993   1.869  0.00  0.00    +0.087 A 
ATOM     16  N   UNL     1       1.513  -2.826   3.217  0.00  0.00    -0.311 N 
ATOM     17  H   UNL     1       2.030  -2.168   3.708  0.00  0.00    +0.170 HD
ATOM     18  C   UNL     1       0.596  -3.576   3.857  0.00  0.00    +0.289 A 
ATOM     19  O   UNL     1       0.297  -3.558   5.038  0.00  0.00    -0.260 OA
ATOM     20  S   UNL     1      -0.037  -4.543   2.635  0.00  0.00    -0.030 S 
ATOM     21  S   UNL     1       3.018  -2.080   0.910  0.00  0.00    -0.103 S 
ENDROOT
BRANCH  13  22
ATOM     22  C   UNL     1       1.595  -5.665  -0.330  0.00  0.00    -0.039 A 
ATOM     23  C   UNL     1       2.757  -5.907   0.379  0.00  0.00    +0.006 A 
ATOM     24  C   UNL     1       3.428  -7.104   0.222  0.00  0.00    +0.023 A 
ATOM     25  C   UNL     1       2.933  -8.066  -0.649  0.00  0.00    +0.029 A 
ATOM     26  C   UNL     1       1.766  -7.819  -1.361  0.00  0.00    +0.023 A 
ATOM     27  C   UNL     1       1.097  -6.622  -1.195  0.00  0.00    +0.006 A 
BRANCH  25  28
ATOM     28  N   UNL     1       3.609  -9.277  -0.811  0.00  0.00    -0.336 N 
ATOM     29  C   UNL     1       4.903  -9.487  -0.157  0.00  0.00    +0.129 C 
ATOM     30  C   UNL     1       3.023 -10.339  -1.634  0.00  0.00    +0.129 C 
ENDBRANCH  25  28
ENDBRANCH  13  22
BRANCH   1  32
ATOM     31  C   UNL     1      -0.810  -1.156   0.958  0.00  0.00    +0.040 C 
ATOM     32  C   UNL     1       0.047  -0.053   0.333  0.00  0.00    +0.194 C 
BRANCH  32  33
ATOM     33  C   UNL     1      -0.845   1.055  -0.166  0.00  0.00    +0.376 C 
ATOM     34  O   UNL     1      -1.369   1.819   0.627  0.00  0.00    -0.244 OA
ATOM     35  O   UNL     1      -1.042   1.187  -1.361  0.00  0.00    -0.244 OA
ENDBRANCH  32  33
ENDBRANCH   1  32
TORSDOF 4
