REMARK  Name = ZINC39694313
REMARK  6 active torsions:
REMARK  status: ('A' for Active; 'I' for Inactive)
REMARK    1  A    between atoms: C_1  and  C_2
REMARK    2  A    between atoms: C_2  and  C_8
REMARK    3  A    between atoms: C_12  and  C_21
REMARK    4  A    between atoms: N_23  and  C_24
REMARK    5  A    between atoms: C_24  and  C_25
REMARK    6  A    between atoms: C_30  and  N_31
REMARK                            x       y       z     vdW  Elec       q    Type
REMARK                         _______ _______ _______ _____ _____    ______ ____
ROOT
ATOM      1  C   UNL     1      -0.697  -0.690  -0.005  0.00  0.00    +0.222 C 
ATOM      2  O   UNL     1       0.490  -0.452  -0.074  0.00  0.00    -0.275 OA
ATOM      3  N   UNL     1      -1.529  -0.253  -0.972  0.00  0.00    -0.300 N 
ATOM      4  C   UNL     1      -1.172   0.439  -2.232  0.00  0.00    +0.121 C 
ATOM      5  C   UNL     1      -2.126  -0.160  -3.290  0.00  0.00    +0.100 C 
ATOM      6  C   UNL     1      -3.328  -0.679  -2.485  0.00  0.00    -0.004 C 
ATOM      7  C   UNL     1      -3.007  -0.363  -1.017  0.00  0.00    +0.115 C 
ATOM      8  C   UNL     1      -4.603   0.041  -2.914  0.00  0.00    -0.010 C 
ATOM      9  C   UNL     1      -5.793  -0.533  -2.141  0.00  0.00    -0.082 C 
ATOM     10  N   UNL     1      -5.907  -1.971  -2.410  0.00  0.00    +0.379 N 
ATOM     11  C   UNL     1      -4.716  -2.669  -1.910  0.00  0.00    -0.082 C 
ATOM     12  C   UNL     1      -3.480  -2.186  -2.674  0.00  0.00    -0.010 C 
ATOM     13  H   UNL     1      -6.727  -2.335  -1.949  0.00  0.00    -0.086 HD
ATOM     14  H   UNL     1      -5.989  -2.121  -3.405  0.00  0.00    -0.086 HD
ENDROOT
BRANCH   1  16
ATOM     15  C   UNL     1      -1.796  -2.810   0.663  0.00  0.00    +0.021 C 
ATOM     16  C   UNL     1      -1.242  -1.474   1.161  0.00  0.00    +0.044 C 
ATOM     17  C   UNL     1      -2.363  -0.676   1.832  0.00  0.00    +0.016 C 
ATOM     18  C   UNL     1      -1.810   0.660   2.330  0.00  0.00    +0.001 C 
ATOM     19  C   UNL     1      -0.690   0.404   3.341  0.00  0.00    +0.000 C 
ATOM     20  C   UNL     1       0.430  -0.393   2.670  0.00  0.00    +0.001 C 
ATOM     21  C   UNL     1      -0.123  -1.730   2.172  0.00  0.00    +0.016 C 
ENDBRANCH   1  16
BRANCH   5  22
ATOM     22  C   UNL     1      -1.453  -1.292  -4.022  0.00  0.00    +0.218 C 
ATOM     23  O   UNL     1      -0.594  -1.947  -3.468  0.00  0.00    -0.275 OA
ATOM     24  N   UNL     1      -1.804  -1.578  -5.291  0.00  0.00    -0.311 N 
ATOM     25  H   UNL     1      -2.440  -1.013  -5.757  0.00  0.00    +0.149 HD
BRANCH  24  26
ATOM     26  C   UNL     1      -1.226  -2.742  -5.967  0.00  0.00    +0.141 C 
BRANCH  26  27
ATOM     27  C   UNL     1      -1.689  -2.771  -7.401  0.00  0.00    -0.009 A 
ATOM     28  C   UNL     1      -2.722  -3.607  -7.777  0.00  0.00    +0.007 A 
ATOM     29  C   UNL     1      -3.147  -3.635  -9.093  0.00  0.00    +0.000 A 
ATOM     30  C   UNL     1      -2.540  -2.826 -10.036  0.00  0.00    +0.002 A 
ATOM     31  C   UNL     1      -1.507  -1.988  -9.667  0.00  0.00    +0.023 A 
ATOM     32  C   UNL     1      -1.081  -1.954  -8.345  0.00  0.00    +0.035 A 
BRANCH  32  33
ATOM     33  N   UNL     1      -0.040  -1.103  -7.966  0.00  0.00    -0.325 N 
ATOM     34  C   UNL     1       1.363  -1.539  -8.049  0.00  0.00    +0.133 C 
ATOM     35  C   UNL     1       2.159  -0.469  -8.804  0.00  0.00    +0.178 C 
ATOM     36  O   UNL     1       1.925   0.805  -8.199  0.00  0.00    -0.377 OA
ATOM     37  C   UNL     1       0.565   1.240  -8.257  0.00  0.00    +0.178 C 
ATOM     38  C   UNL     1      -0.313   0.259  -7.480  0.00  0.00    +0.133 C 
ENDBRANCH  32  33
ENDBRANCH  26  27
ENDBRANCH  24  26
ENDBRANCH   5  22
TORSDOF 5
