REMARK  Name = ZINC32128003
REMARK  6 active torsions:
REMARK  status: ('A' for Active; 'I' for Inactive)
REMARK    1  A    between atoms: C_1  and  O_2
REMARK    2  A    between atoms: O_2  and  C_3
REMARK    3  A    between atoms: N_13  and  C_14
REMARK    4  A    between atoms: C_14  and  N_16
REMARK    5  A    between atoms: C_17  and  C_19
REMARK    6  A    between atoms: C_22  and  C_24
REMARK                            x       y       z     vdW  Elec       q    Type
REMARK                         _______ _______ _______ _____ _____    ______ ____
ROOT
ATOM      1  C   UNL     1      -5.269   4.610   0.076  0.00  0.00    +0.163 C 
ATOM      2  S   UNL     1      -4.037   5.799   0.071  0.00  0.00    -0.016 S 
ENDROOT
BRANCH   1  13
ATOM      3  C   UNL     1       1.176   1.790   0.000  0.00  0.00    +0.140 A 
ATOM      4  C   UNL     1      -0.013   1.076   0.008  0.00  0.00    +0.064 A 
ATOM      5  C   UNL     1      -1.208   1.750   0.017  0.00  0.00    +0.042 A 
ATOM      6  C   UNL     1      -1.289   3.161   0.031  0.00  0.00    +0.057 A 
ATOM      7  C   UNL     1      -0.059   3.860   0.023  0.00  0.00    +0.050 A 
ATOM      8  C   UNL     1       1.133   3.182   0.008  0.00  0.00    +0.085 A 
ATOM      9 CL   UNL     1       2.619   4.078  -0.000  0.00  0.00    -0.080 Cl
ATOM     10  N   UNL     1      -2.539   3.675   0.046  0.00  0.00    -0.335 N 
ATOM     11  C   UNL     1      -3.612   2.920   0.052  0.00  0.00    +0.163 A 
ATOM     12  S   UNL     1      -2.919   1.273   0.037  0.00  0.00    -0.052 S 
ATOM     13  N   UNL     1      -4.943   3.302   0.066  0.00  0.00    -0.169 NA
ATOM     14  H   UNL     1      -2.686   4.766   0.053  0.00  0.00    +0.168 HD
BRANCH   3  16
ATOM     15  C   UNL     1       2.330  -0.289  -0.023  0.00  0.00    +0.277 C 
ATOM     16  O   UNL     1       2.370   1.139  -0.015  0.00  0.00    -0.494 OA
ENDBRANCH   3  16
ENDBRANCH   1  13
BRANCH   1  17
ATOM     17  N   UNL     1      -6.564   4.982   0.090  0.00  0.00    -0.260 N 
ATOM     18  C   UNL     1      -6.890   6.290   0.100  0.00  0.00    +0.285 C 
ATOM     19  O   UNL     1      -6.014   7.135   0.096  0.00  0.00    -0.266 OA
ATOM     20  H   UNL     1      -7.356   4.218   0.093  0.00  0.00    +0.157 HD
BRANCH  18  21
ATOM     21  C   UNL     1      -8.297   6.694   0.115  0.00  0.00    +0.190 A 
ATOM     22  C   UNL     1      -8.767   7.989   0.126  0.00  0.00    +0.055 A 
ATOM     23  C   UNL     1     -10.163   7.912   0.137  0.00  0.00    +0.050 A 
ATOM     24  C   UNL     1     -10.492   6.586   0.133  0.00  0.00    +0.136 A 
ATOM     25  O   UNL     1      -9.360   5.862   0.114  0.00  0.00    -0.450 OA
BRANCH  24  26
ATOM     26  C   UNL     1     -11.863   6.040   0.141  0.00  0.00    +0.017 A 
ATOM     27  C   UNL     1     -12.962   6.902   0.160  0.00  0.00    +0.013 A 
ATOM     28  C   UNL     1     -14.240   6.386   0.163  0.00  0.00    +0.021 A 
ATOM     29  C   UNL     1     -14.437   5.014   0.157  0.00  0.00    +0.041 A 
ATOM     30  C   UNL     1     -13.351   4.154   0.143  0.00  0.00    +0.021 A 
ATOM     31  C   UNL     1     -12.068   4.658   0.135  0.00  0.00    +0.013 A 
ATOM     32 CL   UNL     1     -16.049   4.372   0.167  0.00  0.00    -0.084 Cl
ENDBRANCH  24  26
ENDBRANCH  18  21
ENDBRANCH   1  17
TORSDOF 5
