REMARK  Name = ZINC12492429
REMARK  6 active torsions:
REMARK  status: ('A' for Active; 'I' for Inactive)
REMARK    1  A    between atoms: C_4  and  S_7
REMARK    2  A    between atoms: S_7  and  N_10
REMARK    3  A    between atoms: N_10  and  C_11
REMARK    4  A    between atoms: C_20  and  N_21
REMARK    5  A    between atoms: N_21  and  S_22
REMARK    6  A    between atoms: S_22  and  C_25
REMARK                            x       y       z     vdW  Elec       q    Type
REMARK                         _______ _______ _______ _____ _____    ______ ____
ROOT
ATOM      1  C   UNL     1       4.686  -0.059  -2.542  0.00  0.00    +0.056 A 
ATOM      2  C   UNL     1       5.395   1.039  -2.103  0.00  0.00    +0.025 A 
ATOM      3  C   UNL     1       5.576   2.146  -2.927  0.00  0.00    +0.003 A 
ATOM      4  C   UNL     1       5.059   2.175  -4.187  0.00  0.00    +0.010 A 
ATOM      5  C   UNL     1       4.331   1.077  -4.672  0.00  0.00    +0.006 A 
ATOM      6  C   UNL     1       4.144  -0.058  -3.845  0.00  0.00    +0.006 A 
ATOM      7  C   UNL     1       3.411  -1.153  -4.328  0.00  0.00    +0.010 A 
ATOM      8  C   UNL     1       2.894  -1.124  -5.588  0.00  0.00    +0.003 A 
ATOM      9  C   UNL     1       3.075  -0.017  -6.413  0.00  0.00    +0.025 A 
ATOM     10  C   UNL     1       3.784   1.080  -5.973  0.00  0.00    +0.056 A 
ENDROOT
BRANCH   1  11
ATOM     11  N   UNL     1       4.511  -1.162  -1.708  0.00  0.00    -0.216 N 
ATOM     12  H   UNL     1       4.506  -2.057  -2.083  0.00  0.00    +0.174 HD
BRANCH  11  13
ATOM     13  S   UNL     1       4.313  -0.946  -0.079  0.00  0.00    +0.072 S 
ATOM     14  O   UNL     1       5.408  -0.155   0.362  0.00  0.00    -0.150 OA
ATOM     15  O   UNL     1       4.029  -2.226   0.469  0.00  0.00    -0.150 OA
BRANCH  13  19
ATOM     16  C   UNL     1       0.590   1.564   0.495  0.00  0.00    +0.000 A 
ATOM     17  C   UNL     1       1.822   2.176   0.357  0.00  0.00    +0.002 A 
ATOM     18  C   UNL     1       2.959   1.409   0.181  0.00  0.00    +0.029 A 
ATOM     19  C   UNL     1       2.864   0.031   0.145  0.00  0.00    +0.108 A 
ATOM     20  C   UNL     1       1.633  -0.581   0.284  0.00  0.00    +0.029 A 
ATOM     21  C   UNL     1       0.496   0.185   0.459  0.00  0.00    +0.002 A 
ENDBRANCH  13  19
ENDBRANCH  11  13
ENDBRANCH   1  11
BRANCH  10  22
ATOM     22  N   UNL     1       3.960   2.184  -6.807  0.00  0.00    -0.216 N 
ATOM     23  H   UNL     1       4.790   2.685  -6.779  0.00  0.00    +0.174 HD
BRANCH  22  24
ATOM     24  S   UNL     1       2.752   2.639  -7.844  0.00  0.00    +0.072 S 
ATOM     25  O   UNL     1       3.172   3.854  -8.449  0.00  0.00    -0.150 OA
ATOM     26  O   UNL     1       2.414   1.487  -8.604  0.00  0.00    -0.150 OA
BRANCH  24  27
ATOM     27  C   UNL     1       1.341   3.026  -6.862  0.00  0.00    +0.108 A 
ATOM     28  C   UNL     1       0.420   2.041  -6.557  0.00  0.00    +0.029 A 
ATOM     29  C   UNL     1      -0.684   2.344  -5.782  0.00  0.00    +0.002 A 
ATOM     30  C   UNL     1      -0.874   3.634  -5.322  0.00  0.00    +0.000 A 
ATOM     31  C   UNL     1       0.044   4.620  -5.633  0.00  0.00    +0.002 A 
ATOM     32  C   UNL     1       1.151   4.316  -6.403  0.00  0.00    +0.029 A 
ENDBRANCH  24  27
ENDBRANCH  22  24
ENDBRANCH  10  22
TORSDOF 6
