REMARK  Name = ZINC10737005
REMARK  12 active torsions:
REMARK  status: ('A' for Active; 'I' for Inactive)
REMARK    1  A    between atoms: C_1  and  C_2
REMARK    2  A    between atoms: C_2  and  C_3
REMARK    3  A    between atoms: C_2  and  C_4
REMARK    4  A    between atoms: C_2  and  C_5
REMARK    5  A    between atoms: C_8  and  S_11
REMARK    6  A    between atoms: S_11  and  N_14
REMARK    7  A    between atoms: N_14  and  C_15
REMARK    8  A    between atoms: C_15  and  C_16
REMARK    9  A    between atoms: C_16  and  C_17
REMARK   10  A    between atoms: N_19  and  N_20
REMARK   11  A    between atoms: C_21  and  C_23
REMARK   12  A    between atoms: N_25  and  C_32
REMARK                            x       y       z     vdW  Elec       q    Type
REMARK                         _______ _______ _______ _____ _____    ______ ____
ROOT
ATOM      1  C   UNL     1      -1.855   4.955  -3.279  0.00  0.00    +0.230 C 
ATOM      2  O   UNL     1      -1.645   5.772  -2.408  0.00  0.00    -0.274 OA
ATOM      3  N   UNL     1      -2.298   5.356  -4.487  0.00  0.00    -0.234 N 
ATOM      4  H   UNL     1      -2.466   4.702  -5.183  0.00  0.00    +0.173 HD
ENDROOT
BRANCH   3   5
ATOM      5  N   UNL     1      -2.515   6.717  -4.737  0.00  0.00    -0.230 N 
ATOM      6  C   UNL     1      -2.958   7.118  -5.945  0.00  0.00    +0.262 C 
ATOM      7  O   UNL     1      -3.169   6.298  -6.819  0.00  0.00    -0.269 OA
ATOM      8  H   UNL     1      -2.347   7.371  -4.040  0.00  0.00    +0.173 HD
BRANCH   6   9
ATOM      9  C   UNL     1      -3.186   8.545  -6.207  0.00  0.00    +0.063 A 
ATOM     10  C   UNL     1      -2.996   9.576  -5.335  0.00  0.00    +0.099 A 
ATOM     11  N   UNL     1      -3.311  10.749  -5.936  0.00  0.00    -0.349 N 
ATOM     12  C   UNL     1      -3.723  10.530  -7.234  0.00  0.00    +0.050 A 
ATOM     13  C   UNL     1      -3.659   9.146  -7.468  0.00  0.00    +0.012 A 
ATOM     14  C   UNL     1      -4.028   8.630  -8.707  0.00  0.00    +0.011 A 
ATOM     15  C   UNL     1      -4.445   9.484  -9.705  0.00  0.00    +0.001 A 
ATOM     16  C   UNL     1      -4.503  10.851  -9.478  0.00  0.00    +0.002 A 
ATOM     17  C   UNL     1      -4.146  11.375  -8.254  0.00  0.00    +0.026 A 
ATOM     18  C   UNL     1      -3.227  12.064  -5.296  0.00  0.00    +0.149 C 
ENDBRANCH   6   9
ENDBRANCH   3   5
BRANCH   1  19
ATOM     19  C   UNL     1      -1.622   3.491  -3.009  0.00  0.00    +0.114 C 
BRANCH  19  20
ATOM     20  C   UNL     1      -1.125   3.309  -1.574  0.00  0.00    +0.115 C 
BRANCH  20  21
ATOM     21  N   UNL     1      -0.897   1.885  -1.312  0.00  0.00    -0.189 NA
ATOM     22  H   UNL     1      -1.263   1.218  -1.913  0.00  0.00    +0.148 HD
BRANCH  21  23
ATOM     23  S   UNL     1      -0.017   1.417   0.010  0.00  0.00    +0.058 S 
ATOM     24  O   UNL     1       0.002  -0.004   0.002  0.00  0.00    -0.153 OA
ATOM     25  O   UNL     1       1.172   2.195   0.003  0.00  0.00    -0.153 OA
BRANCH  23  29
ATOM     26  C   UNL     1      -2.353   2.659   3.683  0.00  0.00    -0.042 A 
ATOM     27  C   UNL     1      -2.559   1.412   3.121  0.00  0.00    +0.006 A 
ATOM     28  C   UNL     1      -1.846   1.033   2.000  0.00  0.00    +0.029 A 
ATOM     29  C   UNL     1      -0.927   1.900   1.439  0.00  0.00    +0.105 A 
ATOM     30  C   UNL     1      -0.717   3.145   2.004  0.00  0.00    +0.029 A 
ATOM     31  C   UNL     1      -1.434   3.526   3.123  0.00  0.00    +0.006 A 
BRANCH  26  33
ATOM     32  C   UNL     1      -2.839   2.098   6.049  0.00  0.00    +0.015 C 
ATOM     33  C   UNL     1      -3.131   3.072   4.906  0.00  0.00    -0.013 C 
ATOM     34  C   UNL     1      -2.716   4.485   5.320  0.00  0.00    +0.015 C 
ATOM     35  C   UNL     1      -4.628   3.052   4.589  0.00  0.00    +0.015 C 
ENDBRANCH  26  33
ENDBRANCH  23  29
ENDBRANCH  21  23
ENDBRANCH  20  21
ENDBRANCH  19  20
ENDBRANCH   1  19
TORSDOF 8
