REMARK  Name = ZINC06739263
REMARK  5 active torsions:
REMARK  status: ('A' for Active; 'I' for Inactive)
REMARK    1  A    between atoms: C_1  and  C_2
REMARK    2  A    between atoms: C_2  and  C_3
REMARK    3  A    between atoms: C_3  and  N_4
REMARK    4  A    between atoms: N_16  and  C_19
REMARK    5  A    between atoms: C_19  and  C_20
REMARK                            x       y       z     vdW  Elec       q    Type
REMARK                         _______ _______ _______ _____ _____    ______ ____
ROOT
ATOM      1  N   UNL     1      -1.413  -1.998   0.005  0.00  0.00    -0.292 N 
ATOM      2  C   UNL     1      -1.528  -2.684  -1.213  0.00  0.00    +0.073 A 
ATOM      3  C   UNL     1      -1.660  -2.102  -2.554  0.00  0.00    +0.014 A 
ATOM      4  C   UNL     1      -1.713  -0.728  -2.896  0.00  0.00    +0.011 A 
ATOM      5  C   UNL     1      -1.845  -0.341  -4.192  0.00  0.00    +0.001 A 
ATOM      6  C   UNL     1      -1.932  -1.270  -5.222  0.00  0.00    +0.001 A 
ATOM      7  C   UNL     1      -1.884  -2.617  -4.929  0.00  0.00    +0.016 A 
ATOM      8  C   UNL     1      -1.750  -3.023  -3.616  0.00  0.00    +0.022 A 
ATOM      9  S   UNL     1      -1.651  -4.608  -2.823  0.00  0.00    -0.081 S 
ATOM     10  C   UNL     1      -1.496  -4.065  -1.142  0.00  0.00    +0.102 A 
ATOM     11  C   UNL     1      -1.367  -4.734   0.088  0.00  0.00    +0.271 A 
ATOM     12  O   UNL     1      -1.345  -5.950   0.131  0.00  0.00    -0.266 OA
ATOM     13  N   UNL     1      -1.267  -4.006   1.223  0.00  0.00    -0.256 N 
ATOM     14  C   UNL     1      -1.292  -2.663   1.162  0.00  0.00    +0.333 A 
ATOM     15  O   UNL     1      -1.200  -2.029   2.195  0.00  0.00    -0.246 OA
ENDROOT
BRANCH   1  16
ATOM     16  C   UNL     1      -1.433  -0.534   0.013  0.00  0.00    +0.127 C 
BRANCH  16  18
ATOM     17  C   UNL     1      -0.054   1.527  -0.295  0.00  0.00    +0.005 C 
ATOM     18  C   UNL     1      -0.034  -0.003  -0.304  0.00  0.00    +0.018 C 
ENDBRANCH  16  18
ENDBRANCH   1  16
BRANCH  13  19
ATOM     19  C   UNL     1      -1.131  -4.680   2.517  0.00  0.00    +0.165 C 
BRANCH  19  20
ATOM     20  C   UNL     1      -2.499  -4.931   3.098  0.00  0.00    -0.028 A 
ATOM     21  C   UNL     1      -3.085  -3.985   3.918  0.00  0.00    +0.005 A 
ATOM     22  C   UNL     1      -4.342  -4.213   4.448  0.00  0.00    +0.000 A 
ATOM     23  C   UNL     1      -5.007  -5.391   4.165  0.00  0.00    +0.000 A 
ATOM     24  C   UNL     1      -4.419  -6.339   3.349  0.00  0.00    +0.000 A 
ATOM     25  C   UNL     1      -3.165  -6.109   2.815  0.00  0.00    +0.005 A 
ENDBRANCH  19  20
ENDBRANCH  13  19
TORSDOF 4
