REMARK  Name = ZINC67185293
REMARK  9 active torsions:
REMARK  status: ('A' for Active; 'I' for Inactive)
REMARK    1  A    between atoms: C_1  and  C_2
REMARK    2  A    between atoms: N_5  and  C_11
REMARK    3  A    between atoms: C_7  and  C_10
REMARK    4  A    between atoms: C_11  and  C_12
REMARK    5  A    between atoms: C_12  and  C_13
REMARK    6  A    between atoms: C_13  and  N_14
REMARK    7  A    between atoms: N_14  and  C_15
REMARK    8  A    between atoms: C_15  and  C_16
REMARK    9  A    between atoms: C_21  and  C_22
REMARK                            x       y       z     vdW  Elec       q    Type
REMARK                         _______ _______ _______ _____ _____    ______ ____
ROOT
ATOM      1  C   UNL     1       6.960   0.066  -5.025  0.00  0.00    -0.043 C 
ENDROOT
BRANCH   1   2
ATOM      2  C   UNL     1       8.305   0.745  -5.072  0.00  0.00    -0.016 A 
ATOM      3  C   UNL     1       8.614   1.848  -5.787  0.00  0.00    +0.107 A 
ATOM      4  N   UNL     1       9.913   2.141  -5.562  0.00  0.00    -0.284 N 
ATOM      5  H   UNL     1      10.404   2.884  -5.947  0.00  0.00    +0.188 HD
ATOM      6  N   UNL     1      10.430   1.187  -4.676  0.00  0.00    -0.171 NA
ATOM      7  C   UNL     1       9.462   0.345  -4.372  0.00  0.00    +0.129 A 
BRANCH   7   8
ATOM      8  C   UNL     1       9.571  -0.815  -3.462  0.00  0.00    +0.156 A 
ATOM      9  C   UNL     1      10.672  -1.590  -3.318  0.00  0.00    +0.060 A 
ATOM     10  C   UNL     1      10.326  -2.606  -2.321  0.00  0.00    +0.021 A 
ATOM     11  C   UNL     1      11.011  -3.677  -1.744  0.00  0.00    +0.011 A 
ATOM     12  C   UNL     1      10.385  -4.459  -0.814  0.00  0.00    +0.001 A 
ATOM     13  C   UNL     1       9.075  -4.195  -0.441  0.00  0.00    +0.004 A 
ATOM     14  C   UNL     1       8.383  -3.141  -0.999  0.00  0.00    +0.047 A 
ATOM     15  C   UNL     1       8.999  -2.333  -1.946  0.00  0.00    +0.136 A 
ATOM     16  O   UNL     1       8.592  -1.255  -2.647  0.00  0.00    -0.453 OA
ENDBRANCH   7   8
ENDBRANCH   1   2
BRANCH   1  17
ATOM     17  N   UNL     1       6.248   0.472  -3.806  0.00  0.00    +0.382 N 
ATOM     18  H   UNL     1       6.120   1.473  -3.809  0.00  0.00    -0.085 HD
ATOM     19  H   UNL     1       6.788   0.205  -2.996  0.00  0.00    -0.085 HD
BRANCH  17  20
ATOM     20  C   UNL     1       4.938  -0.190  -3.760  0.00  0.00    -0.081 C 
BRANCH  20  21
ATOM     21  C   UNL     1       4.197   0.234  -2.490  0.00  0.00    -0.004 C 
BRANCH  21  22
ATOM     22  C   UNL     1       2.832  -0.456  -2.443  0.00  0.00    +0.083 C 
BRANCH  22  26
ATOM     23  C   UNL     1      -0.019   1.526   0.010  0.00  0.00    +0.039 C 
ATOM     24  C   UNL     1       0.002  -0.004   0.002  0.00  0.00    +0.130 C 
ATOM     25  C   UNL     1       0.720  -0.499  -1.256  0.00  0.00    +0.115 C 
ATOM     26  N   UNL     1       2.120  -0.050  -1.224  0.00  0.00    -0.298 NA
ATOM     27  C   UNL     1       2.801  -0.554  -0.023  0.00  0.00    +0.115 C 
ATOM     28  C   UNL     1       2.062  -0.059   1.223  0.00  0.00    +0.130 C 
ATOM     29  O   UNL     1       0.695  -0.479   1.159  0.00  0.00    -0.371 OA
ATOM     30  C   UNL     1       2.719  -0.646   2.474  0.00  0.00    +0.039 C 
ENDBRANCH  22  26
ENDBRANCH  21  22
ENDBRANCH  20  21
ENDBRANCH  17  20
ENDBRANCH   1  17
TORSDOF 7
