REMARK  Name = ZINC39547109
REMARK  8 active torsions:
REMARK  status: ('A' for Active; 'I' for Inactive)
REMARK    1  A    between atoms: C_1  and  C_2
REMARK    2  A    between atoms: C_8  and  N_10
REMARK    3  A    between atoms: C_14  and  C_16
REMARK    4  A    between atoms: C_16  and  O_17
REMARK    5  A    between atoms: O_17  and  C_18
REMARK    6  A    between atoms: C_18  and  C_20
REMARK    7  A    between atoms: C_20  and  C_21
REMARK    8  A    between atoms: C_28  and  C_33
REMARK                            x       y       z     vdW  Elec       q    Type
REMARK                         _______ _______ _______ _____ _____    ______ ____
ROOT
ATOM      1  C   UNL     1       7.907   1.740   5.028  0.00  0.00    +0.309 C 
ATOM      2  O   UNL     1       8.560   2.079   4.069  0.00  0.00    -0.251 OA
ENDROOT
BRANCH   1   3
ATOM      3  O   UNL     1       6.652   1.295   4.863  0.00  0.00    -0.455 OA
BRANCH   3   4
ATOM      4  C   UNL     1       6.152   1.247   3.525  0.00  0.00    +0.328 C 
BRANCH   4   9
ATOM      5  N   UNL     1       2.116  -0.004   1.231  0.00  0.00    -0.296 N 
ATOM      6  C   UNL     1       2.795   0.128   2.388  0.00  0.00    +0.306 C 
ATOM      7  O   UNL     1       2.267  -0.174   3.440  0.00  0.00    -0.252 OA
ATOM      8  N   UNL     1       4.059   0.594   2.379  0.00  0.00    -0.237 N 
ATOM      9  C   UNL     1       4.738   0.726   3.536  0.00  0.00    +0.258 C 
ATOM     10  O   UNL     1       4.211   0.424   4.585  0.00  0.00    -0.272 OA
ATOM     11  H   UNL     1       2.538   0.237   0.392  0.00  0.00    +0.151 HD
ATOM     12  H   UNL     1       4.481   0.835   1.539  0.00  0.00    +0.159 HD
BRANCH   5  19
ATOM     13  C   UNL     1      -0.019   1.526   0.010  0.00  0.00    +0.009 C 
ATOM     14  C   UNL     1       0.002  -0.004   0.002  0.00  0.00    +0.006 C 
ATOM     15  C   UNL     1      -1.433  -0.534   0.013  0.00  0.00    +0.005 C 
ATOM     16  C   UNL     1      -1.413  -2.063   0.004  0.00  0.00    +0.000 C 
ATOM     17  C   UNL     1      -0.673  -2.570   1.244  0.00  0.00    +0.002 C 
ATOM     18  C   UNL     1       0.763  -2.041   1.233  0.00  0.00    +0.022 C 
ATOM     19  C   UNL     1       0.742  -0.511   1.242  0.00  0.00    +0.077 C 
ENDBRANCH   5  19
ENDBRANCH   4   9
ENDBRANCH   3   4
ENDBRANCH   1   3
BRANCH   1  20
ATOM     20  C   UNL     1       8.503   1.818   6.410  0.00  0.00    +0.144 C 
BRANCH  20  21
ATOM     21  C   UNL     1       9.933   2.354   6.320  0.00  0.00    +0.148 C 
ATOM     22  C   UNL     1      10.571   2.328   7.685  0.00  0.00    +0.231 C 
ATOM     23  O   UNL     1      11.301   1.400   7.963  0.00  0.00    -0.274 OA
ATOM     24  N   UNL     1      10.373   3.272   8.598  0.00  0.00    -0.284 N 
ATOM     25  C   UNL     1       9.671   4.462   8.425  0.00  0.00    +0.047 A 
ATOM     26  C   UNL     1       9.260   5.176   9.546  0.00  0.00    +0.036 A 
ATOM     27  C   UNL     1       8.554   6.354   9.401  0.00  0.00    +0.057 A 
ATOM     28  C   UNL     1       8.247   6.837   8.142  0.00  0.00    +0.013 A 
ATOM     29  C   UNL     1       8.653   6.139   7.019  0.00  0.00    +0.017 A 
ATOM     30  C   UNL     1       9.365   4.959   7.159  0.00  0.00    +0.030 A 
ATOM     31  S   UNL     1       9.906   4.073   5.724  0.00  0.00    -0.110 S 
ATOM     32  H   UNL     1      10.758   3.117   9.475  0.00  0.00    +0.155 HD
BRANCH  27  33
ATOM     33  C   UNL     1       8.114   7.118  10.623  0.00  0.00    +0.417 C 
ATOM     34  F   UNL     1       9.111   8.031  10.986  0.00  0.00    -0.166 F 
ATOM     35  F   UNL     1       6.930   7.808  10.341  0.00  0.00    -0.166 F 
ATOM     36  F   UNL     1       7.894   6.225  11.678  0.00  0.00    -0.166 F 
ENDBRANCH  27  33
ENDBRANCH  20  21
ENDBRANCH   1  20
TORSDOF 7
