REMARK  Name = ZINC20337144
REMARK  5 active torsions:
REMARK  status: ('A' for Active; 'I' for Inactive)
REMARK    1  A    between atoms: C_3  and  C_6
REMARK    2  A    between atoms: N_10  and  C_19
REMARK    3  A    between atoms: C_13  and  N_18
REMARK    4  A    between atoms: C_19  and  C_20
REMARK    5  A    between atoms: C_20  and  O_21
REMARK                            x       y       z     vdW  Elec       q    Type
REMARK                         _______ _______ _______ _____ _____    ______ ____
ROOT
ATOM      1  C   UNL     1       3.160   2.093   1.284  0.00  0.00    +0.097 C 
ATOM      2  C   UNL     1       2.055   1.438   0.847  0.00  0.00    +0.194 C 
ATOM      3  C   UNL     1       2.017  -0.033   0.760  0.00  0.00    +0.286 C 
ATOM      4  O   UNL     1       3.037  -0.683   0.623  0.00  0.00    -0.266 OA
ATOM      5  N   UNL     1       0.806  -0.634   0.838  0.00  0.00    -0.259 N 
ATOM      6  C   UNL     1      -0.334   0.162   1.009  0.00  0.00    +0.081 A 
ATOM      7  C   UNL     1      -1.540  -0.420   1.367  0.00  0.00    +0.050 A 
ATOM      8  C   UNL     1      -2.668   0.371   1.538  0.00  0.00    +0.027 A 
ATOM      9  C   UNL     1      -2.588   1.745   1.350  0.00  0.00    +0.026 A 
ATOM     10  C   UNL     1      -1.387   2.327   0.987  0.00  0.00    +0.050 A 
ATOM     11  C   UNL     1      -0.259   1.542   0.821  0.00  0.00    +0.150 A 
ATOM     12  O   UNL     1       0.927   2.114   0.467  0.00  0.00    -0.449 OA
ENDROOT
BRANCH   1  15
ATOM     13  C   UNL     1       6.154   0.823   2.854  0.00  0.00    +0.042 A 
ATOM     14  C   UNL     1       5.439   1.883   2.271  0.00  0.00    +0.049 A 
ATOM     15  C   UNL     1       4.211   1.374   1.908  0.00  0.00    +0.131 A 
ATOM     16  O   UNL     1       4.188   0.069   2.247  0.00  0.00    -0.463 OA
ATOM     17  C   UNL     1       5.356  -0.265   2.817  0.00  0.00    +0.195 A 
ENDBRANCH   1  15
BRANCH   8  18
ATOM     18  N   UNL     1      -3.885  -0.215   1.899  0.00  0.00    -0.358 N 
ATOM     19  H   UNL     1      -4.779   0.412   2.034  0.00  0.00    +0.142 HD
ATOM     20  H   UNL     1      -3.949  -1.303   2.047  0.00  0.00    +0.142 HD
ENDBRANCH   8  18
BRANCH   5  21
ATOM     21  C   UNL     1       0.690  -2.091   0.746  0.00  0.00    +0.142 C 
BRANCH  21  22
ATOM     22  C   UNL     1       0.506  -2.497  -0.717  0.00  0.00    +0.175 C 
BRANCH  22  23
ATOM     23  O   UNL     1       1.683  -2.164  -1.456  0.00  0.00    -0.393 OA
ATOM     24  H   UNL     1       1.738  -2.382  -2.532  0.00  0.00    +0.209 HD
ENDBRANCH  22  23
ENDBRANCH  21  22
ENDBRANCH   5  21
TORSDOF 5
