REMARK  Name = ZINC39358245
REMARK  5 active torsions:
REMARK  status: ('A' for Active; 'I' for Inactive)
REMARK    1  A    between atoms: C_1  and  C_2
REMARK    2  A    between atoms: C_2  and  C_4
REMARK    3  A    between atoms: C_2  and  N_10
REMARK    4  A    between atoms: C_15  and  C_18
REMARK    5  A    between atoms: N_21  and  C_23
REMARK                            x       y       z     vdW  Elec       q    Type
REMARK                         _______ _______ _______ _____ _____    ______ ____
ROOT
ATOM      1  N   UNL     1      -1.372  -0.511   0.012  0.00  0.00    -0.225 N 
ATOM      2  C   UNL     1      -2.014  -1.365  -0.991  0.00  0.00    +0.212 C 
ATOM      3  C   UNL     1      -3.025  -2.118  -0.127  0.00  0.00    +0.094 C 
ATOM      4  N   UNL     1      -3.098  -3.330  -0.551  0.00  0.00    -0.260 NA
ATOM      5  C   UNL     1      -2.132  -3.551  -1.640  0.00  0.00    +0.208 C 
ATOM      6  N   UNL     1      -1.151  -2.414  -1.550  0.00  0.00    -0.267 NA
ATOM      7  C   UNL     1      -3.355  -1.122   0.894  0.00  0.00    +0.156 C 
ATOM      8  N   UNL     1      -2.359  -0.288   0.992  0.00  0.00    -0.188 NA
ATOM      9  H   UNL     1      -0.803  -2.149  -2.460  0.00  0.00    +0.126 HD
ENDROOT
BRANCH   5  10
ATOM     10  C   UNL     1      -1.431  -4.872  -1.456  0.00  0.00    +0.029 A 
ATOM     11  C   UNL     1      -0.117  -5.167  -1.836  0.00  0.00    +0.141 A 
ATOM     12  N   UNL     1       0.132  -6.410  -1.514  0.00  0.00    -0.180 NA
ATOM     13  N   UNL     1      -1.016  -6.947  -0.918  0.00  0.00    -0.274 N 
ATOM     14  C   UNL     1      -1.959  -5.982  -0.889  0.00  0.00    +0.115 A 
ATOM     15  C   UNL     1      -1.165  -8.313  -0.409  0.00  0.00    +0.172 C 
ENDBRANCH   5  10
BRANCH   1  17
ATOM     16  C   UNL     1      -0.019   1.526   0.010  0.00  0.00    +0.035 C 
ATOM     17  C   UNL     1       0.002  -0.004   0.002  0.00  0.00    +0.122 C 
BRANCH  17  18
ATOM     18  C   UNL     1       0.731  -0.503   1.223  0.00  0.00    -0.026 A 
ATOM     19  C   UNL     1       0.081  -0.558   2.442  0.00  0.00    +0.005 A 
ATOM     20  C   UNL     1       0.749  -1.016   3.562  0.00  0.00    +0.000 A 
ATOM     21  C   UNL     1       2.068  -1.420   3.463  0.00  0.00    +0.000 A 
ATOM     22  C   UNL     1       2.718  -1.365   2.244  0.00  0.00    +0.000 A 
ATOM     23  C   UNL     1       2.048  -0.911   1.123  0.00  0.00    +0.005 A 
ENDBRANCH  17  18
ENDBRANCH   1  17
TORSDOF 3
