REMARK  Name = ZINC25523729
REMARK  5 active torsions:
REMARK  status: ('A' for Active; 'I' for Inactive)
REMARK    1  A    between atoms: C_1  and  C_2
REMARK    2  A    between atoms: C_7  and  N_8
REMARK    3  A    between atoms: N_8  and  S_9
REMARK    4  A    between atoms: S_9  and  C_12
REMARK    5  A    between atoms: C_15  and  N_18
REMARK                            x       y       z     vdW  Elec       q    Type
REMARK                         _______ _______ _______ _____ _____    ______ ____
ROOT
ATOM      1  C   UNL     1      -4.818   5.483  -0.033  0.00  0.00    +0.109 A 
ATOM      2  C   UNL     1      -4.491   4.143  -0.143  0.00  0.00    +0.031 A 
ATOM      3  C   UNL     1      -3.168   3.757  -0.221  0.00  0.00    +0.030 A 
ATOM      4  C   UNL     1      -2.163   4.716  -0.188  0.00  0.00    +0.069 A 
ATOM      5  C   UNL     1      -2.494   6.061  -0.071  0.00  0.00    +0.030 A 
ATOM      6  C   UNL     1      -3.820   6.440   0.001  0.00  0.00    +0.031 A 
ENDROOT
BRANCH   4   7
ATOM      7  N   UNL     1      -0.821   4.329  -0.267  0.00  0.00    -0.196 N 
ATOM      8  C   UNL     1      -0.361   3.336   0.521  0.00  0.00    +0.292 A 
ATOM      9  O   UNL     1      -1.111   2.773   1.303  0.00  0.00    -0.264 OA
ATOM     10  C   UNL     1       0.992   2.954   0.434  0.00  0.00    +0.127 A 
ATOM     11  C   UNL     1       1.810   3.599  -0.448  0.00  0.00    +0.084 A 
ATOM     12  C   UNL     1       1.295   4.627  -1.252  0.00  0.00    +0.155 A 
ATOM     13  N   UNL     1       0.040   4.977  -1.159  0.00  0.00    -0.170 NA
ATOM     14 CL   UNL     1       3.482   3.147  -0.575  0.00  0.00    -0.080 Cl
ATOM     15 CL   UNL     1       1.610   1.679   1.436  0.00  0.00    -0.076 Cl
ENDBRANCH   4   7
BRANCH   1  16
ATOM     16  S   UNL     1      -6.508   5.970   0.067  0.00  0.00    +0.072 S 
ATOM     17  O   UNL     1      -6.569   7.316  -0.385  0.00  0.00    -0.150 OA
ATOM     18  O   UNL     1      -7.267   4.930  -0.534  0.00  0.00    -0.150 OA
BRANCH  16  19
ATOM     19  N   UNL     1      -6.918   5.990   1.671  0.00  0.00    -0.216 N 
ATOM     20  H   UNL     1      -7.722   5.336   2.041  0.00  0.00    +0.174 HD
BRANCH  19  27
ATOM     21  C   UNL     1      -6.458   5.071   4.323  0.00  0.00    +0.046 C 
ATOM     22  C   UNL     1      -5.998   6.429   3.858  0.00  0.00    -0.027 A 
ATOM     23  C   UNL     1      -5.325   7.266   4.728  0.00  0.00    +0.025 A 
ATOM     24  C   UNL     1      -4.908   8.515   4.304  0.00  0.00    +0.041 A 
ATOM     25  C   UNL     1      -5.157   8.927   3.006  0.00  0.00    +0.022 A 
ATOM     26  C   UNL     1      -5.824   8.092   2.131  0.00  0.00    +0.026 A 
ATOM     27  C   UNL     1      -6.244   6.837   2.554  0.00  0.00    +0.051 A 
ATOM     28 CL   UNL     1      -4.070   9.567   5.401  0.00  0.00    -0.084 Cl
ENDBRANCH  19  27
ENDBRANCH  16  19
ENDBRANCH   1  16
TORSDOF 4
