REMARK  Name = ZINC47274750
REMARK  3 active torsions:
REMARK  status: ('A' for Active; 'I' for Inactive)
REMARK    1  A    between atoms: C_1  and  C_2
REMARK    2  A    between atoms: C_2  and  C_4
REMARK    3  A    between atoms: C_2  and  N_16
REMARK                            x       y       z     vdW  Elec       q    Type
REMARK                         _______ _______ _______ _____ _____    ______ ____
ROOT
ATOM      1  N   UNL     1       0.711  -0.489   1.189  0.00  0.00    -0.293 N 
ATOM      2  C   UNL     1       2.054  -0.600   1.174  0.00  0.00    +0.306 C 
ATOM      3  O   UNL     1       2.677  -0.297   0.175  0.00  0.00    -0.252 OA
ATOM      4  N   UNL     1       2.706  -1.046   2.266  0.00  0.00    -0.248 N 
ATOM      5  C   UNL     1       4.086  -1.160   2.250  0.00  0.00    +0.167 A 
ATOM      6  N   UNL     1       4.924  -0.879   1.280  0.00  0.00    -0.225 NA
ATOM      7  C   UNL     1       6.260  -1.039   1.405  0.00  0.00    +0.080 A 
ATOM      8  C   UNL     1       7.264  -0.777   0.445  0.00  0.00    +0.029 A 
ATOM      9  C   UNL     1       8.585  -0.997   0.736  0.00  0.00    +0.002 A 
ATOM     10  C   UNL     1       8.984  -1.481   1.973  0.00  0.00    +0.001 A 
ATOM     11  C   UNL     1       8.028  -1.748   2.936  0.00  0.00    +0.017 A 
ATOM     12  C   UNL     1       6.703  -1.531   2.654  0.00  0.00    +0.041 A 
ATOM     13  S   UNL     1       5.180  -1.718   3.549  0.00  0.00    -0.052 S 
ATOM     14  H   UNL     1       0.213  -0.731   1.986  0.00  0.00    +0.151 HD
ATOM     15  H   UNL     1       2.208  -1.288   3.062  0.00  0.00    +0.158 HD
ENDROOT
BRANCH   1  17
ATOM     16  C   UNL     1      -0.019   1.526   0.010  0.00  0.00    +0.033 C 
ATOM     17  C   UNL     1       0.002  -0.004   0.002  0.00  0.00    +0.102 C 
BRANCH  17  18
ATOM     18  C   UNL     1      -1.412  -0.526   0.013  0.00  0.00    -0.025 A 
ATOM     19  C   UNL     1      -2.121  -0.570   1.201  0.00  0.00    +0.007 A 
ATOM     20  C   UNL     1      -3.417  -1.046   1.221  0.00  0.00    +0.028 A 
ATOM     21  C   UNL     1      -4.011  -1.482   0.046  0.00  0.00    +0.067 A 
ATOM     22  C   UNL     1      -3.295  -1.438  -1.153  0.00  0.00    +0.067 A 
ATOM     23  C   UNL     1      -1.996  -0.953  -1.164  0.00  0.00    +0.033 A 
ATOM     24  N   UNL     1      -4.139  -1.932  -2.144  0.00  0.00    -0.306 N 
ATOM     25  H   UNL     1      -3.918  -2.023  -3.084  0.00  0.00    +0.170 HD
ATOM     26  C   UNL     1      -5.314  -2.262  -1.575  0.00  0.00    +0.325 A 
ATOM     27  O   UNL     1      -6.272  -2.725  -2.165  0.00  0.00    -0.247 OA
ATOM     28  N   UNL     1      -5.267  -2.002  -0.255  0.00  0.00    -0.306 N 
ATOM     29  H   UNL     1      -5.986  -2.151   0.379  0.00  0.00    +0.170 HD
ENDBRANCH  17  18
ENDBRANCH   1  17
TORSDOF 2
