REMARK  Name = ZINC28059327
REMARK  10 active torsions:
REMARK  status: ('A' for Active; 'I' for Inactive)
REMARK    1  A    between atoms: C_1  and  C_2
REMARK    2  A    between atoms: C_10  and  C_13
REMARK    3  A    between atoms: C_16  and  C_19
REMARK    4  A    between atoms: C_19  and  O_21
REMARK    5  A    between atoms: O_21  and  C_22
REMARK    6  A    between atoms: C_23  and  C_31
REMARK    7  A    between atoms: C_33  and  O_39
REMARK    8  A    between atoms: C_36  and  O_37
REMARK    9  A    between atoms: O_37  and  C_38
REMARK   10  A    between atoms: O_39  and  C_40
REMARK                            x       y       z     vdW  Elec       q    Type
REMARK                         _______ _______ _______ _____ _____    ______ ____
ROOT
ATOM      1  C   UNL     1      -1.803   5.456  -6.074  0.00  0.00    +0.044 C 
ATOM      2  C   UNL     1      -1.959   4.216  -5.232  0.00  0.00    -0.050 A 
ATOM      3  C   UNL     1      -2.944   3.293  -5.541  0.00  0.00    +0.007 A 
ATOM      4  C   UNL     1      -3.100   2.151  -4.777  0.00  0.00    +0.046 A 
ATOM      5  C   UNL     1      -2.267   1.928  -3.697  0.00  0.00    +0.131 A 
ATOM      6  C   UNL     1      -1.268   2.860  -3.385  0.00  0.00    +0.038 A 
ATOM      7  C   UNL     1      -1.118   4.005  -4.156  0.00  0.00    +0.016 A 
ATOM      8  C   UNL     1      -0.389   2.587  -2.223  0.00  0.00    +0.050 C 
ATOM      9  C   UNL     1      -0.774   1.666  -1.337  0.00  0.00    +0.026 C 
ATOM     10  C   UNL     1      -2.099   0.966  -1.532  0.00  0.00    +0.234 C 
ATOM     11  O   UNL     1      -2.390   0.821  -2.921  0.00  0.00    -0.479 OA
ATOM     12  C   UNL     1       0.063   1.302  -0.135  0.00  0.00    +0.178 C 
ATOM     13  N   UNL     1       1.400   1.862  -0.266  0.00  0.00    -0.201 N 
ATOM     14  C   UNL     1       1.741   2.801  -1.187  0.00  0.00    +0.240 A 
ATOM     15  N   UNL     1       3.002   3.076  -1.013  0.00  0.00    -0.092 NA
ATOM     16  N   UNL     1       3.484   2.369  -0.049  0.00  0.00    -0.021 NA
ATOM     17  N   UNL     1       2.567   1.606   0.452  0.00  0.00    -0.042 NA
ATOM     18  N   UNL     1       0.817   3.288  -2.097  0.00  0.00    -0.282 N 
ATOM     19  H   UNL     1       0.998   4.185  -2.707  0.00  0.00    +0.155 HD
ENDROOT
BRANCH  10  20
ATOM     20  C   UNL     1      -3.190   1.775  -0.878  0.00  0.00    -0.003 A 
ATOM     21  C   UNL     1      -3.759   1.337   0.304  0.00  0.00    +0.008 A 
ATOM     22  C   UNL     1      -4.754   2.075   0.910  0.00  0.00    +0.015 A 
ATOM     23  C   UNL     1      -5.194   3.262   0.322  0.00  0.00    +0.059 A 
ATOM     24  C   UNL     1      -4.620   3.696  -0.874  0.00  0.00    +0.015 A 
ATOM     25  C   UNL     1      -3.622   2.950  -1.467  0.00  0.00    +0.008 A 
BRANCH  23  26
ATOM     26  C   UNL     1      -6.264   4.056   0.962  0.00  0.00    +0.339 C 
ATOM     27  O   UNL     1      -6.645   5.088   0.448  0.00  0.00    -0.245 OA
BRANCH  26  28
ATOM     28  O   UNL     1      -6.816   3.634   2.116  0.00  0.00    -0.464 OA
ATOM     29  C   UNL     1      -7.861   4.464   2.688  0.00  0.00    +0.280 C 
ENDBRANCH  26  28
ENDBRANCH  23  26
ENDBRANCH  10  20
BRANCH  12  30
ATOM     30  C   UNL     1      -0.589   1.852   1.108  0.00  0.00    +0.026 A 
ATOM     31  C   UNL     1      -0.780   3.214   1.244  0.00  0.00    +0.055 A 
ATOM     32  C   UNL     1      -1.383   3.719   2.385  0.00  0.00    +0.121 A 
ATOM     33  C   UNL     1      -1.785   2.858   3.396  0.00  0.00    +0.049 A 
ATOM     34  C   UNL     1      -1.589   1.498   3.263  0.00  0.00    +0.049 A 
ATOM     35  C   UNL     1      -0.991   0.992   2.119  0.00  0.00    +0.126 A 
BRANCH  35  36
ATOM     36  O   UNL     1      -0.798  -0.348   1.988  0.00  0.00    -0.495 OA
ATOM     37  C   UNL     1      -1.236  -1.175   3.067  0.00  0.00    +0.277 C 
ENDBRANCH  35  36
BRANCH  32  38
ATOM     38  O   UNL     1      -1.576   5.059   2.516  0.00  0.00    -0.495 OA
ATOM     39  C   UNL     1      -2.199   5.510   3.721  0.00  0.00    +0.277 C 
ENDBRANCH  32  38
ENDBRANCH  12  30
TORSDOF 6
