REMARK  Name = ZINC08600357
REMARK  7 active torsions:
REMARK  status: ('A' for Active; 'I' for Inactive)
REMARK    1  A    between atoms: C_1  and  C_2
REMARK    2  A    between atoms: C_7  and  N_8
REMARK    3  A    between atoms: C_9  and  C_11
REMARK    4  A    between atoms: C_14  and  C_17
REMARK    5  A    between atoms: C_17  and  N_18
REMARK    6  A    between atoms: N_18  and  S_19
REMARK    7  A    between atoms: S_19  and  C_22
REMARK                            x       y       z     vdW  Elec       q    Type
REMARK                         _______ _______ _______ _____ _____    ______ ____
ROOT
ATOM      1  C   UNL     1       3.510  -1.775   6.245  0.00  0.00    +0.109 C 
ENDROOT
BRANCH   1   5
ATOM      2  C   UNL     1      -0.167   0.056   4.883  0.00  0.00    +0.075 C 
ATOM      3  C   UNL     1       1.061   0.951   5.063  0.00  0.00    +0.013 C 
ATOM      4  C   UNL     1       2.324   0.088   5.076  0.00  0.00    +0.005 C 
ATOM      5  C   UNL     1       2.247  -0.911   6.232  0.00  0.00    +0.005 C 
ATOM      6  C   UNL     1       1.020  -1.807   6.052  0.00  0.00    +0.005 C 
ATOM      7  C   UNL     1      -0.244  -0.943   6.039  0.00  0.00    +0.013 C 
BRANCH   2   9
ATOM      8  N   UNL     1       0.026  -0.013   2.417  0.00  0.00    -0.285 N 
ATOM      9  C   UNL     1      -0.056  -0.692   3.579  0.00  0.00    +0.220 C 
ATOM     10  O   UNL     1      -0.040  -1.905   3.575  0.00  0.00    -0.275 OA
ATOM     11  H   UNL     1       0.079   0.956   2.425  0.00  0.00    +0.155 HD
BRANCH   8  18
ATOM     12  C   UNL     1      -1.265   1.183   0.182  0.00  0.00    +0.046 C 
ATOM     13  C   UNL     1      -0.584  -0.158   0.085  0.00  0.00    -0.027 A 
ATOM     14  C   UNL     1      -0.570  -0.840  -1.116  0.00  0.00    +0.043 A 
ATOM     15  C   UNL     1       0.056  -2.072  -1.206  0.00  0.00    +0.124 A 
ATOM     16  C   UNL     1       0.667  -2.623  -0.093  0.00  0.00    +0.040 A 
ATOM     17  C   UNL     1       0.655  -1.944   1.110  0.00  0.00    +0.026 A 
ATOM     18  C   UNL     1       0.034  -0.706   1.200  0.00  0.00    +0.036 A 
ATOM     19  F   UNL     1       0.069  -2.738  -2.382  0.00  0.00    -0.205 F 
ENDBRANCH   8  18
ENDBRANCH   2   9
ENDBRANCH   1   5
BRANCH   1  20
ATOM     20  N   UNL     1       3.492  -2.649   7.420  0.00  0.00    -0.190 NA
ATOM     21  H   UNL     1       2.875  -2.472   8.147  0.00  0.00    +0.148 HD
BRANCH  20  22
ATOM     22  S   UNL     1       4.525  -3.941   7.507  0.00  0.00    +0.058 S 
ATOM     23  O   UNL     1       4.287  -4.567   8.760  0.00  0.00    -0.153 OA
ATOM     24  O   UNL     1       4.410  -4.637   6.274  0.00  0.00    -0.153 OA
BRANCH  22  25
ATOM     25  C   UNL     1       6.163  -3.295   7.570  0.00  0.00    +0.106 A 
ATOM     26  C   UNL     1       6.868  -3.067   6.402  0.00  0.00    +0.030 A 
ATOM     27  C   UNL     1       8.142  -2.560   6.468  0.00  0.00    +0.025 A 
ATOM     28  C   UNL     1       8.753  -2.269   7.700  0.00  0.00    +0.037 A 
ATOM     29  C   UNL     1       8.048  -2.502   8.861  0.00  0.00    -0.024 A 
ATOM     30  C   UNL     1       6.749  -3.007   8.781  0.00  0.00    +0.034 A 
ATOM     31  C   UNL     1       8.559  -2.259  10.243  0.00  0.00    +0.037 C 
ATOM     32  C   UNL     1      10.016  -2.531  10.455  0.00  0.00    +0.014 C 
ATOM     33  C   UNL     1      10.915  -1.442   9.922  0.00  0.00    +0.096 C 
ATOM     34  C   UNL     1      10.985  -1.458   8.437  0.00  0.00    +0.217 C 
ATOM     35  O   UNL     1      12.055  -1.167   7.944  0.00  0.00    -0.275 OA
ATOM     36  N   UNL     1      10.024  -1.750   7.607  0.00  0.00    -0.285 N 
ATOM     37  H   UNL     1      10.267  -1.552   6.689  0.00  0.00    +0.155 HD
ENDBRANCH  22  25
ENDBRANCH  20  22
ENDBRANCH   1  20
TORSDOF 6
