REMARK  Name = ZINC49175047
REMARK  6 active torsions:
REMARK  status: ('A' for Active; 'I' for Inactive)
REMARK    1  A    between atoms: C_1  and  C_2
REMARK    2  A    between atoms: C_2  and  N_3
REMARK    3  A    between atoms: C_7  and  C_9
REMARK    4  A    between atoms: C_9  and  N_10
REMARK    5  A    between atoms: C_11  and  C_13
REMARK    6  A    between atoms: C_15  and  C_19
REMARK                            x       y       z     vdW  Elec       q    Type
REMARK                         _______ _______ _______ _____ _____    ______ ____
ROOT
ATOM      1  N   UNL     1      -1.592  -1.740   2.548  0.00  0.00    -0.312 N 
ATOM      2  C   UNL     1      -2.124  -1.971   3.765  0.00  0.00    +0.265 C 
ATOM      3  O   UNL     1      -3.058  -2.740   3.884  0.00  0.00    -0.268 OA
ATOM      4  H   UNL     1      -0.847  -1.126   2.453  0.00  0.00    +0.149 HD
ENDROOT
BRANCH   2   5
ATOM      5  C   UNL     1      -1.573  -1.289   4.953  0.00  0.00    +0.161 A 
ATOM      6  C   UNL     1      -2.022  -1.429   6.288  0.00  0.00    +0.071 A 
ATOM      7  C   UNL     1      -1.225  -0.620   7.026  0.00  0.00    +0.054 A 
ATOM      8  N   UNL     1      -0.350  -0.034   6.171  0.00  0.00    -0.280 N 
ATOM      9  N   UNL     1      -0.565  -0.439   4.971  0.00  0.00    -0.168 NA
ATOM     10  H   UNL     1       0.341   0.597   6.429  0.00  0.00    +0.189 HD
ATOM     11 BR   UNL     1      -3.439  -2.515   6.910  0.00  0.00    -0.046 Br
BRANCH   7  12
ATOM     12  C   UNL     1      -1.296  -0.411   8.517  0.00  0.00    +0.038 C 
ATOM     13  C   UNL     1      -0.430   0.698   9.117  0.00  0.00    +0.010 C 
ATOM     14  C   UNL     1      -0.057  -0.769   9.340  0.00  0.00    +0.010 C 
ENDBRANCH   7  12
ENDBRANCH   2   5
BRANCH   1  15
ATOM     15  C   UNL     1      -2.139  -2.417   1.369  0.00  0.00    +0.089 C 
BRANCH  15  20
ATOM     16  N   UNL     1      -1.376  -0.512   0.012  0.00  0.00    +0.382 N 
ATOM     17  C   UNL     1      -2.052  -0.144  -1.250  0.00  0.00    -0.078 C 
ATOM     18  C   UNL     1      -1.892  -1.386  -2.162  0.00  0.00    -0.020 C 
ATOM     19  C   UNL     1      -2.041  -2.545  -1.141  0.00  0.00    -0.016 C 
ATOM     20  C   UNL     1      -1.362  -1.983   0.125  0.00  0.00    -0.051 C 
ATOM     21  H   UNL     1      -1.879  -0.117   0.793  0.00  0.00    -0.081 HD
BRANCH  16  23
ATOM     22  C   UNL     1      -0.019   1.526   0.010  0.00  0.00    -0.017 C 
ATOM     23  C   UNL     1       0.002  -0.004   0.002  0.00  0.00    -0.082 C 
ENDBRANCH  16  23
ENDBRANCH  15  20
ENDBRANCH   1  15
TORSDOF 5
