REMARK  Name = ZINC59849903
REMARK  3 active torsions:
REMARK  status: ('A' for Active; 'I' for Inactive)
REMARK    1  A    between atoms: N_9  and  C_10
REMARK    2  A    between atoms: C_15  and  N_16
REMARK    3  A    between atoms: C_17  and  C_19
REMARK                            x       y       z     vdW  Elec       q    Type
REMARK                         _______ _______ _______ _____ _____    ______ ____
ROOT
ATOM      1  N   UNL     1       4.820  -0.429  -2.470  0.00  0.00    -0.279 N 
ATOM      2  C   UNL     1       5.510  -0.721  -3.590  0.00  0.00    +0.269 C 
ATOM      3  O   UNL     1       6.711  -0.904  -3.534  0.00  0.00    -0.268 OA
ATOM      4  H   UNL     1       3.853  -0.362  -2.500  0.00  0.00    +0.155 HD
ENDROOT
BRANCH   2   5
ATOM      5  C   UNL     1       4.808  -0.818  -4.885  0.00  0.00    +0.154 A 
ATOM      6  C   UNL     1       5.553  -1.141  -6.113  0.00  0.00    +0.020 A 
ATOM      7  C   UNL     1       6.925  -1.368  -6.124  0.00  0.00    +0.011 A 
ATOM      8  C   UNL     1       7.551  -1.666  -7.316  0.00  0.00    +0.001 A 
ATOM      9  C   UNL     1       6.829  -1.741  -8.499  0.00  0.00    +0.001 A 
ATOM     10  C   UNL     1       5.469  -1.520  -8.510  0.00  0.00    +0.014 A 
ATOM     11  C   UNL     1       4.817  -1.218  -7.318  0.00  0.00    +0.050 A 
ATOM     12  C   UNL     1       3.372  -0.968  -7.239  0.00  0.00    +0.272 A 
ATOM     13  O   UNL     1       2.676  -1.018  -8.237  0.00  0.00    -0.266 OA
ATOM     14  N   UNL     1       2.833  -0.682  -6.036  0.00  0.00    -0.242 N 
ATOM     15  H   UNL     1       1.879  -0.518  -5.987  0.00  0.00    +0.192 HD
ATOM     16  N   UNL     1       3.514  -0.622  -4.954  0.00  0.00    -0.166 NA
ENDBRANCH   2   5
BRANCH   1  22
ATOM     17  C   UNL     1       4.844  -0.428  -0.048  0.00  0.00    +0.055 A 
ATOM     18  C   UNL     1       5.525  -0.227   1.144  0.00  0.00    +0.025 A 
ATOM     19  C   UNL     1       6.845   0.180   1.126  0.00  0.00    +0.002 A 
ATOM     20  C   UNL     1       7.492   0.389  -0.078  0.00  0.00    +0.002 A 
ATOM     21  C   UNL     1       6.822   0.191  -1.271  0.00  0.00    +0.025 A 
ATOM     22  C   UNL     1       5.499  -0.223  -1.263  0.00  0.00    +0.055 A 
BRANCH  17  31
ATOM     23  C   UNL     1      -0.022   1.370   0.006  0.00  0.00    +0.000 A 
ATOM     24  C   UNL     1       1.165   2.080  -0.008  0.00  0.00    +0.002 A 
ATOM     25  C   UNL     1       2.372   1.415  -0.021  0.00  0.00    +0.024 A 
ATOM     26  C   UNL     1       2.406   0.018  -0.020  0.00  0.00    +0.037 A 
ATOM     27  C   UNL     1       1.211  -0.684  -0.006  0.00  0.00    -0.025 A 
ATOM     28  C   UNL     1       0.004  -0.013   0.007  0.00  0.00    +0.005 A 
ATOM     29  C   UNL     1       1.523  -2.164  -0.009  0.00  0.00    +0.056 C 
ATOM     30  C   UNL     1       3.059  -2.235  -0.025  0.00  0.00    +0.116 C 
ATOM     31  N   UNL     1       3.507  -0.840  -0.032  0.00  0.00    -0.298 N 
ENDBRANCH  17  31
ENDBRANCH   1  22
TORSDOF 3
