REMARK  Name = ZINC39350807
REMARK  12 active torsions:
REMARK  status: ('A' for Active; 'I' for Inactive)
REMARK    1  A    between atoms: C_1  and  C_2
REMARK    2  A    between atoms: C_2  and  C_4
REMARK    3  A    between atoms: C_2  and  N_12
REMARK    4  A    between atoms: C_4  and  C_5
REMARK    5  A    between atoms: C_5  and  C_6
REMARK    6  A    between atoms: C_13  and  C_15
REMARK    7  A    between atoms: C_15  and  C_16
REMARK    8  A    between atoms: C_16  and  C_17
REMARK    9  A    between atoms: N_19  and  N_20
REMARK   10  A    between atoms: C_21  and  C_23
REMARK   11  A    between atoms: C_28  and  O_33
REMARK   12  A    between atoms: O_33  and  C_34
REMARK                            x       y       z     vdW  Elec       q    Type
REMARK                         _______ _______ _______ _____ _____    ______ ____
ROOT
ATOM      1  N   UNL     1       0.469  -2.159  -8.391  0.00  0.00    -0.232 N 
ATOM      2  C   UNL     1      -0.258  -2.315  -9.516  0.00  0.00    +0.255 C 
ATOM      3  O   UNL     1      -1.447  -2.080  -9.506  0.00  0.00    -0.272 OA
ATOM      4  H   UNL     1       1.421  -2.347  -8.399  0.00  0.00    +0.173 HD
ENDROOT
BRANCH   2   5
ATOM      5  C   UNL     1       0.408  -2.780 -10.785  0.00  0.00    +0.191 C 
ATOM      6  C   UNL     1       0.574  -4.283 -10.766  0.00  0.00    +0.016 C 
ATOM      7  C   UNL     1      -0.130  -4.751 -11.822  0.00  0.00    -0.000 A 
ATOM      8  C   UNL     1      -0.364  -6.102 -12.342  0.00  0.00    +0.056 A 
ATOM      9  C   UNL     1      -1.132  -6.269 -13.446  0.00  0.00    +0.129 A 
ATOM     10  C   UNL     1      -1.720  -5.185 -14.121  0.00  0.00    +0.048 A 
ATOM     11  C   UNL     1      -1.563  -3.906 -13.719  0.00  0.00    +0.029 A 
ATOM     12  C   UNL     1      -0.752  -3.610 -12.534  0.00  0.00    +0.043 A 
ATOM     13  N   UNL     1      -0.444  -2.482 -11.942  0.00  0.00    -0.370 N 
ATOM     14  H   UNL     1      -0.730  -1.598 -12.221  0.00  0.00    +0.161 HD
BRANCH   9  15
ATOM     15  O   UNL     1      -1.339  -7.526 -13.918  0.00  0.00    -0.456 OA
BRANCH  15  16
ATOM     16  C   UNL     1      -0.797  -7.855 -15.119  0.00  0.00    +0.128 A 
ATOM     17  C   UNL     1       0.053  -6.968 -15.764  0.00  0.00    +0.046 A 
ATOM     18  C   UNL     1       0.604  -7.304 -16.985  0.00  0.00    +0.004 A 
ATOM     19  C   UNL     1       0.309  -8.525 -17.565  0.00  0.00    +0.000 A 
ATOM     20  C   UNL     1      -0.537  -9.411 -16.924  0.00  0.00    +0.004 A 
ATOM     21  C   UNL     1      -1.086  -9.082 -15.700  0.00  0.00    +0.046 A 
ENDBRANCH  15  16
ENDBRANCH   9  15
ENDBRANCH   2   5
BRANCH   1  24
ATOM     22  C   UNL     1       0.577  -1.571  -6.087  0.00  0.00    +0.230 C 
ATOM     23  O   UNL     1       1.767  -1.806  -6.097  0.00  0.00    -0.274 OA
ATOM     24  N   UNL     1      -0.150  -1.727  -7.211  0.00  0.00    -0.234 N 
ATOM     25  H   UNL     1      -1.101  -1.539  -7.204  0.00  0.00    +0.173 HD
BRANCH  22  26
ATOM     26  C   UNL     1      -0.089  -1.106  -4.818  0.00  0.00    +0.106 C 
BRANCH  26  27
ATOM     27  C   UNL     1       0.952  -1.013  -3.700  0.00  0.00    +0.105 C 
BRANCH  27  29
ATOM     28  N   UNL     1       1.013  -0.393  -1.306  0.00  0.00    -0.313 N 
ATOM     29  C   UNL     1       0.286  -0.548  -2.431  0.00  0.00    +0.214 C 
ATOM     30  O   UNL     1      -0.904  -0.313  -2.421  0.00  0.00    -0.276 OA
ATOM     31  H   UNL     1       1.964  -0.580  -1.314  0.00  0.00    +0.149 HD
BRANCH  28  33
ATOM     32  C   UNL     1       0.296   1.588  -0.064  0.00  0.00    +0.028 C 
ATOM     33  C   UNL     1       0.365   0.060  -0.073  0.00  0.00    +0.070 C 
BRANCH  33  34
ATOM     34  C   UNL     1       1.174  -0.421   1.134  0.00  0.00    +0.026 C 
BRANCH  34  35
ATOM     35  C   UNL     1       1.139  -1.949   1.195  0.00  0.00    +0.037 C 
BRANCH  35  36
ATOM     36  C   UNL     1       1.936  -2.423   2.383  0.00  0.00    -0.047 A 
ATOM     37  C   UNL     1       3.287  -2.684   2.249  0.00  0.00    +0.003 A 
ATOM     38  C   UNL     1       4.018  -3.118   3.339  0.00  0.00    +0.000 A 
ATOM     39  C   UNL     1       3.399  -3.291   4.563  0.00  0.00    +0.000 A 
ATOM     40  C   UNL     1       2.048  -3.028   4.697  0.00  0.00    +0.000 A 
ATOM     41  C   UNL     1       1.318  -2.590   3.608  0.00  0.00    +0.003 A 
ENDBRANCH  35  36
ENDBRANCH  34  35
ENDBRANCH  33  34
ENDBRANCH  28  33
ENDBRANCH  27  29
ENDBRANCH  26  27
ENDBRANCH  22  26
ENDBRANCH   1  24
TORSDOF 11
