REMARK  Name = ZINC12659571
REMARK  9 active torsions:
REMARK  status: ('A' for Active; 'I' for Inactive)
REMARK    1  A    between atoms: C_1  and  C_2
REMARK    2  A    between atoms: C_5  and  O_44
REMARK    3  A    between atoms: C_18  and  C_43
REMARK    4  A    between atoms: C_23  and  C_24
REMARK    5  A    between atoms: C_24  and  C_26
REMARK    6  A    between atoms: C_26  and  C_27
REMARK    7  A    between atoms: C_34  and  O_35
REMARK    8  A    between atoms: O_35  and  C_36
REMARK    9  A    between atoms: C_42  and  N_84
REMARK                            x       y       z     vdW  Elec       q    Type
REMARK                         _______ _______ _______ _____ _____    ______ ____
ROOT
ATOM      1  C   UNL     1      -1.673   1.494   1.982  0.00  0.00    +0.012 C 
ATOM      2  C   UNL     1      -0.212   1.872   1.729  0.00  0.00    -0.026 C 
ATOM      3  C   UNL     1       0.662   1.286   2.817  0.00  0.00    +0.010 C 
ATOM      4  C   UNL     1       0.223   1.828   4.179  0.00  0.00    +0.032 C 
ATOM      5  C   UNL     1       0.362   3.352   4.191  0.00  0.00    +0.115 C 
ATOM      6  C   UNL     1      -0.517   3.954   3.094  0.00  0.00    +0.035 C 
ATOM      7  C   UNL     1      -0.076   3.412   1.732  0.00  0.00    -0.002 C 
ATOM      8  C   UNL     1      -0.953   4.016   0.634  0.00  0.00    +0.004 C 
ATOM      9  C   UNL     1      -0.512   3.472  -0.728  0.00  0.00    +0.004 C 
ATOM     10  C   UNL     1      -0.655   1.949  -0.737  0.00  0.00    -0.003 C 
ATOM     11  C   UNL     1       0.221   1.346   0.358  0.00  0.00    -0.001 C 
ATOM     12  C   UNL     1       1.675   1.758   0.097  0.00  0.00    +0.005 C 
ATOM     13  C   UNL     1       2.115   1.139  -1.230  0.00  0.00    +0.012 C 
ATOM     14  C   UNL     1       1.242   1.596  -2.372  0.00  0.00    -0.001 C 
ATOM     15  C   UNL     1      -0.265   1.405  -2.111  0.00  0.00    +0.006 C 
ATOM     16  C   UNL     1      -0.818   2.422  -3.159  0.00  0.00    +0.032 C 
ATOM     17  C   UNL     1       0.216   3.533  -3.139  0.00  0.00    -0.019 C 
ATOM     18  C   UNL     1       1.386   3.061  -2.689  0.00  0.00    -0.003 C 
ATOM     19  C   UNL     1       1.622   0.803  -3.624  0.00  0.00    +0.016 C 
ENDROOT
BRANCH  18  20
ATOM     20  C   UNL     1       2.610   3.845  -2.532  0.00  0.00    +0.158 C 
ATOM     21  O   UNL     1       3.608   3.327  -2.075  0.00  0.00    -0.292 OA
BRANCH  20  22
ATOM     22  C   UNL     1       2.633   5.296  -2.936  0.00  0.00    +0.069 C 
BRANCH  22  23
ATOM     23  C   UNL     1       3.981   5.911  -2.554  0.00  0.00    -0.027 C 
ATOM     24  C   UNL     1       4.231   5.689  -1.085  0.00  0.00    -0.012 A 
ATOM     25  C   UNL     1       5.467   5.311  -0.606  0.00  0.00    -0.040 A 
ATOM     26  C   UNL     1       5.654   5.124   0.755  0.00  0.00    +0.053 A 
ATOM     27  C   UNL     1       4.607   5.311   1.642  0.00  0.00    +0.170 A 
ATOM     28  C   UNL     1       3.358   5.689   1.162  0.00  0.00    +0.208 A 
ATOM     29  C   UNL     1       3.173   5.877  -0.200  0.00  0.00    +0.167 A 
ATOM     30  O   UNL     1       2.501   5.807   2.220  0.00  0.00    -0.449 OA
ATOM     31  C   UNL     1       3.341   5.897   3.386  0.00  0.00    +0.467 C 
ATOM     32  O   UNL     1       4.536   5.193   3.000  0.00  0.00    -0.452 OA
ATOM     33  C   UNL     1       6.639   5.091  -1.528  0.00  0.00    +0.017 C 
ATOM     34  C   UNL     1       6.362   5.736  -2.886  0.00  0.00    -0.074 C 
ATOM     35  C   UNL     1       4.862   5.581  -4.783  0.00  0.00    -0.095 C 
ATOM     36  N   UNL     1       5.040   5.266  -3.349  0.00  0.00    +0.383 N 
ATOM     37  H   UNL     1       4.982   4.248  -3.221  0.00  0.00    -0.081 HD
BRANCH  29  38
ATOM     38  O   UNL     1       1.953   6.247  -0.673  0.00  0.00    -0.491 OA
ATOM     39  C   UNL     1       1.693   7.648  -0.773  0.00  0.00    +0.277 C 
ENDBRANCH  29  38
ENDBRANCH  22  23
ENDBRANCH  20  22
ENDBRANCH  18  20
BRANCH   5  40
ATOM     40  O   UNL     1      -0.050   3.857   5.463  0.00  0.00    -0.392 OA
ATOM     41  H   UNL     1       0.465   3.517   6.207  0.00  0.00    +0.210 HD
ENDBRANCH   5  40
TORSDOF 5
