REMARK  Name = ZINC09058854
REMARK  9 active torsions:
REMARK  status: ('A' for Active; 'I' for Inactive)
REMARK    1  A    between atoms: C_1  and  C_2
REMARK    2  A    between atoms: C_2  and  C_40
REMARK    3  A    between atoms: C_7  and  C_28
REMARK    4  A    between atoms: C_9  and  C_22
REMARK    5  A    between atoms: C_22  and  C_24
REMARK    6  A    between atoms: C_24  and  C_25
REMARK    7  A    between atoms: C_24  and  C_26
REMARK    8  A    between atoms: C_24  and  C_27
REMARK    9  A    between atoms: C_31  and  N_34
REMARK                            x       y       z     vdW  Elec       q    Type
REMARK                         _______ _______ _______ _____ _____    ______ ____
ROOT
ATOM      1  C   UNL     1      -3.735   6.051   3.245  0.00  0.00    +0.104 C 
ATOM      2  C   UNL     1      -4.719   4.960   2.818  0.00  0.00    +0.254 C 
ATOM      3  O   UNL     1      -4.668   4.798   1.372  0.00  0.00    -0.422 OA
ATOM      4  C   UNL     1      -3.512   4.283   0.887  0.00  0.00    +0.330 C 
ATOM      5  O   UNL     1      -2.929   4.801  -0.036  0.00  0.00    -0.249 OA
ATOM      6  C   UNL     1      -2.986   3.036   1.550  0.00  0.00    +0.196 C 
ATOM      7  C   UNL     1      -1.491   2.850   1.228  0.00  0.00    +0.078 C 
ATOM      8  C   UNL     1      -1.501   1.971  -0.040  0.00  0.00    +0.169 C 
ATOM      9  N   UNL     1      -2.778   1.264  -0.071  0.00  0.00    -0.236 N 
ATOM     10  C   UNL     1      -3.660   1.787   0.995  0.00  0.00    +0.152 C 
ATOM     11  C   UNL     1      -4.980   2.100   0.340  0.00  0.00    -0.015 A 
ATOM     12  C   UNL     1      -5.811   3.076   0.839  0.00  0.00    +0.006 A 
ATOM     13  C   UNL     1      -7.012   3.350   0.208  0.00  0.00    +0.000 A 
ATOM     14  C   UNL     1      -7.382   2.646  -0.925  0.00  0.00    +0.001 A 
ATOM     15  C   UNL     1      -6.559   1.662  -1.433  0.00  0.00    +0.010 A 
ATOM     16  C   UNL     1      -5.346   1.377  -0.802  0.00  0.00    -0.000 A 
ATOM     17  C   UNL     1      -4.463   0.322  -1.337  0.00  0.00    +0.138 C 
ATOM     18  N   UNL     1      -3.205   0.282  -0.981  0.00  0.00    -0.191 NA
ATOM     19  C   UNL     1      -3.192   3.153   3.039  0.00  0.00    +0.330 C 
ATOM     20  O   UNL     1      -2.356   2.775   3.824  0.00  0.00    -0.249 OA
ATOM     21  O   UNL     1      -4.358   3.703   3.458  0.00  0.00    -0.422 OA
ATOM     22  C   UNL     1      -6.136   5.358   3.237  0.00  0.00    +0.104 C 
ENDROOT
BRANCH   7  23
ATOM     23  C   UNL     1      -0.790   2.142   2.358  0.00  0.00    -0.040 A 
ATOM     24  C   UNL     1      -1.184   0.869   2.727  0.00  0.00    +0.006 A 
ATOM     25  C   UNL     1      -0.538   0.218   3.761  0.00  0.00    +0.033 A 
ATOM     26  C   UNL     1       0.496   0.842   4.432  0.00  0.00    +0.126 A 
ATOM     27  C   UNL     1       0.887   2.117   4.067  0.00  0.00    +0.033 A 
ATOM     28  C   UNL     1       0.244   2.767   3.030  0.00  0.00    +0.006 A 
BRANCH  26  29
ATOM     29  N   UNL     1       1.185   0.147   5.543  0.00  0.00    +0.056 N 
ATOM     30  O   UNL     1       2.096   0.697   6.135  0.00  0.00    -0.126 OA
ATOM     31  O   UNL     1       0.841  -0.977   5.864  0.00  0.00    -0.126 OA
ENDBRANCH  26  29
ENDBRANCH   7  23
BRANCH   8  32
ATOM     32  C   UNL     1      -0.368   0.980   0.015  0.00  0.00    +0.161 C 
ATOM     33  O   UNL     1      -0.548  -0.118   0.485  0.00  0.00    -0.295 OA
BRANCH  32  34
ATOM     34  C   UNL     1       0.989   1.355  -0.523  0.00  0.00    +0.023 C 
ATOM     35  C   UNL     1       1.955   0.184  -0.334  0.00  0.00    +0.018 C 
ATOM     36  C   UNL     1       0.874   1.687  -2.012  0.00  0.00    +0.018 C 
ATOM     37  C   UNL     1       1.516   2.578   0.232  0.00  0.00    +0.018 C 
ENDBRANCH  32  34
ENDBRANCH   8  32
TORSDOF 4
