REMARK  Name = ZINC39771720
REMARK  9 active torsions:
REMARK  status: ('A' for Active; 'I' for Inactive)
REMARK    1  A    between atoms: C_1  and  C_2
REMARK    2  A    between atoms: C_2  and  C_3
REMARK    3  A    between atoms: C_3  and  N_4
REMARK    4  A    between atoms: C_5  and  C_7
REMARK    5  A    between atoms: C_7  and  C_9
REMARK    6  A    between atoms: C_7  and  S_10
REMARK    7  A    between atoms: S_10  and  C_11
REMARK    8  A    between atoms: C_15  and  C_20
REMARK    9  A    between atoms: N_16  and  C_17
REMARK                            x       y       z     vdW  Elec       q    Type
REMARK                         _______ _______ _______ _____ _____    ______ ____
ROOT
ATOM      1  C   UNL     1      -3.882  -6.679  -0.812  0.00  0.00    +0.238 C 
ATOM      2  N   UNL     1      -2.660  -6.969  -1.579  0.00  0.00    -0.237 N 
ATOM      3  N   UNL     1      -1.760  -7.562  -0.686  0.00  0.00    -0.169 NA
ATOM      4  C   UNL     1      -2.278  -7.665   0.510  0.00  0.00    +0.147 C 
ATOM      5  N   UNL     1      -3.581  -7.155   0.548  0.00  0.00    -0.282 N 
ATOM      6  H   UNL     1      -2.508  -6.785  -2.520  0.00  0.00    +0.171 HD
ENDROOT
BRANCH   4   7
ATOM      7  C   UNL     1      -1.613  -8.220   1.614  0.00  0.00    +0.022 C 
ATOM      8  C   UNL     1      -0.362  -8.838   1.623  0.00  0.00    +0.006 A 
ATOM      9  C   UNL     1       0.582  -9.093   0.605  0.00  0.00    +0.010 A 
ATOM     10  C   UNL     1       1.744  -9.727   0.908  0.00  0.00    +0.001 A 
ATOM     11  C   UNL     1       2.035 -10.138   2.211  0.00  0.00    +0.002 A 
ATOM     12  C   UNL     1       1.174  -9.926   3.236  0.00  0.00    +0.026 A 
ATOM     13  C   UNL     1      -0.061  -9.270   2.997  0.00  0.00    +0.043 A 
ATOM     14  N   UNL     1      -1.050  -8.949   3.808  0.00  0.00    -0.380 N 
ATOM     15  C   UNL     1      -2.100  -8.267   3.046  0.00  0.00    +0.152 C 
ATOM     16  H   UNL     1      -1.077  -9.132   4.761  0.00  0.00    +0.160 HD
ENDBRANCH   4   7
BRANCH   5  17
ATOM     17  C   UNL     1      -4.471  -7.104   1.711  0.00  0.00    +0.078 C 
ATOM     18  C   UNL     1      -5.748  -7.945   1.661  0.00  0.00    +0.024 C 
ATOM     19  C   UNL     1      -5.829  -6.422   1.532  0.00  0.00    +0.024 C 
ENDBRANCH   5  17
BRANCH   1  20
ATOM     20  S   UNL     1      -4.216  -4.896  -0.800  0.00  0.00    -0.106 S 
BRANCH  20  21
ATOM     21  C   UNL     1      -2.705  -4.171  -0.106  0.00  0.00    +0.132 C 
ATOM     22  C   UNL     1      -2.542  -4.626   1.346  0.00  0.00    +0.029 C 
BRANCH  21  24
ATOM     23  N   UNL     1      -1.680  -1.921  -0.181  0.00  0.00    -0.314 N 
ATOM     24  C   UNL     1      -2.802  -2.668  -0.153  0.00  0.00    +0.226 C 
ATOM     25  O   UNL     1      -3.889  -2.130  -0.166  0.00  0.00    -0.275 OA
ATOM     26  H   UNL     1      -0.811  -2.351  -0.171  0.00  0.00    +0.149 HD
BRANCH  23  27
ATOM     27  C   UNL     1      -1.774  -0.460  -0.227  0.00  0.00    +0.104 C 
BRANCH  27  29
ATOM     28  C   UNL     1      -0.465   1.667  -0.300  0.00  0.00    +0.005 C 
ATOM     29  C   UNL     1      -0.367   0.141  -0.252  0.00  0.00    +0.015 C 
ENDBRANCH  27  29
ENDBRANCH  23  27
ENDBRANCH  21  24
ENDBRANCH  20  21
ENDBRANCH   1  20
TORSDOF 7
