REMARK  Name = ZINC39671545
REMARK  9 active torsions:
REMARK  status: ('A' for Active; 'I' for Inactive)
REMARK    1  A    between atoms: C_1  and  C_2
REMARK    2  A    between atoms: C_2  and  C_3
REMARK    3  A    between atoms: C_3  and  C_4
REMARK    4  A    between atoms: C_4  and  C_5
REMARK    5  A    between atoms: C_5  and  C_7
REMARK    6  A    between atoms: C_5  and  C_8
REMARK    7  A    between atoms: C_12  and  C_21
REMARK    8  A    between atoms: N_23  and  C_24
REMARK    9  A    between atoms: C_24  and  C_25
REMARK                            x       y       z     vdW  Elec       q    Type
REMARK                         _______ _______ _______ _____ _____    ______ ____
ROOT
ATOM      1  C   UNL     1       1.419  -4.211   2.486  0.00  0.00    +0.218 C 
ATOM      2  O   UNL     1       0.786  -4.839   1.665  0.00  0.00    -0.275 OA
ATOM      3  N   UNL     1       1.985  -4.847   3.531  0.00  0.00    -0.300 N 
ATOM      4  C   UNL     1       2.782  -4.255   4.631  0.00  0.00    +0.121 C 
ATOM      5  C   UNL     1       2.333  -5.022   5.896  0.00  0.00    +0.100 C 
ATOM      6  C   UNL     1       1.789  -6.361   5.370  0.00  0.00    -0.004 C 
ATOM      7  C   UNL     1       1.944  -6.295   3.844  0.00  0.00    +0.115 C 
ATOM      8  C   UNL     1       0.317  -6.514   5.739  0.00  0.00    -0.010 C 
ATOM      9  C   UNL     1      -0.186  -7.877   5.255  0.00  0.00    -0.082 C 
ATOM     10  N   UNL     1       0.608  -8.943   5.878  0.00  0.00    +0.379 N 
ATOM     11  C   UNL     1       2.007  -8.843   5.444  0.00  0.00    -0.082 C 
ATOM     12  C   UNL     1       2.603  -7.521   5.935  0.00  0.00    -0.010 C 
ATOM     13  H   UNL     1       0.562  -8.853   6.882  0.00  0.00    -0.086 HD
ATOM     14  H   UNL     1       0.237  -9.841   5.606  0.00  0.00    -0.086 HD
ENDROOT
BRANCH   5  15
ATOM     15  C   UNL     1       3.506  -5.253   6.814  0.00  0.00    +0.219 C 
ATOM     16  O   UNL     1       4.620  -5.383   6.353  0.00  0.00    -0.275 OA
ATOM     17  N   UNL     1       3.316  -5.315   8.146  0.00  0.00    -0.309 N 
ATOM     18  H   UNL     1       2.425  -5.211   8.515  0.00  0.00    +0.149 HD
BRANCH  17  19
ATOM     19  C   UNL     1       4.456  -5.540   9.039  0.00  0.00    +0.157 C 
BRANCH  19  20
ATOM     20  C   UNL     1       3.977  -5.566  10.468  0.00  0.00    +0.034 A 
ATOM     21  H   UNL     1       3.966  -3.548  10.982  0.00  0.00    +0.166 HD
ATOM     22  C   UNL     1       3.666  -6.676  11.155  0.00  0.00    +0.032 A 
ATOM     23  C   UNL     1       3.252  -6.249  12.494  0.00  0.00    -0.000 A 
ATOM     24  C   UNL     1       2.821  -6.923  13.638  0.00  0.00    +0.010 A 
ATOM     25  C   UNL     1       2.499  -6.215  14.762  0.00  0.00    +0.001 A 
ATOM     26  C   UNL     1       2.597  -4.830  14.775  0.00  0.00    +0.002 A 
ATOM     27  C   UNL     1       3.020  -4.145  13.657  0.00  0.00    +0.026 A 
ATOM     28  C   UNL     1       3.352  -4.845  12.502  0.00  0.00    +0.047 A 
ATOM     29  N   UNL     1       3.802  -4.463  11.258  0.00  0.00    -0.357 N 
ENDBRANCH  19  20
ENDBRANCH  17  19
ENDBRANCH   5  15
BRANCH   1  30
ATOM     30  C   UNL     1       1.573  -2.719   2.339  0.00  0.00    +0.072 C 
ATOM     31  C   UNL     1       3.058  -2.368   2.226  0.00  0.00    +0.017 C 
BRANCH  30  32
ATOM     32  C   UNL     1       0.841  -2.252   1.079  0.00  0.00    +0.012 C 
BRANCH  32  33
ATOM     33  C   UNL     1       0.892  -0.725   0.997  0.00  0.00    +0.000 C 
BRANCH  33  35
ATOM     34  C   UNL     1       0.210   1.268  -0.346  0.00  0.00    +0.004 C 
ATOM     35  C   UNL     1       0.160  -0.259  -0.263  0.00  0.00    -0.003 C 
ENDBRANCH  33  35
ENDBRANCH  32  33
ENDBRANCH  30  32
ENDBRANCH   1  30
TORSDOF 7
