REMARK  Name = ZINC63974424
REMARK  4 active torsions:
REMARK  status: ('A' for Active; 'I' for Inactive)
REMARK    1  A    between atoms: C_1  and  C_2
REMARK    2  A    between atoms: C_7  and  C_8
REMARK    3  A    between atoms: N_13  and  N_14
REMARK    4  A    between atoms: C_15  and  C_16
REMARK                            x       y       z     vdW  Elec       q    Type
REMARK                         _______ _______ _______ _____ _____    ______ ____
ROOT
ATOM      1  C   UNL     1       0.191   0.165   2.362  0.00  0.00    +0.214 C 
ATOM      2  N   UNL     1       0.893   1.441   2.118  0.00  0.00    -0.215 NA
ATOM      3  N   UNL     1       1.961   1.455   2.968  0.00  0.00    -0.259 N 
ATOM      4  C   UNL     1       2.002   0.340   3.709  0.00  0.00    +0.168 C 
ATOM      5  N   UNL     1       0.980  -0.490   3.417  0.00  0.00    -0.180 N 
ATOM      6  S   UNL     1       3.201   0.010   4.885  0.00  0.00    -0.016 S 
ATOM      7  H   UNL     1       1.195   1.509   1.157  0.00  0.00    +0.147 HD
ATOM      8  H   UNL     1       2.606   2.178   3.028  0.00  0.00    +0.168 HD
ENDROOT
BRANCH   1  15
ATOM      9  C   UNL     1      -1.994   0.398   0.486  0.00  0.00    +0.044 C 
ATOM     10  C   UNL     1      -0.868  -0.566   0.215  0.00  0.00    -0.044 A 
ATOM     11  C   UNL     1      -0.877  -1.335  -0.934  0.00  0.00    +0.004 A 
ATOM     12  C   UNL     1       0.156  -2.219  -1.182  0.00  0.00    +0.000 A 
ATOM     13  C   UNL     1       1.199  -2.334  -0.282  0.00  0.00    +0.000 A 
ATOM     14  C   UNL     1       1.209  -1.564   0.866  0.00  0.00    +0.007 A 
ATOM     15  C   UNL     1       0.178  -0.677   1.113  0.00  0.00    -0.007 A 
ENDBRANCH   1  15
BRANCH   5  16
ATOM     16  N   UNL     1       0.720  -1.736   4.002  0.00  0.00    -0.184 NA
ATOM     17  C   UNL     1      -0.282  -2.464   3.574  0.00  0.00    +0.136 C 
BRANCH  17  18
ATOM     18  C   UNL     1      -0.473  -3.757   4.077  0.00  0.00    +0.000 C 
ATOM     19  C   UNL     1      -1.478  -4.658   3.727  0.00  0.00    +0.004 A 
ATOM     20  C   UNL     1      -2.557  -4.578   2.820  0.00  0.00    +0.010 A 
ATOM     21  C   UNL     1      -3.398  -5.634   2.680  0.00  0.00    +0.001 A 
ATOM     22  C   UNL     1      -3.226  -6.810   3.415  0.00  0.00    +0.002 A 
ATOM     23  C   UNL     1      -2.213  -6.957   4.303  0.00  0.00    +0.026 A 
ATOM     24  C   UNL     1      -1.291  -5.895   4.504  0.00  0.00    +0.043 A 
ATOM     25  N   UNL     1      -0.242  -5.790   5.293  0.00  0.00    -0.380 N 
ATOM     26  C   UNL     1       0.372  -4.471   5.109  0.00  0.00    +0.150 C 
ATOM     27  H   UNL     1       0.076  -6.478   5.898  0.00  0.00    +0.160 HD
ENDBRANCH  17  18
ENDBRANCH   5  16
TORSDOF 3
