REMARK  Name = ZINC39672921
REMARK  8 active torsions:
REMARK  status: ('A' for Active; 'I' for Inactive)
REMARK    1  A    between atoms: C_4  and  C_7
REMARK    2  A    between atoms: C_7  and  C_8
REMARK    3  A    between atoms: C_8  and  C_9
REMARK    4  A    between atoms: C_9  and  C_10
REMARK    5  A    between atoms: C_14  and  C_23
REMARK    6  A    between atoms: N_25  and  C_26
REMARK    7  A    between atoms: C_26  and  C_27
REMARK    8  A    between atoms: C_27  and  N_33
REMARK                            x       y       z     vdW  Elec       q    Type
REMARK                         _______ _______ _______ _____ _____    ______ ____
ROOT
ATOM      1  C   UNL     1       5.841  -1.592   2.618  0.00  0.00    +0.216 C 
ATOM      2  O   UNL     1       5.149  -1.211   3.538  0.00  0.00    -0.276 OA
ATOM      3  N   UNL     1       6.959  -2.303   2.865  0.00  0.00    -0.300 N 
ATOM      4  C   UNL     1       7.926  -2.845   1.883  0.00  0.00    +0.121 C 
ATOM      5  C   UNL     1       9.309  -2.628   2.536  0.00  0.00    +0.100 C 
ATOM      6  C   UNL     1       9.022  -2.549   4.045  0.00  0.00    -0.004 C 
ATOM      7  C   UNL     1       7.502  -2.714   4.182  0.00  0.00    +0.115 C 
ATOM      8  C   UNL     1       9.745  -3.673   4.781  0.00  0.00    -0.010 C 
ATOM      9  C   UNL     1       9.492  -3.538   6.285  0.00  0.00    -0.082 C 
ATOM     10  N   UNL     1       9.975  -2.232   6.749  0.00  0.00    +0.379 N 
ATOM     11  C   UNL     1       9.210  -1.157   6.105  0.00  0.00    -0.082 C 
ATOM     12  C   UNL     1       9.452  -1.191   4.593  0.00  0.00    -0.010 C 
ATOM     13  H   UNL     1       9.862  -2.170   7.750  0.00  0.00    -0.086 HD
ATOM     14  H   UNL     1      10.951  -2.134   6.517  0.00  0.00    -0.086 HD
ENDROOT
BRANCH   5  15
ATOM     15  C   UNL     1       9.925  -1.342   2.048  0.00  0.00    +0.218 C 
ATOM     16  O   UNL     1       9.214  -0.425   1.696  0.00  0.00    -0.275 OA
ATOM     17  N   UNL     1      11.265  -1.211   2.003  0.00  0.00    -0.313 N 
ATOM     18  H   UNL     1      11.834  -1.945   2.285  0.00  0.00    +0.149 HD
BRANCH  17  19
ATOM     19  C   UNL     1      11.864   0.039   1.529  0.00  0.00    +0.126 C 
BRANCH  19  20
ATOM     20  C   UNL     1      13.384  -0.119   1.453  0.00  0.00    +0.038 C 
ATOM     21  C   UNL     1      14.018   1.223   1.084  0.00  0.00    +0.024 C 
ATOM     22  C   UNL     1      13.485   1.683  -0.274  0.00  0.00    +0.002 C 
ATOM     23  C   UNL     1      13.837   0.643  -1.339  0.00  0.00    +0.000 C 
ATOM     24  C   UNL     1      13.202  -0.700  -0.970  0.00  0.00    +0.002 C 
ATOM     25  C   UNL     1      13.736  -1.160   0.388  0.00  0.00    +0.024 C 
BRANCH  20  26
ATOM     26  N   UNL     1      13.895  -0.561   2.757  0.00  0.00    -0.291 NA
ATOM     27  C   UNL     1      13.517   0.383   3.819  0.00  0.00    +0.113 C 
ATOM     28  C   UNL     1      14.018  -0.145   5.166  0.00  0.00    +0.175 C 
ATOM     29  O   UNL     1      15.432  -0.345   5.098  0.00  0.00    -0.377 OA
ATOM     30  C   UNL     1      15.836  -1.259   4.075  0.00  0.00    +0.175 C 
ATOM     31  C   UNL     1      15.354  -0.742   2.717  0.00  0.00    +0.113 C 
ENDBRANCH  20  26
ENDBRANCH  19  20
ENDBRANCH  17  19
ENDBRANCH   5  15
BRANCH   1  32
ATOM     32  C   UNL     1       5.450  -1.271   1.198  0.00  0.00    +0.096 C 
BRANCH  32  33
ATOM     33  C   UNL     1       4.152  -0.461   1.197  0.00  0.00    +0.014 C 
BRANCH  33  34
ATOM     34  C   UNL     1       3.756  -0.135  -0.244  0.00  0.00    +0.035 C 
BRANCH  34  38
ATOM     35  C   UNL     1       0.132   2.126  -0.250  0.00  0.00    +0.000 A 
ATOM     36  C   UNL     1       1.351   2.775  -0.193  0.00  0.00    +0.000 A 
ATOM     37  C   UNL     1       2.524   2.043  -0.190  0.00  0.00    +0.003 A 
ATOM     38  C   UNL     1       2.478   0.663  -0.245  0.00  0.00    -0.047 A 
ATOM     39  C   UNL     1       1.258   0.014  -0.302  0.00  0.00    +0.003 A 
ATOM     40  C   UNL     1       0.085   0.746  -0.306  0.00  0.00    +0.000 A 
ENDBRANCH  34  38
ENDBRANCH  33  34
ENDBRANCH  32  33
ENDBRANCH   1  32
TORSDOF 8
