REMARK  Name = ZINC08590355
REMARK  4 active torsions:
REMARK  status: ('A' for Active; 'I' for Inactive)
REMARK    1  A    between atoms: C_6  and  C_7
REMARK    2  A    between atoms: C_9  and  C_13
REMARK    3  A    between atoms: N_18  and  S_21
REMARK    4  A    between atoms: S_21  and  C_24
REMARK                            x       y       z     vdW  Elec       q    Type
REMARK                         _______ _______ _______ _____ _____    ______ ____
ROOT
ATOM      1  C   UNL     1      -3.427  -3.720   0.023  0.00  0.00    +0.264 C 
ATOM      2  O   UNL     1      -2.768  -4.734  -0.109  0.00  0.00    -0.268 OA
ATOM      3  N   UNL     1      -4.768  -3.797   0.134  0.00  0.00    -0.294 N 
ATOM      4  C   UNL     1      -5.590  -2.579   0.138  0.00  0.00    +0.125 C 
ATOM      5  C   UNL     1      -6.643  -2.695  -0.971  0.00  0.00    +0.128 C 
ATOM      6  N   UNL     1      -7.309  -3.999  -0.851  0.00  0.00    -0.173 NA
ATOM      7  C   UNL     1      -6.488  -5.218  -0.855  0.00  0.00    +0.128 C 
ATOM      8  C   UNL     1      -5.435  -5.102   0.249  0.00  0.00    +0.125 C 
ENDROOT
BRANCH   1  11
ATOM      9  C   UNL     1      -1.332  -0.730  -0.183  0.00  0.00    +0.093 A 
ATOM     10  C   UNL     1      -1.525  -2.093  -0.474  0.00  0.00    +0.062 A 
ATOM     11  C   UNL     1      -2.760  -2.408   0.060  0.00  0.00    +0.121 A 
ATOM     12  N   UNL     1      -3.240  -1.262   0.629  0.00  0.00    -0.272 N 
ATOM     13  H   UNL     1      -4.093  -1.181   1.084  0.00  0.00    +0.189 HD
ATOM     14  N   UNL     1      -2.390  -0.311   0.478  0.00  0.00    -0.173 NA
BRANCH   9  20
ATOM     15  C   UNL     1      -0.086   1.430  -0.191  0.00  0.00    +0.011 A 
ATOM     16  C   UNL     1       1.018   2.184  -0.533  0.00  0.00    +0.020 A 
ATOM     17  C   UNL     1       2.063   1.607  -1.233  0.00  0.00    +0.041 A 
ATOM     18  C   UNL     1       2.007   0.271  -1.593  0.00  0.00    +0.020 A 
ATOM     19  C   UNL     1       0.907  -0.491  -1.255  0.00  0.00    +0.011 A 
ATOM     20  C   UNL     1      -0.147   0.086  -0.550  0.00  0.00    +0.002 A 
ATOM     21 CL   UNL     1       3.449   2.560  -1.662  0.00  0.00    -0.084 Cl
ENDBRANCH   9  20
ENDBRANCH   1  11
BRANCH   6  22
ATOM     22  S   UNL     1      -8.957  -4.094  -0.714  0.00  0.00    +0.067 S 
ATOM     23  O   UNL     1      -9.241  -5.331  -0.075  0.00  0.00    -0.152 OA
ATOM     24  O   UNL     1      -9.393  -2.848  -0.190  0.00  0.00    -0.152 OA
BRANCH  22  25
ATOM     25  C   UNL     1      -9.610  -4.210  -2.347  0.00  0.00    +0.144 A 
ATOM     26  C   UNL     1      -9.866  -5.316  -3.087  0.00  0.00    +0.037 A 
ATOM     27  C   UNL     1     -10.384  -5.165  -4.360  0.00  0.00    +0.025 A 
ATOM     28  C   UNL     1     -10.620  -3.915  -4.830  0.00  0.00    +0.057 A 
ATOM     29  S   UNL     1     -10.112  -2.901  -3.452  0.00  0.00    -0.062 S 
ATOM     30 BR   UNL     1     -11.314  -3.385  -6.507  0.00  0.00    -0.043 Br
ENDBRANCH  22  25
ENDBRANCH   6  22
TORSDOF 4
