REMARK  Name = ZINC39911880
REMARK  13 active torsions:
REMARK  status: ('A' for Active; 'I' for Inactive)
REMARK    1  A    between atoms: C_1  and  C_2
REMARK    2  A    between atoms: C_2  and  C_3
REMARK    3  A    between atoms: C_3  and  C_4
REMARK    4  A    between atoms: C_4  and  N_5
REMARK    5  A    between atoms: C_6  and  C_25
REMARK    6  A    between atoms: C_9  and  C_16
REMARK    7  A    between atoms: C_18  and  C_24
REMARK    8  A    between atoms: C_20  and  C_23
REMARK    9  A    between atoms: C_21  and  O_22
REMARK   10  A    between atoms: C_28  and  C_31
REMARK   11  A    between atoms: C_31  and  C_32
REMARK   12  A    between atoms: C_31  and  C_33
REMARK   13  A    between atoms: C_31  and  C_34
REMARK                            x       y       z     vdW  Elec       q    Type
REMARK                         _______ _______ _______ _____ _____    ______ ____
ROOT
ATOM      1  N   UNL     1      -2.787  -2.571   0.015  0.00  0.00    -0.285 N 
ATOM      2  C   UNL     1      -3.585  -2.869   1.211  0.00  0.00    +0.141 C 
ATOM      3  C   UNL     1      -4.917  -3.358   0.712  0.00  0.00    +0.035 A 
ATOM      4  C   UNL     1      -6.195  -3.830   1.031  0.00  0.00    +0.102 A 
ATOM      5  N   UNL     1      -6.825  -4.058  -0.105  0.00  0.00    -0.173 NA
ATOM      6  N   UNL     1      -6.073  -3.777  -1.108  0.00  0.00    -0.272 N 
ATOM      7  H   UNL     1      -6.329  -3.867  -2.039  0.00  0.00    +0.189 HD
ATOM      8  C   UNL     1      -4.859  -3.331  -0.668  0.00  0.00    +0.126 A 
ATOM      9  C   UNL     1      -3.537  -2.837  -1.070  0.00  0.00    +0.265 C 
ATOM     10  O   UNL     1      -3.170  -2.691  -2.220  0.00  0.00    -0.268 OA
ENDROOT
BRANCH   4  11
ATOM     11  C   UNL     1      -6.740  -4.037   2.395  0.00  0.00    +0.044 A 
ATOM     12  C   UNL     1      -5.959  -3.749   3.512  0.00  0.00    +0.017 A 
ATOM     13  C   UNL     1      -6.471  -3.942   4.779  0.00  0.00    -0.049 A 
ATOM     14  C   UNL     1      -7.757  -4.423   4.945  0.00  0.00    +0.010 A 
ATOM     15  C   UNL     1      -8.540  -4.713   3.844  0.00  0.00    -0.008 A 
ATOM     16  C   UNL     1      -8.041  -4.518   2.566  0.00  0.00    +0.129 A 
ATOM     17  C   UNL     1      -9.941  -5.237   4.033  0.00  0.00    +0.047 C 
ATOM     18  C   UNL     1      -5.624  -3.630   5.986  0.00  0.00    +0.044 C 
BRANCH  16  19
ATOM     19  O   UNL     1      -8.812  -4.797   1.483  0.00  0.00    -0.506 OA
ATOM     20  H   UNL     1      -8.730  -5.707   1.166  0.00  0.00    +0.292 HD
ENDBRANCH  16  19
ENDBRANCH   4  11
BRANCH   2  21
ATOM     21  C   UNL     1      -2.911  -3.940   2.030  0.00  0.00    -0.022 A 
ATOM     22  C   UNL     1      -2.301  -5.009   1.401  0.00  0.00    +0.006 A 
ATOM     23  C   UNL     1      -1.683  -5.992   2.152  0.00  0.00    +0.004 A 
ATOM     24  C   UNL     1      -1.675  -5.905   3.531  0.00  0.00    -0.042 A 
ATOM     25  C   UNL     1      -2.285  -4.836   4.160  0.00  0.00    +0.004 A 
ATOM     26  C   UNL     1      -2.899  -3.851   3.409  0.00  0.00    +0.006 A 
BRANCH  24  27
ATOM     27  C   UNL     1      -1.003  -6.977   4.350  0.00  0.00    -0.013 C 
ATOM     28  C   UNL     1       0.479  -7.050   3.976  0.00  0.00    +0.015 C 
ATOM     29  C   UNL     1      -1.138  -6.643   5.837  0.00  0.00    +0.015 C 
ATOM     30  C   UNL     1      -1.667  -8.326   4.068  0.00  0.00    +0.015 C 
ENDBRANCH  24  27
ENDBRANCH   2  21
BRANCH   1  31
ATOM     31  C   UNL     1      -1.413  -2.063   0.004  0.00  0.00    +0.109 C 
BRANCH  31  32
ATOM     32  C   UNL     1      -1.433  -0.534   0.013  0.00  0.00    +0.019 C 
BRANCH  32  34
ATOM     33  C   UNL     1      -0.019   1.526   0.010  0.00  0.00    +0.004 C 
ATOM     34  C   UNL     1       0.002  -0.004   0.002  0.00  0.00    -0.002 C 
ENDBRANCH  32  34
ENDBRANCH  31  32
ENDBRANCH   1  31
TORSDOF 7
