REMARK  Name = ZINC33436083
REMARK  6 active torsions:
REMARK  status: ('A' for Active; 'I' for Inactive)
REMARK    1  A    between atoms: C_1  and  C_2
REMARK    2  A    between atoms: C_8  and  C_12
REMARK    3  A    between atoms: C_12  and  C_13
REMARK    4  A    between atoms: C_13  and  N_14
REMARK    5  A    between atoms: C_15  and  C_17
REMARK    6  A    between atoms: C_18  and  N_22
REMARK                            x       y       z     vdW  Elec       q    Type
REMARK                         _______ _______ _______ _____ _____    ______ ____
ROOT
ATOM      1  C   UNL     1       2.168   1.092  -0.015  0.00  0.00    +0.177 A 
ATOM      2  C   UNL     1       1.722  -0.232  -0.018  0.00  0.00    +0.126 A 
ATOM      3  S   UNL     1       0.002  -0.004  -0.005  0.00  0.00    +0.052 S 
ATOM      4  N   UNL     1      -0.021   1.706   0.003  0.00  0.00    -0.108 NA
ATOM      5  N   UNL     1       1.228   2.026  -0.004  0.00  0.00    -0.135 NA
ENDROOT
BRANCH   2   6
ATOM      6  N   UNL     1       2.455  -1.407  -0.028  0.00  0.00    -0.261 N 
ATOM      7  C   UNL     1       1.821  -2.596  -0.030  0.00  0.00    +0.307 C 
ATOM      8  O   UNL     1       0.610  -2.640   0.072  0.00  0.00    -0.252 OA
ATOM      9  N   UNL     1       2.529  -3.738  -0.144  0.00  0.00    -0.284 N 
ATOM     10  C   UNL     1       3.996  -3.712  -0.166  0.00  0.00    +0.114 C 
ATOM     11  C   UNL     1       4.526  -4.511  -1.341  0.00  0.00    +0.027 C 
ATOM     12  C   UNL     1       3.881  -5.896  -1.405  0.00  0.00    +0.018 C 
ATOM     13  C   UNL     1       2.366  -5.715  -1.537  0.00  0.00    +0.054 C 
ATOM     14  C   UNL     1       1.847  -5.038  -0.257  0.00  0.00    +0.119 C 
ATOM     15  C   UNL     1       2.061  -4.797  -2.698  0.00  0.00    +0.027 A 
ATOM     16  C   UNL     1       0.844  -4.927  -3.291  0.00  0.00    +0.022 A 
ATOM     17  C   UNL     1       0.463  -4.070  -4.330  0.00  0.00    +0.007 A 
ATOM     18  C   UNL     1       1.325  -3.088  -4.723  0.00  0.00    +0.070 A 
ATOM     19  C   UNL     1       2.572  -2.984  -4.092  0.00  0.00    +0.251 A 
ATOM     20  O   UNL     1       3.330  -2.079  -4.403  0.00  0.00    -0.268 OA
ATOM     21  N   UNL     1       2.946  -3.875  -3.141  0.00  0.00    -0.312 N 
ATOM     22  C   UNL     1       4.324  -3.787  -2.659  0.00  0.00    +0.130 C 
ATOM     23  H   UNL     1       3.554  -1.370  -0.035  0.00  0.00    +0.157 HD
ENDBRANCH   2   6
BRANCH   1  25
ATOM     24  N   UNL     1       3.985   2.721  -0.020  0.00  0.00    -0.310 N 
ATOM     25  C   UNL     1       3.597   1.430  -0.023  0.00  0.00    +0.267 C 
ATOM     26  O   UNL     1       4.432   0.544  -0.033  0.00  0.00    -0.268 OA
ATOM     27  H   UNL     1       3.231   3.522  -0.012  0.00  0.00    +0.149 HD
BRANCH  24  28
ATOM     28  C   UNL     1       5.410   3.058  -0.028  0.00  0.00    +0.109 C 
BRANCH  28  29
ATOM     29  C   UNL     1       5.575   4.579  -0.023  0.00  0.00    +0.056 C 
BRANCH  29  37
ATOM     30  C   UNL     1       8.520   4.865  -4.928  0.00  0.00    +0.044 C 
ATOM     31  C   UNL     1       8.742   5.042  -3.448  0.00  0.00    -0.050 A 
ATOM     32  C   UNL     1      10.003   5.380  -2.976  0.00  0.00    +0.005 A 
ATOM     33  C   UNL     1      10.228   5.546  -1.627  0.00  0.00    +0.026 A 
ATOM     34  C   UNL     1       9.181   5.374  -0.726  0.00  0.00    +0.047 A 
ATOM     35  C   UNL     1       7.907   5.025  -1.209  0.00  0.00    +0.003 A 
ATOM     36  C   UNL     1       7.700   4.868  -2.581  0.00  0.00    +0.013 A 
ATOM     37  C   UNL     1       7.042   4.926  -0.031  0.00  0.00    -0.021 A 
ATOM     38  C   UNL     1       7.804   5.196   1.040  0.00  0.00    +0.087 A 
ATOM     39  N   UNL     1       9.086   5.466   0.644  0.00  0.00    -0.360 N 
ATOM     40  H   UNL     1       9.973   5.726   1.241  0.00  0.00    +0.165 HD
ENDBRANCH  29  37
ENDBRANCH  28  29
ENDBRANCH  24  28
ENDBRANCH   1  25
TORSDOF 5
