REMARK  Name = ZINC36398647
REMARK  5 active torsions:
REMARK  status: ('A' for Active; 'I' for Inactive)
REMARK    1  A    between atoms: C_1  and  C_2
REMARK    2  A    between atoms: C_2  and  C_3
REMARK    3  A    between atoms: N_11  and  C_12
REMARK    4  A    between atoms: C_12  and  C_13
REMARK    5  A    between atoms: C_17  and  C_25
REMARK                            x       y       z     vdW  Elec       q    Type
REMARK                         _______ _______ _______ _____ _____    ______ ____
ROOT
ATOM      1  C   UNL     1      -1.163   1.786   3.675  0.00  0.00    +0.203 C 
ATOM      2  O   UNL     1      -1.706   0.921   4.329  0.00  0.00    -0.277 OA
ATOM      3  N   UNL     1      -1.349   3.083   3.986  0.00  0.00    -0.266 N 
ATOM      4  C   UNL     1      -0.811   4.157   3.133  0.00  0.00    +0.168 C 
ATOM      5  C   UNL     1      -1.889   5.245   3.021  0.00  0.00    +0.276 C 
ATOM      6  O   UNL     1      -2.212   5.709   4.334  0.00  0.00    -0.476 OA
ATOM      7  C   UNL     1      -2.487   4.778   5.285  0.00  0.00    +0.143 A 
ATOM      8  C   UNL     1      -2.069   3.460   5.133  0.00  0.00    +0.078 A 
ATOM      9  C   UNL     1      -2.357   2.522   6.111  0.00  0.00    +0.027 A 
ATOM     10  C   UNL     1      -3.068   2.897   7.237  0.00  0.00    +0.002 A 
ATOM     11  C   UNL     1      -3.491   4.205   7.385  0.00  0.00    +0.004 A 
ATOM     12  C   UNL     1      -3.195   5.145   6.420  0.00  0.00    +0.047 A 
ENDROOT
BRANCH   5  13
ATOM     13  C   UNL     1      -1.366   6.391   2.195  0.00  0.00    +0.253 C 
ATOM     14  O   UNL     1      -1.204   7.481   2.702  0.00  0.00    -0.272 OA
ATOM     15  N   UNL     1      -1.079   6.205   0.891  0.00  0.00    -0.326 N 
ATOM     16  H   UNL     1      -1.208   5.334   0.485  0.00  0.00    +0.145 HD
ATOM     17  H   UNL     1      -0.742   6.943   0.359  0.00  0.00    +0.145 HD
ENDBRANCH   5  13
BRANCH   1  18
ATOM     18  C   UNL     1      -0.278   1.409   2.514  0.00  0.00    +0.020 C 
BRANCH  18  27
ATOM     19  C   UNL     1       0.595  -0.424   1.245  0.00  0.00    -0.036 C 
ATOM     20  C   UNL     1       0.834  -1.931   1.256  0.00  0.00    -0.051 A 
ATOM     21  C   UNL     1       1.129  -2.681   0.121  0.00  0.00    +0.010 A 
ATOM     22  C   UNL     1       1.324  -4.017   0.225  0.00  0.00    +0.045 A 
ATOM     23  S   UNL     1       1.095  -4.288   1.977  0.00  0.00    -0.101 S 
ATOM     24  C   UNL     1       0.761  -2.612   2.434  0.00  0.00    -0.010 A 
ATOM     25  C   UNL     1       0.467  -2.030   3.779  0.00  0.00    +0.024 C 
ATOM     26  C   UNL     1       0.600  -0.502   3.662  0.00  0.00    -0.072 C 
ATOM     27  N   UNL     1      -0.128  -0.052   2.467  0.00  0.00    +0.390 N 
ATOM     28  H   UNL     1      -1.042  -0.479   2.454  0.00  0.00    -0.080 HD
BRANCH  19  30
ATOM     29  C   UNL     1      -1.601  -0.740   0.096  0.00  0.00    +0.002 C 
ATOM     30  C   UNL     1      -0.239  -0.046   0.020  0.00  0.00    -0.014 C 
ENDBRANCH  19  30
ENDBRANCH  18  27
ENDBRANCH   1  18
TORSDOF 4
