REMARK  Name = ZINC09685525
REMARK  10 active torsions:
REMARK  status: ('A' for Active; 'I' for Inactive)
REMARK    1  A    between atoms: C_1  and  C_2
REMARK    2  A    between atoms: C_2  and  C_3
REMARK    3  A    between atoms: C_3  and  C_4
REMARK    4  A    between atoms: C_3  and  C_5
REMARK    5  A    between atoms: C_3  and  N_6
REMARK    6  A    between atoms: N_6  and  S_7
REMARK    7  A    between atoms: S_7  and  C_10
REMARK    8  A    between atoms: C_15  and  C_16
REMARK    9  A    between atoms: C_22  and  C_26
REMARK   10  A    between atoms: C_22  and  C_27
REMARK                            x       y       z     vdW  Elec       q    Type
REMARK                         _______ _______ _______ _____ _____    ______ ____
ROOT
ATOM      1  C   UNL     1       2.367   0.639  -0.364  0.00  0.00    +0.110 A 
ATOM      2  C   UNL     1       3.589   0.003  -0.370  0.00  0.00    +0.055 A 
ATOM      3  C   UNL     1       4.756   0.735  -0.184  0.00  0.00    +0.049 A 
ATOM      4  C   UNL     1       4.673   2.125   0.018  0.00  0.00    +0.011 A 
ATOM      5  C   UNL     1       3.430   2.753   0.026  0.00  0.00    +0.016 A 
ATOM      6  C   UNL     1       2.286   2.009  -0.164  0.00  0.00    -0.023 A 
ATOM      7  C   UNL     1       0.940   2.688  -0.155  0.00  0.00    +0.046 C 
ATOM      8  C   UNL     1       6.056   2.580   0.183  0.00  0.00    +0.046 A 
ATOM      9  C   UNL     1       6.862   1.457   0.065  0.00  0.00    +0.028 A 
ATOM     10  N   UNL     1       6.093   0.381  -0.145  0.00  0.00    -0.357 N 
ATOM     11  H   UNL     1       6.427  -0.523  -0.256  0.00  0.00    +0.166 HD
ATOM     12  C   UNL     1       8.367   1.542   0.167  0.00  0.00    +0.060 C 
ATOM     13  C   UNL     1       8.793   2.952  -0.259  0.00  0.00    -0.023 C 
ATOM     14  C   UNL     1       8.077   4.006   0.586  0.00  0.00    +0.086 C 
ATOM     15  C   UNL     1       6.578   3.875   0.417  0.00  0.00    +0.166 C 
ATOM     16  O   UNL     1       5.851   4.845   0.479  0.00  0.00    -0.292 OA
ATOM     17  C   UNL     1       8.442   3.163  -1.733  0.00  0.00    +0.011 C 
ATOM     18  C   UNL     1      10.305   3.099  -0.074  0.00  0.00    +0.011 C 
ENDROOT
BRANCH   1  19
ATOM     19  S   UNL     1       0.894  -0.296  -0.606  0.00  0.00    +0.059 S 
ATOM     20  O   UNL     1       1.287  -1.659  -0.688  0.00  0.00    -0.153 OA
ATOM     21  O   UNL     1       0.168   0.350  -1.643  0.00  0.00    -0.153 OA
BRANCH  19  22
ATOM     22  N   UNL     1      -0.013  -0.147   0.771  0.00  0.00    -0.184 NA
ATOM     23  H   UNL     1      -0.862   0.321   0.745  0.00  0.00    +0.149 HD
BRANCH  22  24
ATOM     24  C   UNL     1       0.467  -0.723   2.030  0.00  0.00    +0.034 C 
ATOM     25  C   UNL     1       0.493  -2.248   1.916  0.00  0.00    +0.029 C 
ATOM     26  C   UNL     1       1.878  -0.209   2.321  0.00  0.00    +0.029 C 
BRANCH  24  28
ATOM     27  C   UNL     1       0.031  -0.914   4.483  0.00  0.00    +0.006 C 
ATOM     28  C   UNL     1      -0.470  -0.312   3.168  0.00  0.00    +0.020 C 
ENDBRANCH  24  28
ENDBRANCH  22  24
ENDBRANCH  19  22
ENDBRANCH   1  19
TORSDOF 4
