REMARK  Name = ZINC15685049
REMARK  8 active torsions:
REMARK  status: ('A' for Active; 'I' for Inactive)
REMARK    1  A    between atoms: C_1  and  O_2
REMARK    2  A    between atoms: O_2  and  C_3
REMARK    3  A    between atoms: C_5  and  C_19
REMARK    4  A    between atoms: C_8  and  O_9
REMARK    5  A    between atoms: O_9  and  C_10
REMARK    6  A    between atoms: C_10  and  C_11
REMARK    7  A    between atoms: C_20  and  N_21
REMARK    8  A    between atoms: N_23  and  N_24
REMARK                            x       y       z     vdW  Elec       q    Type
REMARK                         _______ _______ _______ _____ _____    ______ ____
ROOT
ATOM      1  C   UNL     1       0.600  -0.608  -1.060  0.00  0.00    +0.163 A 
ATOM      2  C   UNL     1       1.168   0.159  -2.060  0.00  0.00    +0.057 A 
ATOM      3  C   UNL     1       1.787  -0.465  -3.148  0.00  0.00    -0.019 A 
ATOM      4  C   UNL     1       1.827  -1.860  -3.219  0.00  0.00    +0.026 A 
ATOM      5  C   UNL     1       1.258  -2.618  -2.217  0.00  0.00    +0.059 A 
ATOM      6  C   UNL     1       0.648  -1.998  -1.134  0.00  0.00    +0.175 A 
ATOM      7  I   UNL     1       1.319  -4.709  -2.325  0.00  0.00    -0.040 I 
ENDROOT
BRANCH   1   9
ATOM      8  C   UNL     1      -0.017   1.425   0.010  0.00  0.00    +0.277 C 
ATOM      9  O   UNL     1      -0.003  -0.004  -0.001  0.00  0.00    -0.491 OA
ENDBRANCH   1   9
BRANCH   3  10
ATOM     10  C   UNL     1       2.394   0.347  -4.217  0.00  0.00    +0.025 C 
ATOM     11  C   UNL     1       2.987  -0.252  -5.259  0.00  0.00    +0.086 C 
BRANCH  11  12
ATOM     12  N   UNL     1       3.556   0.508  -6.260  0.00  0.00    -0.331 N 
ATOM     13  C   UNL     1       4.153  -0.095  -7.309  0.00  0.00    +0.224 C 
ATOM     14  N   UNL     1       4.612   0.640  -8.335  0.00  0.00    -0.060 NA
ATOM     15  N   UNL     1       4.289  -1.447  -7.327  0.00  0.00    -0.368 N 
ATOM     16  H   UNL     1       3.527   1.476  -6.210  0.00  0.00    +0.168 HD
ATOM     17  H   UNL     1       3.958  -1.978  -6.586  0.00  0.00    +0.159 HD
ATOM     18  H   UNL     1       4.718  -1.881  -8.081  0.00  0.00    +0.159 HD
BRANCH  14  19
ATOM     19  N   UNL     1       4.570   1.928  -8.275  0.00  0.00    +0.156 N 
ATOM     20  O   UNL     1       5.623   2.603  -7.862  0.00  0.00    -0.106 OA
ATOM     21  O   UNL     1       3.474   2.568  -8.626  0.00  0.00    -0.106 OA
ENDBRANCH  14  19
ENDBRANCH  11  12
ENDBRANCH   3  10
BRANCH   6  22
ATOM     22  O   UNL     1       0.093  -2.749  -0.147  0.00  0.00    -0.483 OA
BRANCH  22  23
ATOM     23  C   UNL     1      -1.280  -3.114  -0.303  0.00  0.00    +0.264 C 
BRANCH  23  24
ATOM     24  C   UNL     1      -1.718  -3.939   0.880  0.00  0.00    -0.010 A 
ATOM     25  C   UNL     1      -1.584  -5.314   0.850  0.00  0.00    +0.008 A 
ATOM     26  C   UNL     1      -1.986  -6.072   1.935  0.00  0.00    +0.020 A 
ATOM     27  C   UNL     1      -2.522  -5.452   3.049  0.00  0.00    +0.041 A 
ATOM     28  C   UNL     1      -2.656  -4.076   3.078  0.00  0.00    +0.020 A 
ATOM     29  C   UNL     1      -2.249  -3.319   1.996  0.00  0.00    +0.008 A 
ATOM     30 CL   UNL     1      -3.027  -6.403   4.411  0.00  0.00    -0.084 Cl
ENDBRANCH  23  24
ENDBRANCH  22  23
ENDBRANCH   6  22
TORSDOF 7
