REMARK  Name = ZINC44020180
REMARK  6 active torsions:
REMARK  status: ('A' for Active; 'I' for Inactive)
REMARK    1  A    between atoms: C_1  and  C_2
REMARK    2  A    between atoms: N_8  and  C_9
REMARK    3  A    between atoms: N_13  and  C_18
REMARK    4  A    between atoms: C_18  and  C_19
REMARK    5  A    between atoms: C_18  and  C_20
REMARK    6  A    between atoms: C_18  and  C_21
REMARK                            x       y       z     vdW  Elec       q    Type
REMARK                         _______ _______ _______ _____ _____    ______ ____
ROOT
ATOM      1  C   UNL     1       1.263   0.548   1.933  0.00  0.00    +0.108 A 
ATOM      2  C   UNL     1       0.971   1.873   1.769  0.00  0.00    +0.112 A 
ATOM      3  C   UNL     1       1.592   2.816   2.603  0.00  0.00    +0.259 A 
ATOM      4  O   UNL     1       1.346   4.004   2.475  0.00  0.00    -0.267 OA
ATOM      5  N   UNL     1       2.462   2.402   3.545  0.00  0.00    -0.256 N 
ATOM      6  C   UNL     1       2.739   1.093   3.692  0.00  0.00    +0.331 A 
ATOM      7  O   UNL     1       3.527   0.741   4.548  0.00  0.00    -0.246 OA
ATOM      8  N   UNL     1       2.152   0.169   2.909  0.00  0.00    -0.296 N 
ATOM      9  H   UNL     1       2.361  -0.770   3.033  0.00  0.00    +0.172 HD
ENDROOT
BRANCH   1  16
ATOM     10  C   UNL     1      -0.956  -0.597   2.955  0.00  0.00    +0.028 C 
ATOM     11  C   UNL     1      -0.591  -1.032   1.534  0.00  0.00    +0.072 C 
ATOM     12  C   UNL     1      -0.414  -2.553   1.493  0.00  0.00    +0.022 C 
ATOM     13  C   UNL     1       0.085  -2.967   0.107  0.00  0.00    +0.003 C 
ATOM     14  C   UNL     1       1.443  -2.316  -0.163  0.00  0.00    +0.019 C 
ATOM     15  C   UNL     1       1.288  -0.792  -0.141  0.00  0.00    +0.107 C 
ATOM     16  N   UNL     1       0.671  -0.396   1.133  0.00  0.00    -0.314 N 
ENDBRANCH   1  16
BRANCH   5  17
ATOM     17  C   UNL     1       3.112   3.384   4.415  0.00  0.00    +0.045 C 
ATOM     18  C   UNL     1       2.632   4.789   4.047  0.00  0.00    +0.034 C 
ATOM     19  C   UNL     1       2.755   3.088   5.873  0.00  0.00    +0.034 C 
ATOM     20  C   UNL     1       4.629   3.300   4.235  0.00  0.00    +0.034 C 
ENDBRANCH   5  17
TORSDOF 2
