REMARK  Name = ZINC01153428
REMARK  13 active torsions:
REMARK  status: ('A' for Active; 'I' for Inactive)
REMARK    1  A    between atoms: C_1  and  C_2
REMARK    2  A    between atoms: C_3  and  C_33
REMARK    3  A    between atoms: C_4  and  C_21
REMARK    4  A    between atoms: C_10  and  C_11
REMARK    5  A    between atoms: C_15  and  O_17
REMARK    6  A    between atoms: C_24  and  O_29
REMARK    7  A    between atoms: C_25  and  O_27
REMARK    8  A    between atoms: O_27  and  C_28
REMARK    9  A    between atoms: O_29  and  C_30
REMARK   10  A    between atoms: C_30  and  C_31
REMARK   11  A    between atoms: C_30  and  C_32
REMARK   12  A    between atoms: C_33  and  O_35
REMARK   13  A    between atoms: O_35  and  C_36
REMARK                            x       y       z     vdW  Elec       q    Type
REMARK                         _______ _______ _______ _____ _____    ______ ____
ROOT
ATOM      1  C   UNL     1       8.062  -0.410  -3.250  0.00  0.00    +0.066 C 
ATOM      2  C   UNL     1       7.383  -0.077  -1.947  0.00  0.00    +0.053 C 
ATOM      3  C   UNL     1       6.144  -0.588  -1.679  0.00  0.00    +0.085 C 
ATOM      4  C   UNL     1       5.497  -0.231  -0.361  0.00  0.00    +0.162 C 
ATOM      5  N   UNL     1       6.264   0.660   0.554  0.00  0.00    -0.275 N 
ATOM      6  C   UNL     1       5.861   1.085   1.758  0.00  0.00    +0.268 A 
ATOM      7  O   UNL     1       4.781   0.756   2.211  0.00  0.00    -0.266 OA
ATOM      8  C   UNL     1       6.765   1.964   2.517  0.00  0.00    +0.081 A 
ATOM      9  C   UNL     1       6.596   2.524   3.742  0.00  0.00    +0.028 C 
ATOM     10  S   UNL     1       8.144   2.094   1.389  0.00  0.00    -0.046 S 
ATOM     11  C   UNL     1       7.495   1.063   0.089  0.00  0.00    +0.178 A 
ATOM     12  N   UNL     1       7.992   0.710  -1.069  0.00  0.00    -0.228 NA
ENDROOT
BRANCH   9  13
ATOM     13  C   UNL     1       7.719   3.211   4.396  0.00  0.00    -0.020 A 
ATOM     14  C   UNL     1       7.505   3.950   5.566  0.00  0.00    +0.008 A 
ATOM     15  C   UNL     1       8.562   4.592   6.176  0.00  0.00    +0.004 A 
ATOM     16  C   UNL     1       9.833   4.509   5.638  0.00  0.00    +0.045 A 
ATOM     17  C   UNL     1      10.056   3.778   4.478  0.00  0.00    +0.117 A 
ATOM     18  C   UNL     1       9.006   3.125   3.857  0.00  0.00    +0.053 A 
BRANCH  17  19
ATOM     19  O   UNL     1      11.308   3.701   3.954  0.00  0.00    -0.507 OA
ATOM     20  H   UNL     1      11.829   2.958   4.287  0.00  0.00    +0.292 HD
ENDBRANCH  17  19
ENDBRANCH   9  13
BRANCH   4  21
ATOM     21  C   UNL     1       4.178   0.435  -0.658  0.00  0.00    -0.016 A 
ATOM     22  C   UNL     1       4.137   1.787  -0.943  0.00  0.00    +0.010 A 
ATOM     23  C   UNL     1       2.930   2.403  -1.216  0.00  0.00    +0.050 A 
ATOM     24  C   UNL     1       1.758   1.664  -1.209  0.00  0.00    +0.162 A 
ATOM     25  C   UNL     1       1.798   0.304  -0.917  0.00  0.00    +0.162 A 
ATOM     26  C   UNL     1       3.012  -0.307  -0.644  0.00  0.00    +0.055 A 
BRANCH  25  27
ATOM     27  O   UNL     1       0.650  -0.424  -0.903  0.00  0.00    -0.491 OA
ATOM     28  C   UNL     1       0.768  -1.816  -0.601  0.00  0.00    +0.277 C 
ENDBRANCH  25  27
BRANCH  24  29
ATOM     29  O   UNL     1       0.570   2.267  -1.483  0.00  0.00    -0.486 OA
BRANCH  29  30
ATOM     30  C   UNL     1       0.617   3.634  -1.898  0.00  0.00    +0.167 C 
ATOM     31  C   UNL     1      -0.557   3.922  -2.836  0.00  0.00    +0.051 C 
ATOM     32  C   UNL     1       0.526   4.543  -0.671  0.00  0.00    +0.051 C 
ENDBRANCH  29  30
ENDBRANCH  24  29
ENDBRANCH   4  21
BRANCH   3  33
ATOM     33  C   UNL     1       5.492  -1.421  -2.603  0.00  0.00    +0.339 C 
ATOM     34  O   UNL     1       6.030  -1.698  -3.660  0.00  0.00    -0.245 OA
BRANCH  33  35
ATOM     35  O   UNL     1       4.268  -1.917  -2.318  0.00  0.00    -0.465 OA
ATOM     36  C   UNL     1       3.664  -2.758  -3.303  0.00  0.00    +0.280 C 
ENDBRANCH  33  35
ENDBRANCH   3  33
TORSDOF 8
