REMARK  Name = ZINC04065296
REMARK  7 active torsions:
REMARK  status: ('A' for Active; 'I' for Inactive)
REMARK    1  A    between atoms: C_10  and  C_11
REMARK    2  A    between atoms: C_11  and  C_12
REMARK    3  A    between atoms: N_14  and  N_15
REMARK    4  A    between atoms: C_16  and  C_17
REMARK    5  A    between atoms: N_19  and  C_26
REMARK    6  A    between atoms: C_26  and  C_27
REMARK    7  A    between atoms: N_29  and  C_30
REMARK                            x       y       z     vdW  Elec       q    Type
REMARK                         _______ _______ _______ _____ _____    ______ ____
ROOT
ATOM      1  C   UNL     1      -2.178   9.469  -4.524  0.00  0.00    +0.020 A 
ATOM      2  C   UNL     1      -2.167  10.772  -4.915  0.00  0.00    +0.096 A 
ATOM      3  N   UNL     1      -2.054  10.843  -6.272  0.00  0.00    -0.337 N 
ATOM      4  C   UNL     1      -1.987   9.577  -6.813  0.00  0.00    +0.050 A 
ATOM      5  C   UNL     1      -2.055   8.660  -5.750  0.00  0.00    +0.009 A 
ATOM      6  C   UNL     1      -2.017   7.291  -6.005  0.00  0.00    +0.010 A 
ATOM      7  C   UNL     1      -1.900   6.842  -7.302  0.00  0.00    +0.001 A 
ATOM      8  C   UNL     1      -1.827   7.746  -8.352  0.00  0.00    +0.002 A 
ATOM      9  C   UNL     1      -1.869   9.103  -8.115  0.00  0.00    +0.026 A 
ENDROOT
BRANCH   1  11
ATOM     10  N   UNL     1      -2.283   7.686  -2.919  0.00  0.00    -0.188 NA
ATOM     11  C   UNL     1      -2.286   8.966  -3.145  0.00  0.00    +0.140 C 
BRANCH  10  14
ATOM     12  C   UNL     1      -2.383   5.880  -1.371  0.00  0.00    +0.237 C 
ATOM     13  O   UNL     1      -2.292   5.100  -2.296  0.00  0.00    -0.274 OA
ATOM     14  N   UNL     1      -2.386   7.207  -1.606  0.00  0.00    -0.207 N 
ATOM     15  H   UNL     1      -2.459   7.830  -0.867  0.00  0.00    +0.177 HD
BRANCH  12  16
ATOM     16  C   UNL     1      -2.494   5.365   0.041  0.00  0.00    +0.133 C 
BRANCH  16  26
ATOM     17  C   UNL     1       1.157   1.776  -0.000  0.00  0.00    +0.001 A 
ATOM     18  C   UNL     1       1.152   3.170   0.011  0.00  0.00    +0.001 A 
ATOM     19  C   UNL     1      -0.017   3.867   0.020  0.00  0.00    +0.009 A 
ATOM     20  C   UNL     1      -1.240   3.173   0.020  0.00  0.00    -0.014 A 
ATOM     21  C   UNL     1      -1.235   1.756   0.003  0.00  0.00    -0.018 A 
ATOM     22  C   UNL     1      -0.008   1.071  -0.001  0.00  0.00    +0.008 A 
ATOM     23  C   UNL     1      -2.457   1.063  -0.003  0.00  0.00    +0.008 A 
ATOM     24  C   UNL     1      -3.627   1.760   0.001  0.00  0.00    +0.001 A 
ATOM     25  C   UNL     1      -3.631   3.153   0.012  0.00  0.00    +0.005 A 
ATOM     26  C   UNL     1      -2.467   3.858   0.029  0.00  0.00    -0.031 A 
ENDBRANCH  16  26
ENDBRANCH  12  16
ENDBRANCH  10  14
ENDBRANCH   1  11
BRANCH   3  27
ATOM     27  C   UNL     1      -2.010  12.087  -7.044  0.00  0.00    +0.217 C 
BRANCH  27  28
ATOM     28  C   UNL     1      -3.395  12.425  -7.532  0.00  0.00    +0.237 C 
ATOM     29  O   UNL     1      -4.327  11.697  -7.261  0.00  0.00    -0.274 OA
ATOM     30  N   UNL     1      -3.598  13.534  -8.270  0.00  0.00    -0.284 N 
ATOM     31  H   UNL     1      -2.866  14.151  -8.430  0.00  0.00    +0.155 HD
BRANCH  30  32
ATOM     32  C   UNL     1      -4.865  13.797  -8.804  0.00  0.00    +0.034 A 
ATOM     33  C   UNL     1      -4.982  14.413 -10.044  0.00  0.00    +0.026 A 
ATOM     34  C   UNL     1      -6.233  14.665 -10.572  0.00  0.00    +0.040 A 
ATOM     35  C   UNL     1      -7.369  14.317  -9.862  0.00  0.00    +0.124 A 
ATOM     36  C   UNL     1      -7.255  13.709  -8.623  0.00  0.00    +0.040 A 
ATOM     37  C   UNL     1      -6.006  13.449  -8.094  0.00  0.00    +0.026 A 
ATOM     38  F   UNL     1      -8.592  14.571 -10.378  0.00  0.00    -0.205 F 
ENDBRANCH  30  32
ENDBRANCH  27  28
ENDBRANCH   3  27
TORSDOF 7
