REMARK  Name = ZINC40037869
REMARK  6 active torsions:
REMARK  status: ('A' for Active; 'I' for Inactive)
REMARK    1  A    between atoms: C_1  and  C_2
REMARK    2  A    between atoms: C_10  and  C_11
REMARK    3  A    between atoms: N_13  and  C_14
REMARK    4  A    between atoms: C_15  and  C_22
REMARK    5  A    between atoms: N_24  and  C_25
REMARK    6  A    between atoms: C_25  and  C_26
REMARK                            x       y       z     vdW  Elec       q    Type
REMARK                         _______ _______ _______ _____ _____    ______ ____
ROOT
ATOM      1  C   UNL     1       0.062  -0.873   4.799  0.00  0.00    +0.085 A 
ATOM      2  C   UNL     1       0.090  -1.655   5.939  0.00  0.00    +0.069 A 
ATOM      3  C   UNL     1       0.093  -0.962   7.226  0.00  0.00    -0.023 A 
ATOM      4  C   UNL     1       0.067   0.379   7.128  0.00  0.00    -0.004 A 
ATOM      5  S   UNL     1       0.048   0.700   5.382  0.00  0.00    -0.077 S 
ATOM      6  C   UNL     1       0.067   1.041   8.479  0.00  0.00    +0.043 C 
ATOM      7  C   UNL     1      -0.336  -0.080   9.463  0.00  0.00    +0.010 C 
ATOM      8  C   UNL     1       0.121  -1.343   8.705  0.00  0.00    +0.037 C 
ENDROOT
BRANCH   1  11
ATOM      9  C   UNL     1       0.032  -0.383   2.483  0.00  0.00    +0.284 C 
ATOM     10  O   UNL     1       0.019   0.806   2.745  0.00  0.00    -0.266 OA
ATOM     11  N   UNL     1       0.054  -1.291   3.478  0.00  0.00    -0.273 N 
ATOM     12  H   UNL     1       0.065  -2.239   3.270  0.00  0.00    +0.156 HD
BRANCH   9  22
ATOM     13  C   UNL     1      -0.018   1.503   0.010  0.00  0.00    +0.048 C 
ATOM     14  C   UNL     1       0.002  -0.004   0.002  0.00  0.00    +0.008 A 
ATOM     15  C   UNL     1       0.009  -0.877  -1.171  0.00  0.00    +0.025 A 
ATOM     16  C   UNL     1      -0.000  -0.654  -2.550  0.00  0.00    +0.032 A 
ATOM     17  C   UNL     1       0.010  -1.718  -3.409  0.00  0.00    +0.042 A 
ATOM     18  C   UNL     1       0.030  -3.018  -2.918  0.00  0.00    +0.023 A 
ATOM     19  C   UNL     1       0.039  -3.258  -1.561  0.00  0.00    +0.048 A 
ATOM     20  C   UNL     1       0.029  -2.191  -0.669  0.00  0.00    +0.136 A 
ATOM     21  O   UNL     1       0.034  -2.113   0.676  0.00  0.00    -0.450 OA
ATOM     22  C   UNL     1       0.024  -0.827   1.083  0.00  0.00    +0.194 A 
ATOM     23 CL   UNL     1      -0.001  -1.444  -5.123  0.00  0.00    -0.084 Cl
ENDBRANCH   9  22
ENDBRANCH   1  11
BRANCH   2  24
ATOM     24  C   UNL     1       0.115  -3.119   5.860  0.00  0.00    +0.247 C 
ATOM     25  O   UNL     1       1.179  -3.708   5.814  0.00  0.00    -0.270 OA
ATOM     26  N   UNL     1      -1.041  -3.812   5.837  0.00  0.00    -0.304 N 
ATOM     27  H   UNL     1      -1.889  -3.342   5.873  0.00  0.00    +0.149 HD
BRANCH  26  28
ATOM     28  C   UNL     1      -1.017  -5.274   5.758  0.00  0.00    +0.179 C 
BRANCH  28  29
ATOM     29  C   UNL     1      -2.429  -5.801   5.748  0.00  0.00    +0.122 A 
ATOM     30  C   UNL     1      -3.178  -6.022   4.652  0.00  0.00    +0.046 A 
ATOM     31  C   UNL     1      -4.426  -6.511   5.102  0.00  0.00    +0.041 A 
ATOM     32  C   UNL     1      -4.364  -6.560   6.445  0.00  0.00    +0.195 A 
ATOM     33  O   UNL     1      -3.151  -6.134   6.830  0.00  0.00    -0.466 OA
ENDBRANCH  28  29
ENDBRANCH  26  28
ENDBRANCH   2  24
TORSDOF 5
