REMARK  Name = ZINC06134608
REMARK  12 active torsions:
REMARK  status: ('A' for Active; 'I' for Inactive)
REMARK    1  A    between atoms: C_1  and  C_2
REMARK    2  A    between atoms: C_2  and  C_3
REMARK    3  A    between atoms: C_2  and  C_4
REMARK    4  A    between atoms: C_4  and  C_5
REMARK    5  A    between atoms: C_5  and  N_6
REMARK    6  A    between atoms: C_7  and  C_9
REMARK    7  A    between atoms: C_9  and  C_11
REMARK    8  A    between atoms: C_9  and  N_16
REMARK    9  A    between atoms: N_16  and  C_17
REMARK   10  A    between atoms: C_27  and  C_29
REMARK   11  A    between atoms: C_30  and  N_37
REMARK   12  A    between atoms: C_31  and  C_34
REMARK                            x       y       z     vdW  Elec       q    Type
REMARK                         _______ _______ _______ _____ _____    ______ ____
ROOT
ATOM      1  N   UNL     1      -0.829   1.500   1.188  0.00  0.00    -0.247 N 
ATOM      2  C   UNL     1      -1.157   0.571   2.108  0.00  0.00    +0.262 C 
ATOM      3  O   UNL     1      -0.821  -0.588   1.948  0.00  0.00    -0.269 OA
ENDROOT
BRANCH   1   4
ATOM      4  C   UNL     1      -1.214   2.829   1.371  0.00  0.00    +0.046 A 
ATOM      5  C   UNL     1      -0.365   3.720   1.992  0.00  0.00    +0.024 A 
ATOM      6  C   UNL     1      -0.740   5.047   2.179  0.00  0.00    +0.002 A 
ATOM      7  C   UNL     1      -1.951   5.502   1.755  0.00  0.00    +0.008 A 
ATOM      8  C   UNL     1      -2.845   4.626   1.117  0.00  0.00    -0.016 A 
ATOM      9  C   UNL     1      -2.473   3.274   0.916  0.00  0.00    +0.004 A 
ATOM     10  C   UNL     1      -3.370   2.399   0.283  0.00  0.00    +0.010 A 
ATOM     11  C   UNL     1      -4.580   2.861  -0.137  0.00  0.00    +0.001 A 
ATOM     12  C   UNL     1      -4.944   4.192   0.055  0.00  0.00    +0.001 A 
ATOM     13  C   UNL     1      -4.103   5.068   0.669  0.00  0.00    +0.008 A 
ENDBRANCH   1   4
BRANCH   2  14
ATOM     14  C   UNL     1      -1.918   0.956   3.297  0.00  0.00    +0.116 A 
ATOM     15  C   UNL     1      -2.358   0.165   4.361  0.00  0.00    +0.076 A 
ATOM     16  C   UNL     1      -3.060   0.898   5.317  0.00  0.00    +0.155 A 
ATOM     17  N   UNL     1      -3.232   2.189   5.139  0.00  0.00    -0.203 NA
ATOM     18  S   UNL     1      -2.524   2.559   3.780  0.00  0.00    +0.019 S 
BRANCH  16  19
ATOM     19  C   UNL     1      -3.604   0.232   6.515  0.00  0.00    +0.262 C 
ATOM     20  O   UNL     1      -3.442  -0.962   6.673  0.00  0.00    -0.269 OA
ATOM     21  N   UNL     1      -4.281   0.948   7.435  0.00  0.00    -0.324 N 
ATOM     22  H   UNL     1      -4.410   1.901   7.309  0.00  0.00    +0.145 HD
ATOM     23  H   UNL     1      -4.639   0.510   8.223  0.00  0.00    +0.145 HD
ENDBRANCH  16  19
BRANCH  15  24
ATOM     24  N   UNL     1      -2.123  -1.200   4.455  0.00  0.00    -0.355 N 
ATOM     25  H   UNL     1      -1.627  -1.657   3.757  0.00  0.00    +0.142 HD
ATOM     26  H   UNL     1      -2.455  -1.698   5.219  0.00  0.00    +0.142 HD
ENDBRANCH  15  24
ENDBRANCH   2  14
BRANCH   1  27
ATOM     27  C   UNL     1      -0.067   1.115  -0.002  0.00  0.00    +0.233 C 
BRANCH  27  28
ATOM     28  C   UNL     1      -0.787   1.596  -1.236  0.00  0.00    +0.135 A 
ATOM     29  C   UNL     1      -0.913   0.914  -2.389  0.00  0.00    +0.047 A 
ATOM     30  C   UNL     1      -1.657   1.733  -3.269  0.00  0.00    +0.041 A 
ATOM     31  C   UNL     1      -1.940   2.866  -2.602  0.00  0.00    +0.195 A 
ATOM     32  O   UNL     1      -1.416   2.775  -1.369  0.00  0.00    -0.465 OA
ENDBRANCH  27  28
BRANCH  27  34
ATOM     33  N   UNL     1       2.218   1.443  -0.890  0.00  0.00    -0.313 N 
ATOM     34  C   UNL     1       1.304   1.739   0.054  0.00  0.00    +0.242 C 
ATOM     35  O   UNL     1       1.583   2.507   0.950  0.00  0.00    -0.273 OA
ATOM     36  H   UNL     1       1.995   0.829  -1.606  0.00  0.00    +0.149 HD
BRANCH  33  37
ATOM     37  C   UNL     1       3.551   2.050  -0.835  0.00  0.00    +0.104 C 
BRANCH  37  38
ATOM     38  C   UNL     1       4.388   1.550  -2.014  0.00  0.00    +0.022 C 
BRANCH  38  40
ATOM     39  C   UNL     1       6.511   1.694  -0.705  0.00  0.00    +0.007 C 
ATOM     40  C   UNL     1       5.779   2.184  -1.956  0.00  0.00    -0.016 C 
ATOM     41  C   UNL     1       6.574   1.784  -3.201  0.00  0.00    +0.007 C 
ENDBRANCH  38  40
ENDBRANCH  37  38
ENDBRANCH  33  37
ENDBRANCH  27  34
ENDBRANCH   1  27
TORSDOF 10
