REMARK  Name = ZINC66071544
REMARK  9 active torsions:
REMARK  status: ('A' for Active; 'I' for Inactive)
REMARK    1  A    between atoms: C_1  and  C_2
REMARK    2  A    between atoms: C_8  and  C_10
REMARK    3  A    between atoms: C_13  and  N_16
REMARK    4  A    between atoms: N_16  and  C_17
REMARK    5  A    between atoms: C_17  and  C_18
REMARK    6  A    between atoms: N_20  and  C_21
REMARK    7  A    between atoms: C_24  and  C_27
REMARK    8  A    between atoms: N_29  and  C_30
REMARK    9  A    between atoms: C_30  and  C_31
REMARK                            x       y       z     vdW  Elec       q    Type
REMARK                         _______ _______ _______ _____ _____    ______ ____
ROOT
ATOM      1  C   UNL     1       2.651  -7.234   7.837  0.00  0.00    +0.234 C 
ATOM      2  O   UNL     1       3.764  -6.753   7.799  0.00  0.00    -0.274 OA
ATOM      3  N   UNL     1       2.347  -8.155   8.773  0.00  0.00    -0.284 N 
ATOM      4  H   UNL     1       1.483  -8.596   8.756  0.00  0.00    +0.155 HD
ENDROOT
BRANCH   3   5
ATOM      5  C   UNL     1       3.274  -8.474   9.764  0.00  0.00    +0.033 A 
ATOM      6  C   UNL     1       4.199  -7.522  10.182  0.00  0.00    +0.024 A 
ATOM      7  C   UNL     1       5.115  -7.833  11.161  0.00  0.00    +0.015 A 
ATOM      8  C   UNL     1       5.115  -9.107  11.736  0.00  0.00    +0.037 A 
ATOM      9  C   UNL     1       4.185 -10.061  11.314  0.00  0.00    +0.015 A 
ATOM     10  C   UNL     1       3.268  -9.741  10.338  0.00  0.00    +0.024 A 
BRANCH   8  11
ATOM     11  C   UNL     1       6.097  -9.445  12.785  0.00  0.00    +0.244 C 
ATOM     12  O   UNL     1       6.906  -8.615  13.151  0.00  0.00    -0.270 OA
ATOM     13  N   UNL     1       6.096 -10.674  13.338  0.00  0.00    -0.304 N 
ATOM     14  H   UNL     1       5.450 -11.337  13.047  0.00  0.00    +0.149 HD
BRANCH  13  15
ATOM     15  C   UNL     1       7.070 -11.009  14.380  0.00  0.00    +0.179 C 
BRANCH  15  16
ATOM     16  C   UNL     1       6.857 -12.433  14.827  0.00  0.00    +0.122 A 
ATOM     17  C   UNL     1       7.449 -13.520  14.300  0.00  0.00    +0.046 A 
ATOM     18  C   UNL     1       6.964 -14.638  15.017  0.00  0.00    +0.041 A 
ATOM     19  C   UNL     1       6.106 -14.167  15.940  0.00  0.00    +0.195 A 
ATOM     20  O   UNL     1       6.049 -12.830  15.824  0.00  0.00    -0.466 OA
ENDBRANCH  15  16
ENDBRANCH  13  15
ENDBRANCH   8  11
ENDBRANCH   3   5
BRANCH   1  21
ATOM     21  C   UNL     1       1.609  -6.802   6.838  0.00  0.00    +0.198 C 
BRANCH  21  22
ATOM     22  N   UNL     1       2.183  -5.801   5.935  0.00  0.00    -0.335 N 
ATOM     23  H   UNL     1       3.106  -5.522   6.044  0.00  0.00    +0.147 HD
BRANCH  22  27
ATOM     24  C   UNL     1      -0.144  -4.154   2.904  0.00  0.00    +0.037 A 
ATOM     25  C   UNL     1       1.186  -3.753   3.062  0.00  0.00    +0.015 A 
ATOM     26  C   UNL     1       1.952  -4.300   4.066  0.00  0.00    +0.023 A 
ATOM     27  C   UNL     1       1.405  -5.251   4.922  0.00  0.00    +0.028 A 
ATOM     28  C   UNL     1       0.082  -5.652   4.767  0.00  0.00    +0.023 A 
ATOM     29  C   UNL     1      -0.692  -5.106   3.769  0.00  0.00    +0.015 A 
BRANCH  24  37
ATOM     30  C   UNL     1       0.212  -5.279  -3.211  0.00  0.00    +0.007 C 
ATOM     31  C   UNL     1       0.173  -4.280  -2.052  0.00  0.00    -0.011 C 
ATOM     32  C   UNL     1       0.928  -4.860  -0.854  0.00  0.00    +0.022 C 
ATOM     33  C   UNL     1       0.917  -3.843   0.292  0.00  0.00    +0.108 C 
ATOM     34  N   UNL     1      -0.475  -3.470   0.579  0.00  0.00    -0.298 N 
ATOM     35  C   UNL     1      -1.318  -2.986  -0.523  0.00  0.00    +0.108 C 
ATOM     36  C   UNL     1      -1.282  -4.012  -1.659  0.00  0.00    +0.022 C 
ATOM     37  C   UNL     1      -0.969  -3.571   1.829  0.00  0.00    +0.247 C 
ATOM     38  O   UNL     1      -2.095  -3.180   2.071  0.00  0.00    -0.270 OA
ENDBRANCH  24  37
ENDBRANCH  22  27
ENDBRANCH  21  22
ENDBRANCH   1  21
TORSDOF 8
