REMARK  Name = ZINC29459967
REMARK  9 active torsions:
REMARK  status: ('A' for Active; 'I' for Inactive)
REMARK    1  A    between atoms: C_7  and  C_11
REMARK    2  A    between atoms: C_11  and  C_13
REMARK    3  A    between atoms: C_11  and  C_28
REMARK    4  A    between atoms: C_13  and  N_14
REMARK    5  A    between atoms: C_15  and  C_17
REMARK    6  A    between atoms: C_17  and  C_18
REMARK    7  A    between atoms: C_18  and  N_19
REMARK    8  A    between atoms: N_19  and  S_20
REMARK    9  A    between atoms: S_20  and  C_23
REMARK                            x       y       z     vdW  Elec       q    Type
REMARK                         _______ _______ _______ _____ _____    ______ ____
ROOT
ATOM      1  C   UNL     1       2.452   3.936   0.000  0.00  0.00    +0.069 C 
ENDROOT
BRANCH   1   8
ATOM      2  C   UNL     1       4.039   6.476  -3.606  0.00  0.00    +0.001 A 
ATOM      3  C   UNL     1       4.728   5.715  -4.541  0.00  0.00    +0.002 A 
ATOM      4  C   UNL     1       4.889   4.359  -4.363  0.00  0.00    +0.026 A 
ATOM      5  C   UNL     1       4.358   3.742  -3.234  0.00  0.00    +0.047 A 
ATOM      6  C   UNL     1       3.661   4.517  -2.290  0.00  0.00    +0.003 A 
ATOM      7  C   UNL     1       3.509   5.891  -2.491  0.00  0.00    +0.010 A 
ATOM      8  C   UNL     1       3.236   3.589  -1.239  0.00  0.00    -0.013 A 
ATOM      9  C   UNL     1       3.681   2.372  -1.587  0.00  0.00    +0.088 A 
ATOM     10  N   UNL     1       4.349   2.443  -2.780  0.00  0.00    -0.360 N 
ATOM     11  H   UNL     1       4.838   1.651  -3.367  0.00  0.00    +0.165 HD
ENDBRANCH   1   8
BRANCH   1  12
ATOM     12  C   UNL     1       1.157   3.165   0.008  0.00  0.00    -0.020 A 
ATOM     13  C   UNL     1       1.175   1.783   0.000  0.00  0.00    +0.006 A 
ATOM     14  C   UNL     1      -0.013   1.076   0.008  0.00  0.00    +0.000 A 
ATOM     15  C   UNL     1      -1.219   1.750   0.017  0.00  0.00    +0.001 A 
ATOM     16  C   UNL     1      -1.239   3.132   0.031  0.00  0.00    +0.020 A 
ATOM     17  C   UNL     1      -0.050   3.841   0.023  0.00  0.00    +0.045 A 
ATOM     18 CL   UNL     1      -0.074   5.576   0.032  0.00  0.00    -0.083 Cl
ENDBRANCH   1  12
BRANCH   1  19
ATOM     19  C   UNL     1       3.271   3.570   1.240  0.00  0.00    +0.117 C 
BRANCH  19  20
ATOM     20  N   UNL     1       2.562   4.016   2.442  0.00  0.00    -0.314 N 
ATOM     21  C   UNL     1       3.097   3.799   3.660  0.00  0.00    +0.214 C 
ATOM     22  O   UNL     1       4.167   3.236   3.760  0.00  0.00    -0.276 OA
ATOM     23  H   UNL     1       1.592   4.527   2.351  0.00  0.00    +0.149 HD
BRANCH  21  24
ATOM     24  C   UNL     1       2.368   4.258   4.896  0.00  0.00    +0.112 C 
BRANCH  24  25
ATOM     25  C   UNL     1       3.187   3.892   6.136  0.00  0.00    +0.115 C 
BRANCH  25  26
ATOM     26  N   UNL     1       2.478   4.337   7.338  0.00  0.00    -0.189 NA
ATOM     27  H   UNL     1       1.763   5.171   7.278  0.00  0.00    +0.148 HD
BRANCH  26  28
ATOM     28  S   UNL     1       2.926   3.762   8.825  0.00  0.00    +0.065 S 
ATOM     29  O   UNL     1       2.079   4.393   9.777  0.00  0.00    -0.153 OA
ATOM     30  O   UNL     1       3.015   2.349   8.703  0.00  0.00    -0.153 OA
BRANCH  28  31
ATOM     31  C   UNL     1       4.559   4.345   9.139  0.00  0.00    +0.142 A 
ATOM     32  C   UNL     1       4.954   5.494   9.739  0.00  0.00    +0.036 A 
ATOM     33  C   UNL     1       6.306   5.744   9.883  0.00  0.00    +0.010 A 
ATOM     34  C   UNL     1       7.196   4.839   9.409  0.00  0.00    +0.047 A 
ATOM     35  S   UNL     1       6.122   3.579   8.741  0.00  0.00    -0.077 S 
ENDBRANCH  28  31
ENDBRANCH  26  28
ENDBRANCH  25  26
ENDBRANCH  24  25
ENDBRANCH  21  24
ENDBRANCH  19  20
ENDBRANCH   1  19
TORSDOF 9
