REMARK  Name = ZINC39530933
REMARK  11 active torsions:
REMARK  status: ('A' for Active; 'I' for Inactive)
REMARK    1  A    between atoms: C_1  and  C_2
REMARK    2  A    between atoms: C_2  and  C_3
REMARK    3  A    between atoms: C_2  and  S_4
REMARK    4  A    between atoms: S_4  and  C_7
REMARK    5  A    between atoms: C_10  and  N_19
REMARK    6  A    between atoms: C_11  and  S_13
REMARK    7  A    between atoms: S_13  and  C_16
REMARK    8  A    between atoms: C_16  and  C_17
REMARK    9  A    between atoms: C_16  and  C_18
REMARK   10  A    between atoms: C_23  and  C_26
REMARK   11  A    between atoms: C_31  and  O_32
REMARK                            x       y       z     vdW  Elec       q    Type
REMARK                         _______ _______ _______ _____ _____    ______ ____
ROOT
ATOM      1  C   UNL     1      -3.015   0.515  -1.605  0.00  0.00    +0.090 A 
ATOM      2  C   UNL     1      -3.573   1.758  -1.845  0.00  0.00    +0.029 A 
ATOM      3  C   UNL     1      -3.924   2.123  -3.130  0.00  0.00    +0.027 A 
ATOM      4  C   UNL     1      -3.715   1.240  -4.182  0.00  0.00    +0.055 A 
ATOM      5  C   UNL     1      -3.155  -0.007  -3.938  0.00  0.00    +0.111 A 
ATOM      6  C   UNL     1      -2.801  -0.364  -2.651  0.00  0.00    +0.055 A 
ENDROOT
BRANCH   4   7
ATOM      7  N   UNL     1      -4.069   1.605  -5.483  0.00  0.00    -0.331 N 
ATOM      8  C   UNL     1      -5.370   1.218  -6.050  0.00  0.00    +0.086 C 
ATOM      9  C   UNL     1      -6.035   2.466  -6.639  0.00  0.00    -0.063 C 
ATOM     10  N   UNL     1      -5.120   3.101  -7.597  0.00  0.00    +0.386 N 
ATOM     11  C   UNL     1      -3.921   3.583  -6.900  0.00  0.00    -0.020 C 
ATOM     12  C   UNL     1      -3.154   2.394  -6.322  0.00  0.00    +0.094 C 
ATOM     13  H   UNL     1      -4.852   2.428  -8.300  0.00  0.00    -0.085 HD
ATOM     14  H   UNL     1      -5.586   3.878  -8.040  0.00  0.00    -0.085 HD
BRANCH  11  15
ATOM     15  C   UNL     1      -3.041   4.328  -7.870  0.00  0.00    -0.018 A 
ATOM     16  C   UNL     1      -3.189   4.130  -9.230  0.00  0.00    +0.005 A 
ATOM     17  C   UNL     1      -2.382   4.812 -10.120  0.00  0.00    +0.000 A 
ATOM     18  C   UNL     1      -1.425   5.695  -9.654  0.00  0.00    +0.004 A 
ATOM     19  C   UNL     1      -1.273   5.896  -8.296  0.00  0.00    +0.045 A 
ATOM     20  C   UNL     1      -2.086   5.217  -7.400  0.00  0.00    +0.118 A 
BRANCH  20  21
ATOM     21  O   UNL     1      -1.943   5.417  -6.063  0.00  0.00    -0.507 OA
ATOM     22  H   UNL     1      -1.309   4.821  -5.641  0.00  0.00    +0.292 HD
ENDBRANCH  20  21
ENDBRANCH  11  15
ENDBRANCH   4   7
BRANCH   1  23
ATOM     23  S   UNL     1      -2.569   0.053   0.036  0.00  0.00    -0.001 S 
ATOM     24  O   UNL     1      -2.627  -1.366   0.042  0.00  0.00    -0.169 OA
ATOM     25  O   UNL     1      -3.427   0.817   0.873  0.00  0.00    -0.169 OA
BRANCH  23  27
ATOM     26  C   UNL     1      -0.783   2.125   0.026  0.00  0.00    +0.032 C 
ATOM     27  C   UNL     1      -0.854   0.610   0.227  0.00  0.00    +0.130 C 
ATOM     28  C   UNL     1      -0.356   0.258   1.630  0.00  0.00    +0.032 C 
ENDBRANCH  23  27
ENDBRANCH   1  23
BRANCH   5  29
ATOM     29  S   UNL     1      -2.889  -1.131  -5.269  0.00  0.00    +0.001 S 
ATOM     30  O   UNL     1      -3.090  -0.356  -6.443  0.00  0.00    -0.169 OA
ATOM     31  O   UNL     1      -1.625  -1.722  -4.998  0.00  0.00    -0.169 OA
BRANCH  29  32
ATOM     32  C   UNL     1      -4.205  -2.368  -5.104  0.00  0.00    +0.130 C 
ATOM     33  C   UNL     1      -4.085  -3.394  -6.233  0.00  0.00    +0.032 C 
ATOM     34  C   UNL     1      -4.072  -3.078  -3.755  0.00  0.00    +0.032 C 
ENDBRANCH  29  32
ENDBRANCH   5  29
TORSDOF 7
