REMARK  Name = ZINC09353068
REMARK  5 active torsions:
REMARK  status: ('A' for Active; 'I' for Inactive)
REMARK    1  A    between atoms: C_1  and  C_2
REMARK    2  A    between atoms: C_5  and  N_39
REMARK    3  A    between atoms: C_7  and  N_8
REMARK    4  A    between atoms: C_24  and  C_30
REMARK    5  A    between atoms: C_30  and  C_32
REMARK                            x       y       z     vdW  Elec       q    Type
REMARK                         _______ _______ _______ _____ _____    ______ ____
ROOT
ATOM      1  N   UNL     1      -0.889   0.154   2.454  0.00  0.00    -0.209 N 
ATOM      2  C   UNL     1      -1.970   0.618   3.103  0.00  0.00    +0.232 C 
ATOM      3  O   UNL     1      -3.106   0.618   2.680  0.00  0.00    -0.274 OA
ATOM      4  C   UNL     1      -1.526   1.141   4.452  0.00  0.00    +0.116 C 
ATOM      5  C   UNL     1      -2.094   2.534   4.709  0.00  0.00    +0.136 C 
ATOM      6  C   UNL     1      -3.435   2.722   4.049  0.00  0.00    -0.016 A 
ATOM      7  C   UNL     1      -4.337   1.689   3.953  0.00  0.00    +0.006 A 
ATOM      8  C   UNL     1      -5.559   1.892   3.334  0.00  0.00    +0.000 A 
ATOM      9  C   UNL     1      -5.876   3.133   2.810  0.00  0.00    +0.001 A 
ATOM     10  C   UNL     1      -4.982   4.179   2.902  0.00  0.00    +0.010 A 
ATOM     11  C   UNL     1      -3.748   3.984   3.527  0.00  0.00    -0.000 A 
ATOM     12  C   UNL     1      -2.790   5.101   3.644  0.00  0.00    +0.138 C 
ATOM     13  N   UNL     1      -1.533   4.858   3.907  0.00  0.00    -0.191 NA
ATOM     14  N   UNL     1      -1.166   3.510   4.107  0.00  0.00    -0.236 N 
ATOM     15  C   UNL     1       0.057   2.833   3.692  0.00  0.00    +0.177 C 
ATOM     16  C   UNL     1       0.000   1.368   4.225  0.00  0.00    +0.119 C 
ATOM     17  C   UNL     1       0.275   0.419   3.067  0.00  0.00    +0.232 C 
ATOM     18  O   UNL     1       1.359  -0.021   2.752  0.00  0.00    -0.274 OA
ENDROOT
BRANCH   1  25
ATOM     19  C   UNL     1      -1.053  -2.685   2.558  0.00  0.00    +0.045 C 
ATOM     20  C   UNL     1      -1.052  -1.935   1.251  0.00  0.00    -0.028 A 
ATOM     21  C   UNL     1      -1.138  -2.626   0.057  0.00  0.00    +0.007 A 
ATOM     22  C   UNL     1      -1.137  -1.939  -1.142  0.00  0.00    +0.033 A 
ATOM     23  C   UNL     1      -1.050  -0.559  -1.152  0.00  0.00    +0.128 A 
ATOM     24  C   UNL     1      -0.964   0.137   0.038  0.00  0.00    +0.057 A 
ATOM     25  C   UNL     1      -0.970  -0.550   1.244  0.00  0.00    +0.049 A 
BRANCH  23  26
ATOM     26  N   UNL     1      -1.048   0.173  -2.438  0.00  0.00    +0.056 N 
ATOM     27  O   UNL     1      -1.123  -0.435  -3.480  0.00  0.00    -0.126 OA
ATOM     28  O   UNL     1      -0.972   1.380  -2.447  0.00  0.00    -0.126 OA
ENDBRANCH  23  26
ENDBRANCH   1  25
BRANCH  15  29
ATOM     29  C   UNL     1       0.150   2.826   2.188  0.00  0.00    +0.186 C 
ATOM     30  O   UNL     1      -0.855   2.923   1.517  0.00  0.00    -0.290 OA
BRANCH  29  31
ATOM     31  C   UNL     1       1.461   2.701   1.534  0.00  0.00    +0.020 A 
ATOM     32  C   UNL     1       2.629   2.649   2.303  0.00  0.00    +0.014 A 
ATOM     33  C   UNL     1       3.854   2.532   1.684  0.00  0.00    +0.039 A 
ATOM     34  C   UNL     1       3.932   2.467   0.301  0.00  0.00    +0.123 A 
ATOM     35  C   UNL     1       2.778   2.519  -0.468  0.00  0.00    +0.039 A 
ATOM     36  C   UNL     1       1.546   2.629   0.139  0.00  0.00    +0.014 A 
ATOM     37  F   UNL     1       5.136   2.354  -0.300  0.00  0.00    -0.205 F 
ENDBRANCH  29  31
ENDBRANCH  15  29
TORSDOF 4
