REMARK  Name = ZINC51667899
REMARK  3 active torsions:
REMARK  status: ('A' for Active; 'I' for Inactive)
REMARK    1  A    between atoms: C_3  and  C_9
REMARK    2  A    between atoms: C_5  and  C_7
REMARK    3  A    between atoms: C_9  and  N_10
REMARK                            x       y       z     vdW  Elec       q    Type
REMARK                         _______ _______ _______ _____ _____    ______ ____
ROOT
ATOM      1  N   UNL     1       4.102   2.451   1.356  0.00  0.00    -0.308 N 
ATOM      2  C   UNL     1       3.759   3.539   2.141  0.00  0.00    +0.073 A 
ATOM      3  C   UNL     1       2.975   4.665   1.935  0.00  0.00    +0.028 A 
ATOM      4  C   UNL     1       2.826   5.593   2.944  0.00  0.00    +0.005 A 
ATOM      5  C   UNL     1       3.457   5.410   4.166  0.00  0.00    +0.040 A 
ATOM      6  C   UNL     1       4.241   4.298   4.388  0.00  0.00    +0.151 A 
ATOM      7  C   UNL     1       4.400   3.348   3.375  0.00  0.00    +0.126 A 
ATOM      8  N   UNL     1       5.089   2.178   3.291  0.00  0.00    -0.212 NA
ATOM      9  C   UNL     1       4.911   1.647   2.107  0.00  0.00    +0.194 A 
ATOM     10  N   UNL     1       5.461   0.456   1.682  0.00  0.00    -0.329 N 
ATOM     11  F   UNL     1       4.853   4.127   5.581  0.00  0.00    -0.203 F 
ATOM     12  H   UNL     1       5.282   0.132   0.785  0.00  0.00    +0.145 HD
ATOM     13  H   UNL     1       6.028  -0.057   2.279  0.00  0.00    +0.145 HD
ENDROOT
BRANCH   1  14
ATOM     14  C   UNL     1       3.671   2.204  -0.023  0.00  0.00    +0.160 C 
BRANCH  14  17
ATOM     15  C   UNL     1      -0.017   1.375   0.010  0.00  0.00    +0.002 A 
ATOM     16  C   UNL     1       1.170   2.086   0.002  0.00  0.00    +0.005 A 
ATOM     17  C   UNL     1       2.383   1.421  -0.013  0.00  0.00    -0.026 A 
ATOM     18  C   UNL     1       2.416   0.041  -0.021  0.00  0.00    +0.024 A 
ATOM     19  C   UNL     1       1.223  -0.682  -0.013  0.00  0.00    +0.052 A 
ATOM     20  C   UNL     1       0.002  -0.004   0.002  0.00  0.00    +0.019 A 
BRANCH  19  21
ATOM     21  C   UNL     1       1.250  -2.114  -0.022  0.00  0.00    +0.099 C 
ATOM     22  N   UNL     1       1.271  -3.250  -0.029  0.00  0.00    -0.191 NA
ENDBRANCH  19  21
ENDBRANCH  14  17
ENDBRANCH   1  14
TORSDOF 3
