REMARK  Name = ZINC20355702
REMARK  7 active torsions:
REMARK  status: ('A' for Active; 'I' for Inactive)
REMARK    1  A    between atoms: C_1  and  C_2
REMARK    2  A    between atoms: C_8  and  C_35
REMARK    3  A    between atoms: C_11  and  S_16
REMARK    4  A    between atoms: S_16  and  N_19
REMARK    5  A    between atoms: C_22  and  C_25
REMARK    6  A    between atoms: N_27  and  C_28
REMARK    7  A    between atoms: C_28  and  C_29
REMARK                            x       y       z     vdW  Elec       q    Type
REMARK                         _______ _______ _______ _____ _____    ______ ____
ROOT
ATOM      1  S   UNL     1       2.815  -7.062   4.592  0.00  0.00    +0.061 S 
ATOM      2  O   UNL     1       2.760  -8.416   4.164  0.00  0.00    -0.153 OA
ATOM      3  O   UNL     1       4.040  -6.354   4.721  0.00  0.00    -0.153 OA
ENDROOT
BRANCH   1  13
ATOM      4  C   UNL     1       0.176   1.465  -0.213  0.00  0.00    +0.008 C 
ATOM      5  C   UNL     1       0.150  -0.064  -0.155  0.00  0.00    -0.009 C 
ATOM      6  C   UNL     1      -1.301  -0.556  -0.151  0.00  0.00    +0.010 C 
ATOM      7  C   UNL     1      -1.299  -2.070  -0.345  0.00  0.00    +0.056 C 
ATOM      8  C   UNL     1      -0.374  -2.730   0.648  0.00  0.00    +0.046 A 
ATOM      9  C   UNL     1       0.611  -2.019   1.322  0.00  0.00    -0.011 A 
ATOM     10  C   UNL     1       1.444  -2.682   2.224  0.00  0.00    +0.077 A 
ATOM     11  C   UNL     1       1.247  -4.070   2.424  0.00  0.00    +0.017 A 
ATOM     12  C   UNL     1       2.042  -4.805   3.312  0.00  0.00    +0.039 A 
ATOM     13  C   UNL     1       1.815  -6.139   3.474  0.00  0.00    +0.106 A 
ATOM     14  C   UNL     1       0.801  -6.782   2.766  0.00  0.00    +0.030 A 
ATOM     15  C   UNL     1       0.011  -6.098   1.894  0.00  0.00    +0.030 A 
ATOM     16  C   UNL     1       0.216  -4.719   1.700  0.00  0.00    +0.072 A 
ATOM     17  N   UNL     1      -0.538  -4.022   0.853  0.00  0.00    -0.251 NA
ATOM     18  C   UNL     1       0.824  -0.541   1.130  0.00  0.00    +0.041 C 
BRANCH  10  19
ATOM     19  C   UNL     1       2.503  -1.954   2.951  0.00  0.00    +0.387 C 
ATOM     20  O   UNL     1       2.253  -1.421   4.023  0.00  0.00    -0.241 OA
ATOM     21  O   UNL     1       3.631  -1.886   2.482  0.00  0.00    -0.241 OA
ENDBRANCH  10  19
ENDBRANCH   1  13
BRANCH   1  22
ATOM     22  N   UNL     1       2.076  -7.004   6.073  0.00  0.00    -0.177 NA
ATOM     23  C   UNL     1       2.388  -5.927   7.023  0.00  0.00    +0.110 C 
ATOM     24  C   UNL     1       2.796  -6.553   8.361  0.00  0.00    +0.030 C 
ATOM     25  C   UNL     1       1.695  -7.507   8.830  0.00  0.00    +0.077 C 
ATOM     26  C   UNL     1       1.519  -8.630   7.806  0.00  0.00    +0.030 C 
ATOM     27  C   UNL     1       1.093  -8.025   6.459  0.00  0.00    +0.110 C 
BRANCH  25  28
ATOM     28  C   UNL     1       2.077  -8.098  10.162  0.00  0.00    +0.216 C 
ATOM     29  O   UNL     1       3.127  -7.787  10.685  0.00  0.00    -0.276 OA
ATOM     30  N   UNL     1       1.253  -8.972  10.773  0.00  0.00    -0.313 N 
ATOM     31  H   UNL     1       0.414  -9.221  10.355  0.00  0.00    +0.149 HD
BRANCH  30  32
ATOM     32  C   UNL     1       1.625  -9.547  12.069  0.00  0.00    +0.135 C 
BRANCH  32  33
ATOM     33  C   UNL     1       0.524 -10.501  12.538  0.00  0.00    +0.135 C 
ATOM     34  C   UNL     1       0.850 -11.018  13.956  0.00  0.00    +0.035 C 
ATOM     35  C   UNL     1       0.408 -12.505  13.874  0.00  0.00    +0.031 C 
ATOM     36  C   UNL     1       0.758 -12.835  12.401  0.00  0.00    +0.160 C 
ATOM     37  O   UNL     1       0.460 -11.635  11.666  0.00  0.00    -0.375 OA
ENDBRANCH  32  33
ENDBRANCH  30  32
ENDBRANCH  25  28
ENDBRANCH   1  22
TORSDOF 6
