REMARK  Name = ZINC09377125
REMARK  4 active torsions:
REMARK  status: ('A' for Active; 'I' for Inactive)
REMARK    1  A    between atoms: C_7  and  C_11
REMARK    2  A    between atoms: C_11  and  C_12
REMARK    3  A    between atoms: N_16  and  C_20
REMARK    4  A    between atoms: C_20  and  C_21
REMARK                            x       y       z     vdW  Elec       q    Type
REMARK                         _______ _______ _______ _____ _____    ______ ____
ROOT
ATOM      1  C   UNL     1      -3.073   1.293  -1.415  0.00  0.00    +0.165 C 
ATOM      2  C   UNL     1      -4.527   0.864  -1.436  0.00  0.00    +0.244 C 
ATOM      3  O   UNL     1      -5.466   1.432  -0.921  0.00  0.00    -0.273 OA
ATOM      4  N   UNL     1      -4.554  -0.285  -2.148  0.00  0.00    -0.215 N 
ATOM      5  C   UNL     1      -3.334  -0.631  -2.575  0.00  0.00    +0.310 C 
ATOM      6  O   UNL     1      -3.107  -1.625  -3.236  0.00  0.00    -0.252 OA
ATOM      7  N   UNL     1      -2.388   0.244  -2.190  0.00  0.00    -0.287 N 
ATOM      8  H   UNL     1      -1.439   0.194  -2.385  0.00  0.00    +0.151 HD
ENDROOT
BRANCH   1   9
ATOM      9  C   UNL     1      -2.545   1.335   0.020  0.00  0.00    +0.069 C 
BRANCH   9  16
ATOM     10  C   UNL     1      -0.644   5.620   0.038  0.00  0.00    +0.001 A 
ATOM     11  C   UNL     1       0.744   5.595   0.025  0.00  0.00    +0.002 A 
ATOM     12  C   UNL     1       1.426   4.399   0.012  0.00  0.00    +0.026 A 
ATOM     13  C   UNL     1       0.719   3.200   0.012  0.00  0.00    +0.047 A 
ATOM     14  C   UNL     1      -0.687   3.230   0.026  0.00  0.00    +0.003 A 
ATOM     15  C   UNL     1      -1.358   4.455   0.039  0.00  0.00    +0.010 A 
ATOM     16  C   UNL     1      -1.122   1.831   0.017  0.00  0.00    -0.020 A 
ATOM     17  C   UNL     1      -0.013   1.076   0.008  0.00  0.00    +0.087 A 
ATOM     18  N   UNL     1       1.097   1.877   0.002  0.00  0.00    -0.360 N 
ATOM     19  H   UNL     1       2.013   1.559  -0.009  0.00  0.00    +0.165 HD
ENDBRANCH   9  16
ENDBRANCH   1   9
BRANCH   4  20
ATOM     20  C   UNL     1      -5.771  -1.055  -2.419  0.00  0.00    +0.214 C 
BRANCH  20  21
ATOM     21  C   UNL     1      -5.982  -2.064  -1.321  0.00  0.00    +0.215 A 
ATOM     22  N   UNL     1      -6.660  -1.848  -0.234  0.00  0.00    -0.212 NA
ATOM     23  C   UNL     1      -6.641  -2.976   0.527  0.00  0.00    +0.110 A 
ATOM     24  C   UNL     1      -7.188  -3.316   1.765  0.00  0.00    +0.031 A 
ATOM     25  C   UNL     1      -6.984  -4.577   2.279  0.00  0.00    +0.002 A 
ATOM     26  C   UNL     1      -6.239  -5.511   1.574  0.00  0.00    +0.004 A 
ATOM     27  C   UNL     1      -5.692  -5.189   0.349  0.00  0.00    +0.048 A 
ATOM     28  C   UNL     1      -5.888  -3.923  -0.183  0.00  0.00    +0.155 A 
ATOM     29  O   UNL     1      -5.501  -3.318  -1.328  0.00  0.00    -0.438 OA
ENDBRANCH  20  21
ENDBRANCH   4  20
TORSDOF 4
