REMARK  Name = ZINC08528341
REMARK  5 active torsions:
REMARK  status: ('A' for Active; 'I' for Inactive)
REMARK    1  A    between atoms: C_1  and  O_2
REMARK    2  A    between atoms: O_2  and  C_3
REMARK    3  A    between atoms: C_8  and  C_9
REMARK    4  A    between atoms: C_9  and  S_10
REMARK    5  A    between atoms: S_10  and  C_11
REMARK                            x       y       z     vdW  Elec       q    Type
REMARK                         _______ _______ _______ _____ _____    ______ ____
ROOT
ATOM      1  C   UNL     1      -2.505   0.019   0.039  0.00  0.00    +0.116 C 
ENDROOT
BRANCH   1   7
ATOM      2  C   UNL     1       0.002  -0.004   0.002  0.00  0.00    +0.124 A 
ATOM      3  C   UNL     1       1.212  -0.682  -0.013  0.00  0.00    +0.047 A 
ATOM      4  C   UNL     1       1.229  -2.063  -0.021  0.00  0.00    +0.019 A 
ATOM      5  C   UNL     1       0.040  -2.771  -0.013  0.00  0.00    +0.018 A 
ATOM      6  C   UNL     1      -1.168  -2.096   0.002  0.00  0.00    +0.023 A 
ATOM      7  C   UNL     1      -1.189  -0.715   0.015  0.00  0.00    +0.006 A 
ATOM      8 BR   UNL     1       0.065  -4.661  -0.023  0.00  0.00    -0.050 Br
BRANCH   2  10
ATOM      9  C   UNL     1       1.248   2.021   0.001  0.00  0.00    +0.277 C 
ATOM     10  O   UNL     1      -0.016   1.355   0.009  0.00  0.00    -0.495 OA
ENDBRANCH   2  10
ENDBRANCH   1   7
BRANCH   1  11
ATOM     11  S   UNL     1      -3.058   0.324  -1.662  0.00  0.00    -0.081 S 
BRANCH  11  12
ATOM     12  C   UNL     1      -4.587   1.177  -1.467  0.00  0.00    +0.196 A 
ATOM     13  N   UNL     1      -5.159   1.499  -0.329  0.00  0.00    -0.122 NA
ATOM     14  N   UNL     1      -6.267   2.116  -0.545  0.00  0.00    -0.129 NA
ATOM     15  C   UNL     1      -6.469   2.225  -1.845  0.00  0.00    +0.162 A 
ATOM     16  N   UNL     1      -5.393   1.630  -2.469  0.00  0.00    -0.278 N 
ATOM     17  C   UNL     1      -5.324   1.582  -3.834  0.00  0.00    +0.095 A 
ATOM     18  C   UNL     1      -6.302   2.125  -4.587  0.00  0.00    +0.018 A 
ATOM     19  C   UNL     1      -7.409   2.744  -3.979  0.00  0.00    +0.005 A 
ATOM     20  C   UNL     1      -7.496   2.796  -2.623  0.00  0.00    +0.049 A 
ENDBRANCH  11  12
ENDBRANCH   1  11
TORSDOF 4
