REMARK  Name = ZINC27526535
REMARK  5 active torsions:
REMARK  status: ('A' for Active; 'I' for Inactive)
REMARK    1  A    between atoms: C_5  and  C_7
REMARK    2  A    between atoms: C_7  and  C_8
REMARK    3  A    between atoms: N_15  and  C_16
REMARK    4  A    between atoms: C_16  and  C_17
REMARK    5  A    between atoms: C_17  and  C_18
REMARK                            x       y       z     vdW  Elec       q    Type
REMARK                         _______ _______ _______ _____ _____    ______ ____
ROOT
ATOM      1  C   UNL     1      -0.424  -3.884  -4.988  0.00  0.00    +0.132 A 
ATOM      2  C   UNL     1      -0.300  -4.660  -3.814  0.00  0.00    +0.296 A 
ATOM      3  O   UNL     1      -0.288  -5.878  -3.866  0.00  0.00    -0.264 OA
ATOM      4  N   UNL     1      -0.190  -4.013  -2.631  0.00  0.00    -0.175 NA
ATOM      5  C   UNL     1      -0.215  -2.652  -2.628  0.00  0.00    +0.213 A 
ATOM      6  N   UNL     1      -0.334  -1.982  -3.761  0.00  0.00    -0.248 N 
ATOM      7  N   UNL     1      -0.434  -2.575  -4.896  0.00  0.00    -0.170 NA
ATOM      8  N   UNL     1      -0.110  -1.973  -1.445  0.00  0.00    -0.313 N 
ATOM      9  H   UNL     1      -0.011  -2.527  -0.499  0.00  0.00    +0.149 HD
ATOM     10  H   UNL     1      -0.348  -0.882  -3.751  0.00  0.00    +0.192 HD
ENDROOT
BRANCH   1  11
ATOM     11  C   UNL     1      -0.545  -4.553  -6.332  0.00  0.00    +0.099 C 
BRANCH  11  16
ATOM     12  C   UNL     1      -2.021  -2.152  -8.844  0.00  0.00    +0.000 A 
ATOM     13  C   UNL     1      -0.883  -1.578  -9.380  0.00  0.00    +0.001 A 
ATOM     14  C   UNL     1       0.364  -1.966  -8.930  0.00  0.00    +0.020 A 
ATOM     15  C   UNL     1       0.475  -2.930  -7.943  0.00  0.00    +0.045 A 
ATOM     16  C   UNL     1      -0.664  -3.504  -7.407  0.00  0.00    -0.023 A 
ATOM     17  C   UNL     1      -1.911  -3.118  -7.862  0.00  0.00    +0.005 A 
ATOM     18 CL   UNL     1       2.042  -3.417  -7.377  0.00  0.00    -0.083 Cl
ENDBRANCH  11  16
ENDBRANCH   1  11
BRANCH   8  19
ATOM     19  C   UNL     1      -0.130  -0.508  -1.437  0.00  0.00    +0.109 C 
BRANCH  19  20
ATOM     20  C   UNL     1       0.002  -0.004   0.002  0.00  0.00    +0.056 C 
BRANCH  20  21
ATOM     21  C   UNL     1      -0.018   1.503   0.010  0.00  0.00    -0.021 A 
ATOM     22  C   UNL     1       1.050   2.316   0.004  0.00  0.00    +0.087 A 
ATOM     23  N   UNL     1       0.642   3.622   0.015  0.00  0.00    -0.360 N 
ATOM     24  H   UNL     1       1.387   4.431   0.012  0.00  0.00    +0.165 HD
ATOM     25  C   UNL     1      -0.734   3.683   0.028  0.00  0.00    +0.047 A 
ATOM     26  C   UNL     1      -1.208   2.358   0.020  0.00  0.00    +0.004 A 
ATOM     27  C   UNL     1      -2.581   2.109   0.036  0.00  0.00    +0.030 A 
ATOM     28  C   UNL     1      -3.465   3.165   0.050  0.00  0.00    +0.042 A 
ATOM     29  C   UNL     1      -2.997   4.473   0.052  0.00  0.00    +0.022 A 
ATOM     30  C   UNL     1      -1.644   4.734   0.042  0.00  0.00    +0.027 A 
ATOM     31 CL   UNL     1      -5.174   2.860   0.064  0.00  0.00    -0.084 Cl
ENDBRANCH  20  21
ENDBRANCH  19  20
ENDBRANCH   8  19
TORSDOF 5
