REMARK  Name = ZINC40645377
REMARK  6 active torsions:
REMARK  status: ('A' for Active; 'I' for Inactive)
REMARK    1  A    between atoms: C_4  and  C_7
REMARK    2  A    between atoms: C_7  and  C_8
REMARK    3  A    between atoms: C_7  and  C_14
REMARK    4  A    between atoms: N_16  and  N_17
REMARK    5  A    between atoms: C_19  and  N_34
REMARK    6  A    between atoms: C_20  and  N_24
REMARK                            x       y       z     vdW  Elec       q    Type
REMARK                         _______ _______ _______ _____ _____    ______ ____
ROOT
ATOM      1  N   UNL     1       4.632  -3.381  -2.526  0.00  0.00    -0.246 N 
ATOM      2  C   UNL     1       5.697  -4.232  -2.779  0.00  0.00    +0.171 A 
ATOM      3  C   UNL     1       5.655  -5.116  -3.853  0.00  0.00    +0.207 A 
ATOM      4  C   UNL     1       6.750  -5.949  -4.064  0.00  0.00    +0.160 A 
ATOM      5  N   UNL     1       7.790  -5.870  -3.236  0.00  0.00    -0.218 NA
ATOM      6  C   UNL     1       7.792  -5.020  -2.231  0.00  0.00    +0.225 A 
ATOM      7  N   UNL     1       6.778  -4.211  -2.001  0.00  0.00    -0.217 NA
ATOM      8  H   UNL     1       3.848  -3.403  -3.097  0.00  0.00    +0.172 HD
ENDROOT
BRANCH   4   9
ATOM      9  N   UNL     1       6.757  -6.849  -5.121  0.00  0.00    -0.277 N 
ATOM     10  C   UNL     1       7.849  -7.671  -5.322  0.00  0.00    +0.165 A 
ATOM     11  N   UNL     1       8.959  -7.751  -4.624  0.00  0.00    -0.225 NA
ATOM     12  C   UNL     1       9.953  -8.610  -4.938  0.00  0.00    +0.080 A 
ATOM     13  C   UNL     1      11.189  -8.795  -4.276  0.00  0.00    +0.029 A 
ATOM     14  C   UNL     1      12.096  -9.717  -4.729  0.00  0.00    +0.002 A 
ATOM     15  C   UNL     1      11.838 -10.498  -5.846  0.00  0.00    +0.001 A 
ATOM     16  C   UNL     1      10.639 -10.344  -6.519  0.00  0.00    +0.017 A 
ATOM     17  C   UNL     1       9.725  -9.423  -6.071  0.00  0.00    +0.041 A 
ATOM     18  S   UNL     1       8.108  -8.902  -6.592  0.00  0.00    -0.052 S 
ATOM     19  H   UNL     1       5.995  -6.900  -5.719  0.00  0.00    +0.156 HD
ENDBRANCH   4   9
BRANCH   1  22
ATOM     20  C   UNL     1       3.652  -1.665  -1.200  0.00  0.00    +0.241 C 
ATOM     21  O   UNL     1       2.672  -1.691  -1.914  0.00  0.00    -0.273 OA
ATOM     22  N   UNL     1       4.687  -2.491  -1.446  0.00  0.00    -0.235 N 
ATOM     23  H   UNL     1       5.471  -2.470  -0.874  0.00  0.00    +0.173 HD
BRANCH  20  24
ATOM     24  C   UNL     1       3.711  -0.707  -0.038  0.00  0.00    +0.136 C 
BRANCH  24  28
ATOM     25  C   UNL     1       0.102   1.573   0.113  0.00  0.00    +0.000 A 
ATOM     26  C   UNL     1       1.325   2.216   0.082  0.00  0.00    +0.000 A 
ATOM     27  C   UNL     1       2.493   1.478   0.034  0.00  0.00    +0.005 A 
ATOM     28  C   UNL     1       2.438   0.097   0.016  0.00  0.00    -0.031 A 
ATOM     29  C   UNL     1       1.215  -0.546   0.048  0.00  0.00    +0.005 A 
ATOM     30  C   UNL     1       0.047   0.192   0.095  0.00  0.00    +0.000 A 
ENDBRANCH  24  28
BRANCH  24  31
ATOM     31  C   UNL     1       3.870  -1.483   1.245  0.00  0.00    -0.031 A 
ATOM     32  C   UNL     1       3.012  -2.528   1.531  0.00  0.00    +0.005 A 
ATOM     33  C   UNL     1       3.158  -3.240   2.707  0.00  0.00    +0.000 A 
ATOM     34  C   UNL     1       4.161  -2.906   3.597  0.00  0.00    +0.000 A 
ATOM     35  C   UNL     1       5.020  -1.861   3.310  0.00  0.00    +0.000 A 
ATOM     36  C   UNL     1       4.877  -1.153   2.132  0.00  0.00    +0.005 A 
ENDBRANCH  24  31
ENDBRANCH  20  24
ENDBRANCH   1  22
BRANCH   3  37
ATOM     37  N   UNL     1       4.477  -5.170  -4.747  0.00  0.00    +0.063 N 
ATOM     38  O   UNL     1       4.430  -4.465  -5.728  0.00  0.00    -0.126 OA
ATOM     39  O   UNL     1       3.562  -5.919  -4.497  0.00  0.00    -0.126 OA
ENDBRANCH   3  37
TORSDOF 6
