REMARK  Name = ZINC15069341
REMARK  10 active torsions:
REMARK  status: ('A' for Active; 'I' for Inactive)
REMARK    1  A    between atoms: C_1  and  C_2
REMARK    2  A    between atoms: C_2  and  C_3
REMARK    3  A    between atoms: C_2  and  C_4
REMARK    4  A    between atoms: C_4  and  C_5
REMARK    5  A    between atoms: C_7  and  C_12
REMARK    6  A    between atoms: C_17  and  N_69
REMARK    7  A    between atoms: C_22  and  C_25
REMARK    8  A    between atoms: N_27  and  C_28
REMARK    9  A    between atoms: C_28  and  C_29
REMARK   10  A    between atoms: C_28  and  C_30
REMARK                            x       y       z     vdW  Elec       q    Type
REMARK                         _______ _______ _______ _____ _____    ______ ____
ROOT
ATOM      1  C   UNL     1       1.792   2.892   0.934  0.00  0.00    +0.265 C 
ATOM      2  O   UNL     1       0.958   3.546   1.529  0.00  0.00    -0.268 OA
ATOM      3  N   UNL     1       1.420   1.802   0.235  0.00  0.00    -0.296 N 
ATOM      4  C   UNL     1       0.012   1.384   0.192  0.00  0.00    +0.106 C 
ATOM      5  C   UNL     1      -0.081  -0.084   0.620  0.00  0.00    +0.004 C 
ATOM      6  C   UNL     1       0.852  -0.925  -0.254  0.00  0.00    -0.066 C 
ATOM      7  C   UNL     1       2.296  -0.456  -0.062  0.00  0.00    +0.004 C 
ATOM      8  C   UNL     1       2.415   1.007  -0.498  0.00  0.00    +0.106 C 
ENDROOT
BRANCH   1  11
ATOM      9  C   UNL     1       5.037   4.465   2.001  0.00  0.00    +0.047 A 
ATOM     10  C   UNL     1       3.692   4.120   1.999  0.00  0.00    +0.056 A 
ATOM     11  C   UNL     1       3.220   3.295   0.978  0.00  0.00    +0.131 A 
ATOM     12  N   UNL     1       4.068   2.878   0.041  0.00  0.00    -0.210 NA
ATOM     13  C   UNL     1       5.341   3.235   0.077  0.00  0.00    +0.213 A 
ATOM     14  N   UNL     1       5.820   4.014   1.037  0.00  0.00    -0.220 NA
ATOM     15  N   UNL     1       6.196   2.784  -0.914  0.00  0.00    -0.327 N 
ATOM     16  H   UNL     1       5.859   2.214  -1.622  0.00  0.00    +0.145 HD
ATOM     17  H   UNL     1       7.132   3.038  -0.900  0.00  0.00    +0.145 HD
BRANCH   9  18
ATOM     18  C   UNL     1       5.595   5.350   3.086  0.00  0.00    +0.058 C 
BRANCH  18  20
ATOM     19  C   UNL     1       7.915   4.491   2.738  0.00  0.00    +0.007 C 
ATOM     20  C   UNL     1       6.782   4.651   3.753  0.00  0.00    -0.011 C 
ATOM     21  C   UNL     1       7.270   5.492   4.934  0.00  0.00    +0.007 C 
ENDBRANCH  18  20
ENDBRANCH   9  18
ENDBRANCH   1  11
BRANCH   6  27
ATOM     22  C   UNL     1      -0.664  -2.765   0.168  0.00  0.00    -0.078 C 
ATOM     23  C   UNL     1      -0.751  -4.193   0.712  0.00  0.00    -0.006 C 
ATOM     24  C   UNL     1       0.062  -5.127  -0.189  0.00  0.00    +0.071 C 
ATOM     25  C   UNL     1       1.510  -4.633  -0.248  0.00  0.00    -0.006 C 
ATOM     26  C   UNL     1       1.532  -3.192  -0.764  0.00  0.00    -0.078 C 
ATOM     27  N   UNL     1       0.752  -2.341   0.159  0.00  0.00    +0.382 N 
ATOM     28  H   UNL     1       1.135  -2.439   1.107  0.00  0.00    -0.081 HD
BRANCH  24  29
ATOM     29  C   UNL     1       0.030  -6.524   0.376  0.00  0.00    +0.216 C 
ATOM     30  O   UNL     1       1.063  -7.072   0.699  0.00  0.00    -0.276 OA
ATOM     31  N   UNL     1      -1.147  -7.165   0.521  0.00  0.00    -0.313 N 
ATOM     32  H   UNL     1      -1.972  -6.727   0.263  0.00  0.00    +0.149 HD
BRANCH  31  33
ATOM     33  C   UNL     1      -1.178  -8.524   1.069  0.00  0.00    +0.067 C 
ATOM     34  C   UNL     1      -1.193  -8.456   2.598  0.00  0.00    +0.027 C 
ATOM     35  C   UNL     1      -2.436  -9.243   0.578  0.00  0.00    +0.027 C 
ENDBRANCH  31  33
ENDBRANCH  24  29
ENDBRANCH   6  27
TORSDOF 6
