REMARK  Name = ZINC39695828
REMARK  8 active torsions:
REMARK  status: ('A' for Active; 'I' for Inactive)
REMARK    1  A    between atoms: C_1  and  C_2
REMARK    2  A    between atoms: C_7  and  C_12
REMARK    3  A    between atoms: C_12  and  C_14
REMARK    4  A    between atoms: C_12  and  N_15
REMARK    5  A    between atoms: C_16  and  C_18
REMARK    6  A    between atoms: C_29  and  C_31
REMARK    7  A    between atoms: C_34  and  C_42
REMARK    8  A    between atoms: C_36  and  C_38
REMARK                            x       y       z     vdW  Elec       q    Type
REMARK                         _______ _______ _______ _____ _____    ______ ____
ROOT
ATOM      1  C   UNL     1      -5.862   1.815  -9.033  0.00  0.00    +0.100 C 
ATOM      2  C   UNL     1      -5.354   3.255  -9.271  0.00  0.00    +0.121 C 
ATOM      3  N   UNL     1      -6.190   3.768 -10.382  0.00  0.00    -0.300 N 
ATOM      4  C   UNL     1      -7.546   3.239 -10.098  0.00  0.00    +0.115 C 
ATOM      5  C   UNL     1      -7.301   1.809  -9.576  0.00  0.00    -0.004 C 
ATOM      6  C   UNL     1      -8.286   1.480  -8.459  0.00  0.00    -0.010 C 
ATOM      7  C   UNL     1      -9.704   1.422  -9.035  0.00  0.00    -0.082 C 
ATOM      8  N   UNL     1      -9.765   0.399 -10.087  0.00  0.00    +0.379 N 
ATOM      9  C   UNL     1      -8.883   0.771 -11.200  0.00  0.00    -0.082 C 
ATOM     10  C   UNL     1      -7.431   0.802 -10.715  0.00  0.00    -0.010 C 
ATOM     11  C   UNL     1      -5.805   4.541 -11.417  0.00  0.00    +0.226 C 
ATOM     12  O   UNL     1      -6.614   4.882 -12.253  0.00  0.00    -0.275 OA
ATOM     13  H   UNL     1      -9.470  -0.489  -9.708  0.00  0.00    -0.086 HD
ATOM     14  H   UNL     1     -10.713   0.320 -10.422  0.00  0.00    -0.086 HD
ENDROOT
BRANCH  11  15
ATOM     15  C   UNL     1      -4.369   4.981 -11.535  0.00  0.00    +0.150 C 
ATOM     16  C   UNL     1      -4.276   6.391 -12.092  0.00  0.00    +0.030 C 
ATOM     17  C   UNL     1      -3.926   6.292 -13.356  0.00  0.00    +0.092 C 
ATOM     18  O   UNL     1      -3.769   5.016 -13.776  0.00  0.00    -0.484 OA
ATOM     19  C   UNL     1      -3.626   4.165 -12.621  0.00  0.00    +0.292 C 
ATOM     20  C   UNL     1      -3.721   7.487 -14.252  0.00  0.00    +0.085 C 
BRANCH  19  21
ATOM     21  C   UNL     1      -4.304   2.812 -12.849  0.00  0.00    +0.427 C 
ATOM     22  F   UNL     1      -5.579   3.015 -13.389  0.00  0.00    -0.167 F 
ATOM     23  F   UNL     1      -3.537   2.050 -13.737  0.00  0.00    -0.167 F 
ATOM     24  F   UNL     1      -4.416   2.135 -11.630  0.00  0.00    -0.167 F 
ENDBRANCH  19  21
ENDBRANCH  11  15
BRANCH   1  26
ATOM     25  N   UNL     1      -5.691   0.220  -7.150  0.00  0.00    -0.305 N 
ATOM     26  C   UNL     1      -5.856   1.494  -7.561  0.00  0.00    +0.219 C 
ATOM     27  O   UNL     1      -5.998   2.380  -6.745  0.00  0.00    -0.275 OA
ATOM     28  H   UNL     1      -5.577  -0.489  -7.802  0.00  0.00    +0.149 HD
BRANCH  25  29
ATOM     29  C   UNL     1      -5.685  -0.093  -5.719  0.00  0.00    +0.136 C 
ATOM     30  C   UNL     1      -4.277   0.116  -5.157  0.00  0.00    +0.036 C 
BRANCH  29  37
ATOM     31  C   UNL     1      -8.110  -6.771  -3.506  0.00  0.00    +0.044 C 
ATOM     32  C   UNL     1      -7.523  -5.662  -4.341  0.00  0.00    -0.048 A 
ATOM     33  C   UNL     1      -7.080  -5.930  -5.628  0.00  0.00    +0.005 A 
ATOM     34  C   UNL     1      -6.545  -4.939  -6.401  0.00  0.00    +0.030 A 
ATOM     35  C   UNL     1      -6.442  -3.640  -5.895  0.00  0.00    +0.089 A 
ATOM     36  N   UNL     1      -5.971  -2.472  -6.402  0.00  0.00    -0.231 NA
ATOM     37  C   UNL     1      -6.099  -1.527  -5.517  0.00  0.00    +0.128 A 
ATOM     38  H   UNL     1      -6.862  -1.525  -3.574  0.00  0.00    +0.167 HD
ATOM     39  N   UNL     1      -6.661  -2.024  -4.382  0.00  0.00    -0.340 N 
ATOM     40  C   UNL     1      -6.892  -3.369  -4.592  0.00  0.00    +0.067 A 
ATOM     41  C   UNL     1      -7.436  -4.388  -3.823  0.00  0.00    +0.031 A 
ENDBRANCH  29  37
ENDBRANCH  25  29
ENDBRANCH   1  26
TORSDOF 5
