REMARK  Name = ZINC50252792
REMARK  6 active torsions:
REMARK  status: ('A' for Active; 'I' for Inactive)
REMARK    1  A    between atoms: C_1  and  C_2
REMARK    2  A    between atoms: C_4  and  S_8
REMARK    3  A    between atoms: N_6  and  C_7
REMARK    4  A    between atoms: S_8  and  N_11
REMARK    5  A    between atoms: N_11  and  C_12
REMARK    6  A    between atoms: C_14  and  N_20
REMARK                            x       y       z     vdW  Elec       q    Type
REMARK                         _______ _______ _______ _____ _____    ______ ____
ROOT
ATOM      1  N   UNL     1       1.628  -3.801  -2.082  0.00  0.00    -0.094 NA
ENDROOT
BRANCH   1   2
ATOM      2  C   UNL     1       1.950  -4.874  -2.922  0.00  0.00    +0.111 A 
ATOM      3  C   UNL     1       3.278  -5.183  -3.176  0.00  0.00    +0.055 A 
ATOM      4  C   UNL     1       3.594  -6.246  -4.010  0.00  0.00    +0.062 A 
ATOM      5  C   UNL     1       2.579  -6.999  -4.589  0.00  0.00    +0.147 A 
ATOM      6  C   UNL     1       1.255  -6.689  -4.334  0.00  0.00    +0.080 A 
ATOM      7  C   UNL     1       0.938  -5.633  -3.499  0.00  0.00    +0.151 A 
ATOM      8  F   UNL     1      -0.356  -5.336  -3.248  0.00  0.00    -0.203 F 
ATOM      9  F   UNL     1       2.886  -8.035  -5.401  0.00  0.00    -0.203 F 
BRANCH   4  10
ATOM     10  N   UNL     1       4.933  -6.560  -4.268  0.00  0.00    -0.356 N 
ATOM     11  H   UNL     1       5.641  -6.034  -3.864  0.00  0.00    +0.142 HD
ATOM     12  H   UNL     1       5.154  -7.303  -4.850  0.00  0.00    +0.142 HD
ENDBRANCH   4  10
ENDBRANCH   1   2
BRANCH   1  13
ATOM     13  S   UNL     1       0.042  -3.437  -1.774  0.00  0.00    +0.109 S 
ATOM     14  O   UNL     1      -0.490  -4.530  -1.039  0.00  0.00    -0.147 OA
ATOM     15  O   UNL     1      -0.520  -3.000  -3.004  0.00  0.00    -0.147 OA
BRANCH  13  19
ATOM     16  C   UNL     1      -0.018   1.503   0.010  0.00  0.00    +0.084 C 
ATOM     17  C   UNL     1       0.002  -0.004   0.002  0.00  0.00    +0.085 A 
ATOM     18  N   UNL     1       0.008  -0.759  -1.063  0.00  0.00    -0.328 N 
ATOM     19  C   UNL     1       0.028  -2.047  -0.691  0.00  0.00    +0.195 A 
ATOM     20  C   UNL     1       0.034  -2.093   0.655  0.00  0.00    +0.134 A 
ATOM     21  N   UNL     1       0.023  -0.797   1.095  0.00  0.00    -0.337 N 
ATOM     22  C   UNL     1       0.030  -0.353   2.491  0.00  0.00    +0.150 C 
ATOM     23  H   UNL     1      -0.000  -0.438  -1.978  0.00  0.00    +0.168 HD
ENDBRANCH  13  19
ENDBRANCH   1  13
TORSDOF 4
