REMARK  Name = ZINC39834847
REMARK  9 active torsions:
REMARK  status: ('A' for Active; 'I' for Inactive)
REMARK    1  A    between atoms: C_1  and  C_2
REMARK    2  A    between atoms: C_2  and  O_3
REMARK    3  A    between atoms: O_3  and  C_4
REMARK    4  A    between atoms: C_7  and  N_10
REMARK    5  A    between atoms: N_12  and  C_30
REMARK    6  A    between atoms: C_13  and  C_16
REMARK    7  A    between atoms: C_19  and  S_22
REMARK    8  A    between atoms: S_22  and  N_25
REMARK    9  A    between atoms: C_30  and  C_31
REMARK                            x       y       z     vdW  Elec       q    Type
REMARK                         _______ _______ _______ _____ _____    ______ ____
ROOT
ATOM      1  N   UNL     1       1.430  -6.119   0.133  0.00  0.00    -0.295 N 
ATOM      2  C   UNL     1       1.776  -5.941  -1.197  0.00  0.00    +0.144 A 
ATOM      3  N   UNL     1       1.881  -6.838  -2.160  0.00  0.00    -0.318 N 
ATOM      4  C   UNL     1       2.230  -6.485  -3.395  0.00  0.00    +0.058 A 
ATOM      5  C   UNL     1       2.483  -5.170  -3.668  0.00  0.00    +0.074 A 
ATOM      6  S   UNL     1       2.192  -4.435  -2.065  0.00  0.00    -0.062 S 
ATOM      7  H   UNL     1       1.500  -6.997   0.539  0.00  0.00    +0.154 HD
ENDROOT
BRANCH   1  11
ATOM      8  C   UNL     1       0.087  -2.882   2.389  0.00  0.00    +0.121 A 
ATOM      9  C   UNL     1      -0.201  -2.949   1.034  0.00  0.00    +0.047 A 
ATOM     10  C   UNL     1       0.244  -4.021   0.286  0.00  0.00    +0.027 A 
ATOM     11  C   UNL     1       0.979  -5.032   0.890  0.00  0.00    +0.033 A 
ATOM     12  C   UNL     1       1.267  -4.964   2.248  0.00  0.00    +0.027 A 
ATOM     13  C   UNL     1       0.826  -3.888   2.993  0.00  0.00    +0.047 A 
BRANCH   8  14
ATOM     14  O   UNL     1      -0.352  -1.826   3.125  0.00  0.00    -0.492 OA
BRANCH  14  16
ATOM     15  C   UNL     1      -1.510   0.274   3.424  0.00  0.00    +0.048 C 
ATOM     16  C   UNL     1      -1.107  -0.826   2.439  0.00  0.00    +0.225 C 
ENDBRANCH  14  16
ENDBRANCH   8  14
ENDBRANCH   1  11
BRANCH   4  17
ATOM     17  C   UNL     1       2.343  -7.507  -4.464  0.00  0.00    -0.001 A 
ATOM     18  C   UNL     1       1.714  -8.743  -4.319  0.00  0.00    +0.012 A 
ATOM     19  C   UNL     1       1.823  -9.691  -5.316  0.00  0.00    +0.029 A 
ATOM     20  C   UNL     1       2.554  -9.416  -6.458  0.00  0.00    +0.106 A 
ATOM     21  C   UNL     1       3.180  -8.191  -6.607  0.00  0.00    +0.029 A 
ATOM     22  C   UNL     1       3.073  -7.234  -5.619  0.00  0.00    +0.012 A 
BRANCH  20  23
ATOM     23  S   UNL     1       2.688 -10.631  -7.727  0.00  0.00    +0.061 S 
ATOM     24  O   UNL     1       3.876 -10.334  -8.449  0.00  0.00    -0.153 OA
ATOM     25  O   UNL     1       2.467 -11.891  -7.108  0.00  0.00    -0.153 OA
BRANCH  23  26
ATOM     26  N   UNL     1       1.427 -10.389  -8.772  0.00  0.00    -0.177 NA
ATOM     27  C   UNL     1       0.096 -11.005  -8.666  0.00  0.00    +0.109 C 
ATOM     28  C   UNL     1      -0.735 -10.510  -9.868  0.00  0.00    +0.018 C 
ATOM     29  C   UNL     1       0.351 -10.088 -10.892  0.00  0.00    +0.018 C 
ATOM     30  C   UNL     1       1.450  -9.515  -9.959  0.00  0.00    +0.109 C 
ENDBRANCH  23  26
ENDBRANCH  20  23
ENDBRANCH   4  17
BRANCH   3  31
ATOM     31  C   UNL     1       1.609  -8.247  -1.865  0.00  0.00    +0.159 C 
BRANCH  31  32
ATOM     32  C   UNL     1       0.121  -8.486  -1.885  0.00  0.00    -0.028 A 
ATOM     33  C   UNL     1      -0.740  -7.525  -1.391  0.00  0.00    +0.005 A 
ATOM     34  C   UNL     1      -2.105  -7.744  -1.409  0.00  0.00    +0.000 A 
ATOM     35  C   UNL     1      -2.608  -8.925  -1.921  0.00  0.00    +0.000 A 
ATOM     36  C   UNL     1      -1.747  -9.887  -2.416  0.00  0.00    +0.000 A 
ATOM     37  C   UNL     1      -0.382  -9.665  -2.402  0.00  0.00    +0.005 A 
ENDBRANCH  31  32
ENDBRANCH   3  31
TORSDOF 8
