REMARK  Name = ZINC66875179
REMARK  11 active torsions:
REMARK  status: ('A' for Active; 'I' for Inactive)
REMARK    1  A    between atoms: C_1  and  C_2
REMARK    2  A    between atoms: C_2  and  C_3
REMARK    3  A    between atoms: C_2  and  C_4
REMARK    4  A    between atoms: C_4  and  C_5
REMARK    5  A    between atoms: C_4  and  C_6
REMARK    6  A    between atoms: C_4  and  N_8
REMARK    7  A    between atoms: C_9  and  C_11
REMARK    8  A    between atoms: C_11  and  N_12
REMARK    9  A    between atoms: C_15  and  N_18
REMARK   10  A    between atoms: C_19  and  C_21
REMARK   11  A    between atoms: C_21  and  C_22
REMARK                            x       y       z     vdW  Elec       q    Type
REMARK                         _______ _______ _______ _____ _____    ______ ____
ROOT
ATOM      1  N   UNL     1      -3.936  -4.691  -0.251  0.00  0.00    +0.385 N 
ATOM      2  C   UNL     1      -4.548  -4.415   1.054  0.00  0.00    -0.076 C 
ATOM      3  C   UNL     1      -6.009  -4.870   1.043  0.00  0.00    +0.003 C 
ATOM      4  C   UNL     1      -6.067  -6.373   0.758  0.00  0.00    +0.069 C 
ATOM      5  C   UNL     1      -5.361  -6.659  -0.570  0.00  0.00    +0.003 C 
ATOM      6  C   UNL     1      -3.924  -6.138  -0.499  0.00  0.00    -0.076 C 
ATOM      7  H   UNL     1      -4.468  -4.231  -0.974  0.00  0.00    -0.081 HD
ENDROOT
BRANCH   4   8
ATOM      8  N   UNL     1      -7.466  -6.801   0.671  0.00  0.00    -0.313 N 
ATOM      9  C   UNL     1      -7.796  -8.082   0.928  0.00  0.00    +0.213 C 
ATOM     10  O   UNL     1      -6.936  -8.880   1.233  0.00  0.00    -0.276 OA
ATOM     11  H   UNL     1      -8.154  -6.162   0.427  0.00  0.00    +0.149 HD
BRANCH   9  12
ATOM     12  C   UNL     1      -9.235  -8.522   0.839  0.00  0.00    +0.099 C 
BRANCH  12  13
ATOM     13  C   UNL     1      -9.335 -10.011   1.177  0.00  0.00    -0.002 C 
ATOM     14  C   UNL     1      -8.654 -10.849   0.075  0.00  0.00    +0.004 C 
ATOM     15  C   UNL     1      -9.548 -12.108  -0.051  0.00  0.00    +0.000 C 
ATOM     16  C   UNL     1     -10.975 -11.533   0.130  0.00  0.00    +0.000 C 
ATOM     17  C   UNL     1     -10.810 -10.445   1.211  0.00  0.00    +0.004 C 
ENDBRANCH  12  13
ENDBRANCH   9  12
ENDBRANCH   4   8
BRANCH   1  18
ATOM     18  C   UNL     1      -2.558  -4.183  -0.262  0.00  0.00    +0.019 C 
BRANCH  18  20
ATOM     19  N   UNL     1      -1.416  -1.993  -0.116  0.00  0.00    -0.299 N 
ATOM     20  C   UNL     1      -2.575  -2.682  -0.130  0.00  0.00    +0.198 C 
ATOM     21  O   UNL     1      -3.631  -2.093  -0.036  0.00  0.00    -0.278 OA
ATOM     22  H   UNL     1      -0.572  -2.463  -0.190  0.00  0.00    +0.150 HD
BRANCH  19  23
ATOM     23  C   UNL     1      -1.433  -0.534   0.013  0.00  0.00    +0.121 C 
ATOM     24  C   UNL     1      -2.110  -0.145   1.329  0.00  0.00    +0.048 C 
BRANCH  23  26
ATOM     25  C   UNL     1      -0.019   1.526   0.010  0.00  0.00    +0.010 C 
ATOM     26  C   UNL     1       0.002  -0.004   0.002  0.00  0.00    +0.020 C 
ATOM     27  C   UNL     1       0.742  -0.511   1.242  0.00  0.00    +0.010 C 
ENDBRANCH  23  26
BRANCH  23  28
ATOM     28  C   UNL     1      -2.180   0.049  -1.114  0.00  0.00    +0.088 C 
ATOM     29  N   UNL     1      -2.756   0.499  -1.983  0.00  0.00    -0.194 NA
ENDBRANCH  23  28
ENDBRANCH  19  23
ENDBRANCH  18  20
ENDBRANCH   1  18
TORSDOF 8
