REMARK  Name = ZINC34812125
REMARK  7 active torsions:
REMARK  status: ('A' for Active; 'I' for Inactive)
REMARK    1  A    between atoms: C_1  and  C_2
REMARK    2  A    between atoms: N_12  and  S_15
REMARK    3  A    between atoms: S_15  and  C_18
REMARK    4  A    between atoms: C_21  and  C_24
REMARK    5  A    between atoms: C_24  and  C_25
REMARK    6  A    between atoms: C_24  and  C_26
REMARK    7  A    between atoms: C_24  and  C_27
REMARK                            x       y       z     vdW  Elec       q    Type
REMARK                         _______ _______ _______ _____ _____    ______ ____
ROOT
ATOM      1  C   UNL     1      -0.018   1.503   0.010  0.00  0.00    +0.045 C 
ATOM      2  C   UNL     1       0.002  -0.004   0.002  0.00  0.00    -0.029 A 
ATOM      3  C   UNL     1       0.006  -0.692  -1.197  0.00  0.00    +0.005 A 
ATOM      4  C   UNL     1       0.025  -2.078  -1.214  0.00  0.00    +0.001 A 
ATOM      5  C   UNL     1       0.043  -2.793  -0.034  0.00  0.00    +0.015 A 
ATOM      6  C   UNL     1       0.041  -2.112   1.181  0.00  0.00    +0.058 A 
ATOM      7  C   UNL     1       0.023  -0.706   1.194  0.00  0.00    +0.044 A 
ATOM      8  N   UNL     1       0.017  -0.064   2.427  0.00  0.00    -0.322 N 
ATOM      9  C   UNL     1      -0.607  -0.744   3.570  0.00  0.00    +0.101 C 
ATOM     10  C   UNL     1      -2.130  -0.656   3.437  0.00  0.00    +0.062 C 
ATOM     11  C   UNL     1      -2.548   0.816   3.368  0.00  0.00    +0.113 C 
ATOM     12  N   UNL     1      -2.004   1.518   4.539  0.00  0.00    -0.176 NA
ATOM     13  C   UNL     1      -0.564   1.423   4.812  0.00  0.00    +0.113 C 
ATOM     14  C   UNL     1      -0.168  -0.056   4.865  0.00  0.00    +0.062 C 
ATOM     15  N   UNL     1      -0.202  -2.150   3.604  0.00  0.00    -0.290 N 
ATOM     16  C   UNL     1       0.065  -2.826   2.470  0.00  0.00    +0.247 C 
ATOM     17  O   UNL     1       0.336  -4.011   2.513  0.00  0.00    -0.270 OA
ATOM     18  H   UNL     1       0.416   0.814   2.531  0.00  0.00    +0.148 HD
ATOM     19  H   UNL     1      -0.130  -2.603   4.458  0.00  0.00    +0.151 HD
ENDROOT
BRANCH  12  20
ATOM     20  S   UNL     1      -2.995   2.399   5.530  0.00  0.00    +0.061 S 
ATOM     21  O   UNL     1      -2.172   3.361   6.176  0.00  0.00    -0.153 OA
ATOM     22  O   UNL     1      -4.127   2.764   4.753  0.00  0.00    -0.153 OA
BRANCH  20  23
ATOM     23  C   UNL     1      -3.577   1.310   6.787  0.00  0.00    +0.105 A 
ATOM     24  C   UNL     1      -4.742   0.591   6.594  0.00  0.00    +0.029 A 
ATOM     25  C   UNL     1      -5.198  -0.264   7.580  0.00  0.00    +0.006 A 
ATOM     26  C   UNL     1      -4.490  -0.400   8.759  0.00  0.00    -0.042 A 
ATOM     27  C   UNL     1      -3.324   0.318   8.952  0.00  0.00    +0.006 A 
ATOM     28  C   UNL     1      -2.866   1.169   7.964  0.00  0.00    +0.029 A 
BRANCH  26  29
ATOM     29  C   UNL     1      -4.988  -1.331   9.834  0.00  0.00    -0.013 C 
ATOM     30  C   UNL     1      -5.062  -2.756   9.281  0.00  0.00    +0.015 C 
ATOM     31  C   UNL     1      -4.027  -1.296  11.024  0.00  0.00    +0.015 C 
ATOM     32  C   UNL     1      -6.380  -0.887  10.289  0.00  0.00    +0.015 C 
ENDBRANCH  26  29
ENDBRANCH  20  23
ENDBRANCH  12  20
TORSDOF 3
