REMARK  Name = ZINC18209222
REMARK  10 active torsions:
REMARK  status: ('A' for Active; 'I' for Inactive)
REMARK    1  A    between atoms: C_1  and  C_2
REMARK    2  A    between atoms: C_7  and  N_8
REMARK    3  A    between atoms: C_9  and  C_11
REMARK    4  A    between atoms: C_12  and  C_39
REMARK    5  A    between atoms: C_16  and  C_18
REMARK    6  A    between atoms: C_26  and  C_29
REMARK    7  A    between atoms: C_32  and  O_37
REMARK    8  A    between atoms: C_33  and  O_35
REMARK    9  A    between atoms: O_35  and  C_36
REMARK   10  A    between atoms: O_37  and  C_38
REMARK                            x       y       z     vdW  Elec       q    Type
REMARK                         _______ _______ _______ _____ _____    ______ ____
ROOT
ATOM      1  C   UNL     1      -3.521  -1.205   0.038  0.00  0.00    +0.044 C 
ATOM      2  C   UNL     1      -3.389  -2.541   0.081  0.00  0.00    +0.014 C 
ATOM      3  N   UNL     1      -4.495  -3.346   0.104  0.00  0.00    -0.321 N 
ATOM      4  C   UNL     1      -5.716  -2.846   0.469  0.00  0.00    +0.016 C 
ATOM      5  C   UNL     1      -5.947  -1.516   0.444  0.00  0.00    +0.024 C 
ATOM      6  C   UNL     1      -4.873  -0.556  -0.002  0.00  0.00    +0.097 C 
ATOM      7  C   UNL     1      -7.191  -0.989   0.832  0.00  0.00    +0.162 C 
ATOM      8  O   UNL     1      -7.369   0.213   0.788  0.00  0.00    -0.292 OA
ATOM      9  C   UNL     1      -8.305  -1.884   1.301  0.00  0.00    +0.088 C 
ATOM     10  C   UNL     1      -7.701  -3.143   1.932  0.00  0.00    +0.032 C 
ATOM     11  C   UNL     1      -6.790  -3.813   0.902  0.00  0.00    +0.059 C 
ATOM     12  C   UNL     1      -2.014  -3.158   0.107  0.00  0.00    +0.061 C 
ATOM     13  H   UNL     1      -4.409  -4.407  -0.173  0.00  0.00    +0.152 HD
ENDROOT
BRANCH  10  14
ATOM     14  C   UNL     1      -8.801  -4.093   2.330  0.00  0.00    -0.040 A 
ATOM     15  C   UNL     1      -9.677  -4.572   1.374  0.00  0.00    +0.008 A 
ATOM     16  C   UNL     1     -10.688  -5.444   1.734  0.00  0.00    +0.049 A 
ATOM     17  C   UNL     1     -10.825  -5.839   3.055  0.00  0.00    +0.161 A 
ATOM     18  C   UNL     1      -9.943  -5.357   4.017  0.00  0.00    +0.162 A 
ATOM     19  C   UNL     1      -8.929  -4.487   3.649  0.00  0.00    +0.053 A 
BRANCH  18  20
ATOM     20  O   UNL     1     -10.073  -5.742   5.315  0.00  0.00    -0.491 OA
ATOM     21  C   UNL     1      -9.132  -5.206   6.247  0.00  0.00    +0.277 C 
ENDBRANCH  18  20
BRANCH  17  22
ATOM     22  O   UNL     1     -11.819  -6.696   3.410  0.00  0.00    -0.491 OA
ATOM     23  C   UNL     1     -12.687  -7.150   2.370  0.00  0.00    +0.277 C 
ENDBRANCH  17  22
ENDBRANCH  10  14
BRANCH   6  24
ATOM     24  C   UNL     1      -5.164  -0.108  -1.411  0.00  0.00    +0.002 A 
ATOM     25  C   UNL     1      -5.414   1.141  -1.875  0.00  0.00    +0.012 A 
ATOM     26  C   UNL     1      -5.657   1.319  -3.224  0.00  0.00    +0.008 A 
ATOM     27  C   UNL     1      -5.638   0.239  -4.043  0.00  0.00    +0.045 A 
ATOM     28  S   UNL     1      -5.262  -1.083  -2.904  0.00  0.00    -0.101 S 
ENDBRANCH   6  24
BRANCH   1  30
ATOM     29  N   UNL     1      -1.733  -0.131  -1.137  0.00  0.00    -0.281 N 
ATOM     30  C   UNL     1      -2.360  -0.393   0.027  0.00  0.00    +0.247 C 
ATOM     31  O   UNL     1      -1.929   0.068   1.068  0.00  0.00    -0.270 OA
ATOM     32  H   UNL     1      -2.172  -0.469  -2.087  0.00  0.00    +0.155 HD
BRANCH  29  39
ATOM     33  C   UNL     1      -1.017   1.312  -3.482  0.00  0.00    +0.045 C 
ATOM     34  C   UNL     1      -0.135   1.289  -2.260  0.00  0.00    -0.029 A 
ATOM     35  C   UNL     1       1.062   1.977  -2.259  0.00  0.00    +0.005 A 
ATOM     36  C   UNL     1       1.872   1.957  -1.138  0.00  0.00    +0.000 A 
ATOM     37  C   UNL     1       1.486   1.247  -0.015  0.00  0.00    +0.002 A 
ATOM     38  C   UNL     1       0.290   0.557  -0.010  0.00  0.00    +0.023 A 
ATOM     39  C   UNL     1      -0.523   0.572  -1.137  0.00  0.00    +0.037 A 
ENDBRANCH  29  39
ENDBRANCH   1  30
TORSDOF 6
