REMARK  Name = ZINC30972137
REMARK  7 active torsions:
REMARK  status: ('A' for Active; 'I' for Inactive)
REMARK    1  A    between atoms: C_1  and  C_2
REMARK    2  A    between atoms: C_2  and  C_24
REMARK    3  A    between atoms: N_5  and  C_9
REMARK    4  A    between atoms: C_9  and  C_10
REMARK    5  A    between atoms: N_15  and  C_16
REMARK    6  A    between atoms: C_16  and  C_17
REMARK    7  A    between atoms: C_17  and  C_18
REMARK                            x       y       z     vdW  Elec       q    Type
REMARK                         _______ _______ _______ _____ _____    ______ ____
ROOT
ATOM      1  C   UNL     1       2.905   4.505   1.430  0.00  0.00    +0.047 C 
ATOM      2  C   UNL     1       2.448   4.209   0.001  0.00  0.00    +0.135 C 
ATOM      3  C   UNL     1       2.299   5.492  -0.792  0.00  0.00    +0.251 C 
ATOM      4  O   UNL     1       1.547   6.415  -0.558  0.00  0.00    -0.272 OA
ATOM      5  N   UNL     1       3.174   5.395  -1.812  0.00  0.00    -0.215 N 
ATOM      6  C   UNL     1       3.849   4.240  -1.774  0.00  0.00    +0.310 C 
ATOM      7  O   UNL     1       4.694   3.924  -2.588  0.00  0.00    -0.252 OA
ATOM      8  N   UNL     1       3.487   3.467  -0.733  0.00  0.00    -0.281 N 
ATOM      9  H   UNL     1       3.809   2.477  -0.380  0.00  0.00    +0.152 HD
ENDROOT
BRANCH   2  10
ATOM     10  C   UNL     1       1.153   3.438   0.010  0.00  0.00    -0.013 A 
ATOM     11  C   UNL     1      -0.053   4.113   0.025  0.00  0.00    +0.009 A 
ATOM     12  C   UNL     1      -1.242   3.408   0.032  0.00  0.00    +0.041 A 
ATOM     13  C   UNL     1      -1.226   2.024   0.019  0.00  0.00    +0.158 A 
ATOM     14  C   UNL     1      -0.016   1.347   0.009  0.00  0.00    +0.159 A 
ATOM     15  C   UNL     1       1.172   2.056   0.002  0.00  0.00    +0.047 A 
ATOM     16  F   UNL     1       0.002  -0.004   0.002  0.00  0.00    -0.202 F 
ATOM     17  F   UNL     1      -2.387   1.335   0.021  0.00  0.00    -0.202 F 
ENDBRANCH   2  10
BRANCH   5  18
ATOM     18  C   UNL     1       3.365   6.426  -2.835  0.00  0.00    +0.214 C 
BRANCH  18  19
ATOM     19  C   UNL     1       2.429   6.168  -3.987  0.00  0.00    +0.238 C 
ATOM     20  O   UNL     1       1.677   5.218  -3.957  0.00  0.00    -0.274 OA
ATOM     21  N   UNL     1       2.427   6.995  -5.052  0.00  0.00    -0.239 N 
ATOM     22  C   UNL     1       1.590   6.765  -6.083  0.00  0.00    +0.306 C 
ATOM     23  O   UNL     1       0.836   5.812  -6.052  0.00  0.00    -0.252 OA
ATOM     24  N   UNL     1       1.589   7.592  -7.147  0.00  0.00    -0.299 N 
ATOM     25  H   UNL     1       3.109   7.858  -5.079  0.00  0.00    +0.159 HD
ATOM     26  H   UNL     1       2.271   8.454  -7.174  0.00  0.00    +0.150 HD
BRANCH  24  27
ATOM     27  C   UNL     1       0.679   7.342  -8.268  0.00  0.00    +0.110 C 
BRANCH  27  28
ATOM     28  C   UNL     1       0.877   8.419  -9.336  0.00  0.00    +0.049 C 
BRANCH  28  29
ATOM     29  C   UNL     1      -0.059   8.162 -10.489  0.00  0.00    -0.072 C 
ATOM     30  C   UNL     1      -1.194   8.783 -10.498  0.00  0.00    -0.028 C 
ATOM     31  C   UNL     1      -2.231   8.622 -11.571  0.00  0.00    +0.027 C 
ATOM     32  C   UNL     1      -1.607   7.989 -12.817  0.00  0.00    +0.004 C 
ATOM     33  C   UNL     1      -0.817   6.747 -12.386  0.00  0.00    +0.005 C 
ATOM     34  C   UNL     1       0.386   7.207 -11.557  0.00  0.00    +0.030 C 
ENDBRANCH  28  29
ENDBRANCH  27  28
ENDBRANCH  24  27
ENDBRANCH  18  19
ENDBRANCH   5  18
TORSDOF 6
