REMARK  Name = ZINC05081711
REMARK  6 active torsions:
REMARK  status: ('A' for Active; 'I' for Inactive)
REMARK    1  A    between atoms: C_1  and  C_2
REMARK    2  A    between atoms: C_5  and  C_8
REMARK    3  A    between atoms: N_10  and  C_11
REMARK    4  A    between atoms: C_12  and  N_25
REMARK    5  A    between atoms: C_14  and  S_19
REMARK    6  A    between atoms: S_19  and  C_20
REMARK                            x       y       z     vdW  Elec       q    Type
REMARK                         _______ _______ _______ _____ _____    ______ ____
ROOT
ATOM      1  C   UNL     1      -0.062   4.468   0.023  0.00  0.00    +0.139 A 
ATOM      2  C   UNL     1      -1.234   3.718   0.021  0.00  0.00    +0.146 A 
ATOM      3  N   UNL     1      -1.166   2.382   0.005  0.00  0.00    -0.207 NA
ATOM      4  C   UNL     1      -0.006   1.758   0.002  0.00  0.00    +0.171 A 
ATOM      5  N   UNL     1       1.170   2.445   0.004  0.00  0.00    -0.300 N 
ATOM      6  H   UNL     1       2.038   1.948  -0.002  0.00  0.00    +0.171 HD
ATOM      7  C   UNL     1       1.168   3.794   0.014  0.00  0.00    +0.275 A 
ATOM      8  O   UNL     1       2.218   4.418   0.015  0.00  0.00    -0.266 OA
ENDROOT
BRANCH   1  11
ATOM      9  C   UNL     1       0.462   6.562   1.042  0.00  0.00    +0.248 C 
ATOM     10  O   UNL     1       1.093   5.972   1.898  0.00  0.00    -0.270 OA
ATOM     11  N   UNL     1      -0.111   5.875   0.033  0.00  0.00    -0.274 N 
ATOM     12  H   UNL     1      -0.556   6.351  -0.686  0.00  0.00    +0.155 HD
BRANCH   9  17
ATOM     13  C   UNL     1      -0.082  12.285   1.300  0.00  0.00    +0.044 C 
ATOM     14  C   UNL     1       0.061  10.786   1.232  0.00  0.00    -0.050 A 
ATOM     15  C   UNL     1       0.780  10.118   2.207  0.00  0.00    +0.004 A 
ATOM     16  C   UNL     1       0.914   8.746   2.151  0.00  0.00    +0.013 A 
ATOM     17  C   UNL     1       0.322   8.032   1.108  0.00  0.00    +0.037 A 
ATOM     18  C   UNL     1      -0.397   8.713   0.124  0.00  0.00    +0.013 A 
ATOM     19  C   UNL     1      -0.528  10.084   0.195  0.00  0.00    +0.004 A 
ENDBRANCH   9  17
ENDBRANCH   1  11
BRANCH   2  20
ATOM     20  N   UNL     1      -2.464   4.351   0.029  0.00  0.00    -0.341 N 
ATOM     21  H   UNL     1      -2.511   5.319   0.037  0.00  0.00    +0.144 HD
ATOM     22  H   UNL     1      -3.279   3.825   0.028  0.00  0.00    +0.144 HD
ENDBRANCH   2  20
BRANCH   4  23
ATOM     23  S   UNL     1       0.024  -0.004  -0.012  0.00  0.00    -0.084 S 
BRANCH  23  24
ATOM     24  C   UNL     1      -1.752  -0.349  -0.009  0.00  0.00    +0.054 C 
ATOM     25  C   UNL     1      -2.375   0.094   1.331  0.00  0.00    +0.014 C 
ATOM     26  C   UNL     1      -3.443  -0.989   1.629  0.00  0.00    +0.001 C 
ATOM     27  C   UNL     1      -2.757  -2.290   1.143  0.00  0.00    +0.001 C 
ATOM     28  C   UNL     1      -1.995  -1.863  -0.129  0.00  0.00    +0.014 C 
ENDBRANCH  23  24
ENDBRANCH   4  23
TORSDOF 5
