REMARK  Name = ZINC20138127
REMARK  6 active torsions:
REMARK  status: ('A' for Active; 'I' for Inactive)
REMARK    1  A    between atoms: C_4  and  C_7
REMARK    2  A    between atoms: C_7  and  C_8
REMARK    3  A    between atoms: C_8  and  C_37
REMARK    4  A    between atoms: C_13  and  C_16
REMARK    5  A    between atoms: C_19  and  N_22
REMARK    6  A    between atoms: N_27  and  C_30
REMARK                            x       y       z     vdW  Elec       q    Type
REMARK                         _______ _______ _______ _____ _____    ______ ____
ROOT
ATOM      1  C   UNL     1       4.176  -1.028   1.372  0.00  0.00    +0.138 C 
ATOM      2  C   UNL     1       5.630  -1.543   1.398  0.00  0.00    +0.121 C 
ATOM      3  C   UNL     1       6.497  -0.276   1.626  0.00  0.00    +0.111 C 
ATOM      4  C   UNL     1       5.487   0.888   1.700  0.00  0.00    +0.098 C 
ATOM      5  N   UNL     1       4.213   0.245   2.137  0.00  0.00    -0.293 NA
ATOM      6  C   UNL     1       7.108  -0.511   2.989  0.00  0.00    +0.232 C 
ATOM      7  O   UNL     1       7.864   0.247   3.559  0.00  0.00    -0.274 OA
ATOM      8  N   UNL     1       6.684  -1.686   3.469  0.00  0.00    -0.210 N 
ATOM      9  C   UNL     1       5.846  -2.362   2.650  0.00  0.00    +0.232 C 
ATOM     10  O   UNL     1       5.345  -3.443   2.875  0.00  0.00    -0.274 OA
ATOM     11  H   UNL     1       3.422   0.828   1.907  0.00  0.00    +0.124 HD
ENDROOT
BRANCH   8  12
ATOM     12  C   UNL     1       7.080  -2.182   4.720  0.00  0.00    +0.044 A 
ATOM     13  C   UNL     1       6.152  -2.307   5.744  0.00  0.00    +0.027 A 
ATOM     14  C   UNL     1       6.544  -2.796   6.975  0.00  0.00    +0.040 A 
ATOM     15  C   UNL     1       7.863  -3.162   7.187  0.00  0.00    +0.124 A 
ATOM     16  C   UNL     1       8.790  -3.038   6.166  0.00  0.00    +0.040 A 
ATOM     17  C   UNL     1       8.400  -2.555   4.932  0.00  0.00    +0.027 A 
ATOM     18  F   UNL     1       8.245  -3.640   8.391  0.00  0.00    -0.205 F 
ENDBRANCH   8  12
BRANCH   4  19
ATOM     19  C   UNL     1       5.926   1.901   2.726  0.00  0.00    -0.030 A 
ATOM     20  C   UNL     1       5.697   1.669   4.069  0.00  0.00    +0.007 A 
ATOM     21  C   UNL     1       6.100   2.598   5.010  0.00  0.00    +0.033 A 
ATOM     22  C   UNL     1       6.734   3.759   4.607  0.00  0.00    +0.126 A 
ATOM     23  C   UNL     1       6.965   3.990   3.264  0.00  0.00    +0.033 A 
ATOM     24  C   UNL     1       6.565   3.059   2.324  0.00  0.00    +0.007 A 
BRANCH  22  25
ATOM     25  N   UNL     1       7.165   4.754   5.614  0.00  0.00    +0.056 N 
ATOM     26  O   UNL     1       6.963   4.552   6.789  0.00  0.00    -0.126 OA
ATOM     27  O   UNL     1       7.719   5.769   5.262  0.00  0.00    -0.126 OA
ENDBRANCH  22  25
ENDBRANCH   4  19
BRANCH   1  28
ATOM     28  C   UNL     1       3.255  -2.015   2.040  0.00  0.00    +0.377 C 
ATOM     29  O   UNL     1       3.136  -3.141   1.587  0.00  0.00    -0.244 OA
ATOM     30  O   UNL     1       2.628  -1.688   3.034  0.00  0.00    -0.244 OA
ENDBRANCH   1  28
BRANCH   1  31
ATOM     31  C   UNL     1       3.727  -0.771  -0.068  0.00  0.00    +0.069 C 
BRANCH  31  35
ATOM     32  C   UNL     1      -0.072   1.183  -0.051  0.00  0.00    +0.000 A 
ATOM     33  C   UNL     1       1.091   1.931  -0.034  0.00  0.00    +0.000 A 
ATOM     34  C   UNL     1       2.320   1.298  -0.039  0.00  0.00    +0.004 A 
ATOM     35  C   UNL     1       2.387  -0.082  -0.061  0.00  0.00    -0.045 A 
ATOM     36  C   UNL     1       1.225  -0.830  -0.077  0.00  0.00    +0.004 A 
ATOM     37  C   UNL     1      -0.005  -0.198  -0.073  0.00  0.00    +0.000 A 
ENDBRANCH  31  35
ENDBRANCH   1  31
TORSDOF 6
