REMARK  Name = ZINC61862047
REMARK  4 active torsions:
REMARK  status: ('A' for Active; 'I' for Inactive)
REMARK    1  A    between atoms: C_1  and  N_2
REMARK    2  A    between atoms: N_2  and  C_3
REMARK    3  A    between atoms: C_3  and  C_5
REMARK    4  A    between atoms: C_3  and  C_12
REMARK                            x       y       z     vdW  Elec       q    Type
REMARK                         _______ _______ _______ _____ _____    ______ ____
ROOT
ATOM      1  C   UNL     1      -1.376  -0.512   0.012  0.00  0.00    +0.010 C 
ENDROOT
BRANCH   1   2
ATOM      2  C   UNL     1      -2.067  -0.116  -1.267  0.00  0.00    -0.037 A 
ATOM      3  C   UNL     1      -1.326   0.131  -2.409  0.00  0.00    +0.009 A 
ATOM      4  C   UNL     1      -1.960   0.493  -3.575  0.00  0.00    -0.017 A 
ATOM      5  C   UNL     1      -3.344   0.615  -3.625  0.00  0.00    +0.038 A 
ATOM      6  C   UNL     1      -4.085   0.365  -2.472  0.00  0.00    +0.043 A 
ATOM      7  C   UNL     1      -3.446  -0.004  -1.304  0.00  0.00    +0.045 A 
ATOM      8 CL   UNL     1      -4.378  -0.321   0.126  0.00  0.00    -0.083 Cl
ATOM      9  N   UNL     1      -3.749   0.989  -4.906  0.00  0.00    -0.285 N 
ATOM     10  C   UNL     1      -2.711   1.132  -5.747  0.00  0.00    +0.222 C 
ATOM     11  O   UNL     1      -2.769   1.449  -6.916  0.00  0.00    -0.275 OA
ATOM     12  C   UNL     1      -1.455   0.823  -4.961  0.00  0.00    +0.133 C 
ATOM     13  H   UNL     1      -4.675   1.129  -5.161  0.00  0.00    +0.155 HD
ENDBRANCH   1   2
BRANCH   1  14
ATOM     14  C   UNL     1      -1.356  -2.015   0.128  0.00  0.00    +0.032 A 
ATOM     15  C   UNL     1      -0.153  -2.670   0.314  0.00  0.00    +0.023 A 
ATOM     16  C   UNL     1      -0.146  -4.052   0.419  0.00  0.00    +0.018 A 
ATOM     17  C   UNL     1      -1.355  -4.727   0.333  0.00  0.00    +0.036 A 
ATOM     18  C   UNL     1      -2.518  -4.004   0.146  0.00  0.00    +0.126 A 
ATOM     19  N   UNL     1      -2.487  -2.689   0.056  0.00  0.00    -0.260 NA
ATOM     20 BR   UNL     1      -1.410  -6.613   0.468  0.00  0.00    -0.049 Br
ENDBRANCH   1  14
BRANCH   1  22
ATOM     21  C   UNL     1      -0.018   1.465   0.010  0.00  0.00    -0.099 C 
ATOM     22  N   UNL     1       0.002  -0.004   0.002  0.00  0.00    +0.385 N 
ATOM     23  H   UNL     1       0.474  -0.330  -0.828  0.00  0.00    -0.085 HD
ATOM     24  H   UNL     1       0.490  -0.338   0.820  0.00  0.00    -0.085 HD
ENDBRANCH   1  22
TORSDOF 3
