REMARK  Name = ZINC00719771
REMARK  6 active torsions:
REMARK  status: ('A' for Active; 'I' for Inactive)
REMARK    1  A    between atoms: C_1  and  C_2
REMARK    2  A    between atoms: C_2  and  C_32
REMARK    3  A    between atoms: C_6  and  C_22
REMARK    4  A    between atoms: C_8  and  C_20
REMARK    5  A    between atoms: C_9  and  N_19
REMARK    6  A    between atoms: N_10  and  C_11
REMARK                            x       y       z     vdW  Elec       q    Type
REMARK                         _______ _______ _______ _____ _____    ______ ____
ROOT
ATOM      1  C   UNL     1      -0.746   3.072   2.173  0.00  0.00    +0.011 C 
ATOM      2  C   UNL     1      -1.156   3.287   0.715  0.00  0.00    -0.023 C 
ATOM      3  C   UNL     1      -0.060   4.063  -0.018  0.00  0.00    +0.058 C 
ATOM      4  C   UNL     1       1.222   3.267  -0.002  0.00  0.00    +0.025 C 
ATOM      5  C   UNL     1       1.201   1.917   0.001  0.00  0.00    +0.025 C 
ATOM      6  C   UNL     1       2.483   1.123  -0.008  0.00  0.00    +0.097 C 
ATOM      7  C   UNL     1       3.647   1.968   0.418  0.00  0.00    +0.077 C 
ATOM      8  C   UNL     1       3.570   3.324   0.406  0.00  0.00    +0.107 C 
ATOM      9  N   UNL     1       2.410   3.947   0.006  0.00  0.00    -0.255 N 
ATOM     10  C   UNL     1      -0.014   1.211   0.009  0.00  0.00    +0.162 C 
ATOM     11  O   UNL     1       0.002  -0.004   0.002  0.00  0.00    -0.292 OA
ATOM     12  C   UNL     1      -1.335   1.931   0.019  0.00  0.00    +0.086 C 
ATOM     13  C   UNL     1      -2.467   4.073   0.660  0.00  0.00    +0.011 C 
ENDROOT
BRANCH   9  14
ATOM     14  C   UNL     1       2.446   5.289  -0.397  0.00  0.00    +0.110 A 
ATOM     15  C   UNL     1       2.675   5.611  -1.730  0.00  0.00    +0.148 A 
ATOM     16  C   UNL     1       2.703   6.937  -2.124  0.00  0.00    +0.040 A 
ATOM     17  C   UNL     1       2.516   7.941  -1.192  0.00  0.00    +0.006 A 
ATOM     18  C   UNL     1       2.294   7.625   0.136  0.00  0.00    +0.040 A 
ATOM     19  C   UNL     1       2.258   6.302   0.537  0.00  0.00    +0.148 A 
ATOM     20  F   UNL     1       2.041   5.994   1.834  0.00  0.00    -0.203 F 
ATOM     21  F   UNL     1       2.864   4.631  -2.639  0.00  0.00    -0.203 F 
ENDBRANCH   9  14
BRANCH   6  22
ATOM     22  C   UNL     1       2.732   0.603  -1.400  0.00  0.00    -0.033 A 
ATOM     23  C   UNL     1       2.819  -0.758  -1.625  0.00  0.00    +0.004 A 
ATOM     24  C   UNL     1       3.047  -1.236  -2.902  0.00  0.00    +0.002 A 
ATOM     25  C   UNL     1       3.190  -0.352  -3.955  0.00  0.00    +0.020 A 
ATOM     26  C   UNL     1       3.103   1.011  -3.731  0.00  0.00    +0.041 A 
ATOM     27  C   UNL     1       2.869   1.488  -2.453  0.00  0.00    +0.024 A 
ATOM     28 CL   UNL     1       3.281   2.121  -5.053  0.00  0.00    -0.084 Cl
ENDBRANCH   6  22
BRANCH   8  29
ATOM     29  N   UNL     1       4.654   4.075   0.794  0.00  0.00    -0.345 N 
ATOM     30  H   UNL     1       4.600   5.044   0.786  0.00  0.00    +0.144 HD
ATOM     31  H   UNL     1       5.472   3.637   1.077  0.00  0.00    +0.144 HD
ENDBRANCH   8  29
BRANCH   7  32
ATOM     32  C   UNL     1       4.859   1.335   0.843  0.00  0.00    +0.099 C 
ATOM     33  N   UNL     1       5.820   0.832   1.181  0.00  0.00    -0.191 NA
ENDBRANCH   7  32
TORSDOF 4
