REMARK  Name = ZINC36109019
REMARK  13 active torsions:
REMARK  status: ('A' for Active; 'I' for Inactive)
REMARK    1  A    between atoms: C_1  and  C_2
REMARK    2  A    between atoms: C_5  and  S_8
REMARK    3  A    between atoms: S_8  and  N_11
REMARK    4  A    between atoms: N_11  and  C_12
REMARK    5  A    between atoms: N_11  and  C_33
REMARK    6  A    between atoms: C_12  and  C_13
REMARK    7  A    between atoms: N_15  and  C_16
REMARK    8  A    between atoms: C_16  and  C_18
REMARK    9  A    between atoms: C_16  and  C_19
REMARK   10  A    between atoms: C_22  and  N_25
REMARK   11  A    between atoms: C_29  and  C_32
REMARK   12  A    between atoms: C_36  and  O_39
REMARK   13  A    between atoms: O_39  and  C_40
REMARK                            x       y       z     vdW  Elec       q    Type
REMARK                         _______ _______ _______ _____ _____    ______ ____
ROOT
ATOM      1  C   UNL     1       2.330  -5.265   1.301  0.00  0.00    +0.227 C 
ENDROOT
BRANCH   1   2
ATOM      2  C   UNL     1       2.059  -6.692   1.701  0.00  0.00    +0.233 C 
ATOM      3  O   UNL     1       1.439  -7.423   0.959  0.00  0.00    -0.274 OA
ATOM      4  N   UNL     1       2.507  -7.156   2.885  0.00  0.00    -0.307 N 
ATOM      5  H   UNL     1       3.003  -6.572   3.479  0.00  0.00    +0.149 HD
BRANCH   4   6
ATOM      6  C   UNL     1       2.244  -8.544   3.274  0.00  0.00    +0.100 C 
ATOM      7  C   UNL     1       0.863  -8.638   3.926  0.00  0.00    +0.033 C 
BRANCH   6   8
ATOM      8  C   UNL     1       3.294  -8.998   4.255  0.00  0.00    -0.027 A 
ATOM      9  C   UNL     1       3.733  -8.137   5.243  0.00  0.00    +0.007 A 
ATOM     10  C   UNL     1       4.696  -8.550   6.144  0.00  0.00    +0.023 A 
ATOM     11  C   UNL     1       5.223  -9.832   6.055  0.00  0.00    +0.030 A 
ATOM     12  C   UNL     1       4.779 -10.695   5.061  0.00  0.00    +0.023 A 
ATOM     13  C   UNL     1       3.812 -10.277   4.168  0.00  0.00    +0.007 A 
BRANCH  11  14
ATOM     14  N   UNL     1       6.196 -10.253   6.964  0.00  0.00    -0.330 N 
ATOM     15  C   UNL     1       6.854 -11.557   6.806  0.00  0.00    +0.105 C 
ATOM     16  C   UNL     1       8.371 -11.347   6.801  0.00  0.00    +0.019 C 
ATOM     17  C   UNL     1       8.780 -10.586   8.064  0.00  0.00    +0.006 C 
ATOM     18  C   UNL     1       8.103  -9.214   8.077  0.00  0.00    +0.003 C 
ATOM     19  C   UNL     1       6.587  -9.397   8.092  0.00  0.00    +0.108 C 
ATOM     20  C   UNL     1       8.539  -8.440   9.323  0.00  0.00    +0.009 C 
ENDBRANCH  11  14
ENDBRANCH   6   8
ENDBRANCH   4   6
ENDBRANCH   1   2
BRANCH   1  21
ATOM     21  N   UNL     1       1.744  -5.008  -0.017  0.00  0.00    -0.194 N 
BRANCH  21  22
ATOM     22  C   UNL     1       2.462  -5.328  -1.175  0.00  0.00    +0.052 A 
ATOM     23  C   UNL     1       3.708  -4.758  -1.400  0.00  0.00    +0.028 A 
ATOM     24  C   UNL     1       4.416  -5.074  -2.543  0.00  0.00    +0.047 A 
ATOM     25  C   UNL     1       3.882  -5.961  -3.467  0.00  0.00    +0.120 A 
ATOM     26  C   UNL     1       2.637  -6.530  -3.243  0.00  0.00    +0.047 A 
ATOM     27  C   UNL     1       1.931  -6.220  -2.098  0.00  0.00    +0.028 A 
BRANCH  25  28
ATOM     28  O   UNL     1       4.580  -6.272  -4.592  0.00  0.00    -0.495 OA
ATOM     29  C   UNL     1       3.970  -7.192  -5.499  0.00  0.00    +0.277 C 
ENDBRANCH  25  28
ENDBRANCH  21  22
BRANCH  21  30
ATOM     30  S   UNL     1       0.234  -4.340  -0.137  0.00  0.00    +0.075 S 
ATOM     31  O   UNL     1      -0.484  -4.749   1.019  0.00  0.00    -0.150 OA
ATOM     32  O   UNL     1      -0.226  -4.608  -1.455  0.00  0.00    -0.150 OA
BRANCH  30  37
ATOM     33  C   UNL     1       0.890   1.644   0.273  0.00  0.00    +0.044 C 
ATOM     34  C   UNL     1       0.726   0.150   0.171  0.00  0.00    -0.050 A 
ATOM     35  C   UNL     1       0.776  -0.468  -1.065  0.00  0.00    +0.005 A 
ATOM     36  C   UNL     1       0.626  -1.839  -1.159  0.00  0.00    +0.029 A 
ATOM     37  C   UNL     1       0.426  -2.592  -0.017  0.00  0.00    +0.109 A 
ATOM     38  C   UNL     1       0.377  -1.975   1.219  0.00  0.00    +0.029 A 
ATOM     39  C   UNL     1       0.532  -0.604   1.313  0.00  0.00    +0.005 A 
ENDBRANCH  30  37
ENDBRANCH  21  30
ENDBRANCH   1  21
TORSDOF 9
