REMARK  Name = ZINC51606864
REMARK  8 active torsions:
REMARK  status: ('A' for Active; 'I' for Inactive)
REMARK    1  A    between atoms: C_1  and  C_2
REMARK    2  A    between atoms: C_4  and  C_21
REMARK    3  A    between atoms: C_6  and  S_8
REMARK    4  A    between atoms: S_8  and  C_9
REMARK    5  A    between atoms: C_9  and  C_11
REMARK    6  A    between atoms: C_9  and  C_17
REMARK    7  A    between atoms: C_17  and  C_19
REMARK    8  A    between atoms: C_17  and  N_20
REMARK                            x       y       z     vdW  Elec       q    Type
REMARK                         _______ _______ _______ _____ _____    ______ ____
ROOT
ATOM      1  C   UNL     1      -0.020  -1.436   3.815  0.00  0.00    +0.076 C 
ENDROOT
BRANCH   1   2
ATOM      2  C   UNL     1       0.071  -2.127   5.151  0.00  0.00    +0.003 A 
ATOM      3  C   UNL     1      -0.769  -2.047   6.213  0.00  0.00    +0.027 A 
ATOM      4  C   UNL     1      -0.484  -2.780   7.350  0.00  0.00    +0.025 A 
ATOM      5  C   UNL     1       0.627  -3.557   7.370  0.00  0.00    +0.060 A 
ATOM      6  S   UNL     1       1.307  -3.271   5.744  0.00  0.00    -0.099 S 
ATOM      7 BR   UNL     1      -1.625  -2.698   8.855  0.00  0.00    -0.050 Br
ENDBRANCH   1   2
BRANCH   1   8
ATOM      8  C   UNL     1       1.226  -0.573   3.603  0.00  0.00    -0.060 C 
ATOM      9  C   UNL     1       1.251   0.551   4.640  0.00  0.00    -0.013 C 
BRANCH   8  10
ATOM     10  N   UNL     1       1.195   0.007   2.253  0.00  0.00    +0.381 N 
ATOM     11  H   UNL     1       0.326   0.501   2.119  0.00  0.00    -0.090 HD
ATOM     12  H   UNL     1       1.967   0.648   2.145  0.00  0.00    -0.090 HD
ATOM     13  H   UNL     1       1.272  -0.730   1.569  0.00  0.00    -0.090 HD
ENDBRANCH   8  10
ENDBRANCH   1   8
BRANCH   1  14
ATOM     14  S   UNL     1      -0.127  -2.678   2.498  0.00  0.00    -0.079 S 
BRANCH  14  20
ATOM     15  C   UNL     1      -4.466  -3.162   5.168  0.00  0.00    +0.066 C 
ATOM     16  C   UNL     1      -3.636  -3.584   3.983  0.00  0.00    +0.043 A 
ATOM     17  C   UNL     1      -4.113  -4.538   3.097  0.00  0.00    +0.046 A 
ATOM     18  C   UNL     1      -3.318  -4.898   2.020  0.00  0.00    +0.043 A 
ATOM     19  N   UNL     1      -2.136  -4.325   1.870  0.00  0.00    -0.227 NA
ATOM     20  C   UNL     1      -1.709  -3.416   2.736  0.00  0.00    +0.189 A 
ATOM     21  N   UNL     1      -2.447  -3.046   3.773  0.00  0.00    -0.227 NA
ATOM     22  C   UNL     1      -3.796  -5.931   1.032  0.00  0.00    +0.066 C 
ENDBRANCH  14  20
ENDBRANCH   1  14
TORSDOF 5
