REMARK  Name = ZINC39696159
REMARK  9 active torsions:
REMARK  status: ('A' for Active; 'I' for Inactive)
REMARK    1  A    between atoms: C_1  and  C_2
REMARK    2  A    between atoms: C_2  and  C_3
REMARK    3  A    between atoms: C_6  and  C_9
REMARK    4  A    between atoms: C_9  and  C_11
REMARK    5  A    between atoms: C_9  and  N_12
REMARK    6  A    between atoms: C_13  and  C_15
REMARK    7  A    between atoms: C_26  and  C_28
REMARK    8  A    between atoms: C_30  and  O_35
REMARK    9  A    between atoms: O_35  and  C_36
REMARK                            x       y       z     vdW  Elec       q    Type
REMARK                         _______ _______ _______ _____ _____    ______ ____
ROOT
ATOM      1  C   UNL     1       6.508  -0.557  -6.189  0.00  0.00    +0.100 C 
ATOM      2  C   UNL     1       6.112   0.894  -5.838  0.00  0.00    +0.121 C 
ATOM      3  N   UNL     1       6.815   1.727  -6.842  0.00  0.00    -0.296 N 
ATOM      4  C   UNL     1       6.703   0.956  -8.104  0.00  0.00    +0.115 C 
ATOM      5  C   UNL     1       6.895  -0.513  -7.677  0.00  0.00    -0.004 C 
ATOM      6  C   UNL     1       5.977  -1.421  -8.489  0.00  0.00    -0.010 C 
ATOM      7  C   UNL     1       6.417  -1.405  -9.956  0.00  0.00    -0.082 C 
ATOM      8  N   UNL     1       7.808  -1.865 -10.056  0.00  0.00    +0.379 N 
ATOM      9  C   UNL     1       8.695  -0.933  -9.349  0.00  0.00    -0.082 C 
ATOM     10  C   UNL     1       8.351  -0.929  -7.857  0.00  0.00    -0.010 C 
ATOM     11  C   UNL     1       7.419   2.917  -6.652  0.00  0.00    +0.248 C 
ATOM     12  O   UNL     1       7.872   3.527  -7.600  0.00  0.00    -0.270 OA
ATOM     13  H   UNL     1       7.888  -2.782  -9.643  0.00  0.00    -0.086 HD
ATOM     14  H   UNL     1       8.076  -1.912 -11.027  0.00  0.00    -0.086 HD
ENDROOT
BRANCH  11  15
ATOM     15  C   UNL     1       7.531   3.479  -5.289  0.00  0.00    +0.054 A 
ATOM     16  C   UNL     1       6.499   3.293  -4.368  0.00  0.00    +0.059 A 
ATOM     17  C   UNL     1       6.611   3.822  -3.094  0.00  0.00    +0.121 A 
ATOM     18  C   UNL     1       7.747   4.535  -2.734  0.00  0.00    +0.047 A 
ATOM     19  C   UNL     1       8.770   4.721  -3.644  0.00  0.00    +0.019 A 
ATOM     20  C   UNL     1       8.672   4.193  -4.917  0.00  0.00    +0.030 A 
ATOM     21 BR   UNL     1      10.078   4.444  -6.157  0.00  0.00    -0.050 Br
BRANCH  17  22
ATOM     22  O   UNL     1       5.608   3.643  -2.194  0.00  0.00    -0.495 OA
ATOM     23  C   UNL     1       5.790   4.216  -0.897  0.00  0.00    +0.277 C 
ENDBRANCH  17  22
ENDBRANCH  11  15
BRANCH   1  25
ATOM     24  N   UNL     1       5.554  -2.774  -5.646  0.00  0.00    -0.308 N 
ATOM     25  C   UNL     1       5.340  -1.486  -5.978  0.00  0.00    +0.219 C 
ATOM     26  O   UNL     1       4.207  -1.073  -6.107  0.00  0.00    -0.275 OA
ATOM     27  H   UNL     1       6.461  -3.104  -5.543  0.00  0.00    +0.149 HD
BRANCH  24  28
ATOM     28  C   UNL     1       4.419  -3.677  -5.441  0.00  0.00    +0.100 C 
ATOM     29  C   UNL     1       3.974  -4.251  -6.788  0.00  0.00    +0.033 C 
BRANCH  28  33
ATOM     30  C   UNL     1       5.583  -6.868  -2.851  0.00  0.00    -0.048 A 
ATOM     31  C   UNL     1       4.333  -6.293  -2.720  0.00  0.00    +0.004 A 
ATOM     32  C   UNL     1       3.956  -5.260  -3.558  0.00  0.00    +0.006 A 
ATOM     33  C   UNL     1       4.830  -4.802  -4.527  0.00  0.00    -0.027 A 
ATOM     34  C   UNL     1       6.081  -5.376  -4.657  0.00  0.00    +0.006 A 
ATOM     35  C   UNL     1       6.459  -6.406  -3.816  0.00  0.00    +0.004 A 
BRANCH  30  37
ATOM     36  C   UNL     1       6.665  -7.418  -0.688  0.00  0.00    +0.009 C 
ATOM     37  C   UNL     1       5.994  -7.993  -1.937  0.00  0.00    +0.032 C 
ENDBRANCH  30  37
ENDBRANCH  28  33
ENDBRANCH  24  28
ENDBRANCH   1  25
TORSDOF 6
