REMARK  Name = ZINC63280117
REMARK  9 active torsions:
REMARK  status: ('A' for Active; 'I' for Inactive)
REMARK    1  A    between atoms: C_1  and  O_2
REMARK    2  A    between atoms: O_2  and  C_3
REMARK    3  A    between atoms: C_6  and  C_9
REMARK    4  A    between atoms: C_15  and  C_16
REMARK    5  A    between atoms: N_18  and  C_19
REMARK    6  A    between atoms: C_19  and  C_20
REMARK    7  A    between atoms: C_20  and  C_21
REMARK    8  A    between atoms: C_24  and  O_30
REMARK    9  A    between atoms: O_30  and  C_31
REMARK                            x       y       z     vdW  Elec       q    Type
REMARK                         _______ _______ _______ _____ _____    ______ ____
ROOT
ATOM      1  C   UNL     1      -3.720  -6.397   1.341  0.00  0.00    +0.238 C 
ATOM      2  O   UNL     1      -3.508  -5.441   2.064  0.00  0.00    -0.271 OA
ATOM      3  N   UNL     1      -3.140  -7.585   1.606  0.00  0.00    -0.311 N 
ATOM      4  H   UNL     1      -3.309  -8.347   1.030  0.00  0.00    +0.149 HD
ENDROOT
BRANCH   1  10
ATOM      5  C   UNL     1      -5.554  -2.744   0.475  0.00  0.00    +0.159 C 
ATOM      6  N   UNL     1      -5.256  -4.114   0.933  0.00  0.00    -0.331 N 
ATOM      7  C   UNL     1      -5.248  -5.111   0.024  0.00  0.00    +0.020 C 
ATOM      8  C   UNL     1      -6.054  -4.847  -1.243  0.00  0.00    +0.121 C 
ATOM      9  S   UNL     1      -5.942  -3.001  -1.308  0.00  0.00    -0.128 S 
ATOM     10  C   UNL     1      -4.574  -6.262   0.222  0.00  0.00    +0.086 C 
ATOM     11  H   UNL     1      -5.069  -4.295   1.868  0.00  0.00    +0.147 HD
BRANCH   5  15
ATOM     12  C   UNL     1      -2.147  -0.208   0.943  0.00  0.00    +0.120 A 
ATOM     13  C   UNL     1      -3.425   0.332   0.973  0.00  0.00    +0.046 A 
ATOM     14  C   UNL     1      -4.524  -0.490   0.821  0.00  0.00    +0.010 A 
ATOM     15  C   UNL     1      -4.353  -1.850   0.640  0.00  0.00    -0.017 A 
ATOM     16  C   UNL     1      -3.081  -2.391   0.611  0.00  0.00    +0.010 A 
ATOM     17  C   UNL     1      -1.977  -1.572   0.756  0.00  0.00    +0.046 A 
BRANCH  12  19
ATOM     18  C   UNL     1      -1.314   1.993   1.281  0.00  0.00    +0.277 C 
ATOM     19  O   UNL     1      -1.064   0.599   1.092  0.00  0.00    -0.495 OA
ENDBRANCH  12  19
ENDBRANCH   5  15
ENDBRANCH   1  10
BRANCH   3  20
ATOM     20  C   UNL     1      -2.255  -7.725   2.765  0.00  0.00    +0.109 C 
BRANCH  20  21
ATOM     21  C   UNL     1      -1.734  -9.162   2.838  0.00  0.00    +0.052 C 
BRANCH  21  22
ATOM     22  C   UNL     1      -0.824  -9.306   4.030  0.00  0.00    -0.040 C 
ATOM     23  C   UNL     1      -1.161  -9.755   5.261  0.00  0.00    +0.002 A 
ATOM     24  C   UNL     1      -2.425 -10.224   5.837  0.00  0.00    +0.055 A 
ATOM     25  C   UNL     1      -2.462 -10.621   7.132  0.00  0.00    +0.121 A 
ATOM     26  C   UNL     1      -1.322 -10.601   7.955  0.00  0.00    +0.047 A 
ATOM     27  C   UNL     1      -0.115 -10.185   7.516  0.00  0.00    +0.029 A 
ATOM     28  C   UNL     1       0.039  -9.734   6.129  0.00  0.00    +0.043 A 
ATOM     29  N   UNL     1       1.075  -9.291   5.462  0.00  0.00    -0.380 N 
ATOM     30  C   UNL     1       0.653  -8.985   4.091  0.00  0.00    +0.144 C 
ATOM     31  H   UNL     1       1.973  -9.185   5.815  0.00  0.00    +0.160 HD
BRANCH  25  32
ATOM     32  O   UNL     1      -3.640 -11.053   7.653  0.00  0.00    -0.495 OA
ATOM     33  C   UNL     1      -3.633 -11.462   9.022  0.00  0.00    +0.277 C 
ENDBRANCH  25  32
ENDBRANCH  21  22
ENDBRANCH  20  21
ENDBRANCH   3  20
TORSDOF 7
