REMARK  Name = ZINC08967873
REMARK  8 active torsions:
REMARK  status: ('A' for Active; 'I' for Inactive)
REMARK    1  A    between atoms: C_4  and  C_7
REMARK    2  A    between atoms: C_7  and  C_9
REMARK    3  A    between atoms: C_7  and  S_24
REMARK    4  A    between atoms: C_9  and  N_10
REMARK    5  A    between atoms: C_11  and  C_13
REMARK    6  A    between atoms: N_15  and  N_16
REMARK    7  A    between atoms: C_17  and  C_19
REMARK    8  A    between atoms: S_24  and  C_27
REMARK                            x       y       z     vdW  Elec       q    Type
REMARK                         _______ _______ _______ _____ _____    ______ ____
ROOT
ATOM      1  N   UNL     1       2.108   1.143  -1.208  0.00  0.00    -0.305 N 
ATOM      2  C   UNL     1       3.392   1.487  -1.432  0.00  0.00    +0.301 C 
ATOM      3  O   UNL     1       3.980   2.188  -0.635  0.00  0.00    -0.265 OA
ATOM      4  H   UNL     1       1.639   0.582  -1.845  0.00  0.00    +0.149 HD
ENDROOT
BRANCH   2   5
ATOM      5  C   UNL     1       4.092   1.005  -2.662  0.00  0.00    +0.315 C 
ATOM      6  O   UNL     1       3.504   0.304  -3.458  0.00  0.00    -0.264 OA
ATOM      7  N   UNL     1       5.375   1.349  -2.885  0.00  0.00    -0.226 N 
ATOM      8  H   UNL     1       5.845   1.910  -2.248  0.00  0.00    +0.173 HD
BRANCH   7   9
ATOM      9  N   UNL     1       6.031   0.898  -4.038  0.00  0.00    -0.230 N 
ATOM     10  C   UNL     1       7.315   1.242  -4.261  0.00  0.00    +0.267 C 
ATOM     11  O   UNL     1       7.904   1.945  -3.462  0.00  0.00    -0.268 OA
ATOM     12  H   UNL     1       5.561   0.337  -4.675  0.00  0.00    +0.173 HD
BRANCH  10  13
ATOM     13  C   UNL     1       8.001   0.769  -5.468  0.00  0.00    +0.075 A 
ATOM     14  C   UNL     1       9.301   1.010  -5.884  0.00  0.00    +0.021 A 
ATOM     15  C   UNL     1       9.694   0.435  -7.067  0.00  0.00    +0.008 A 
ATOM     16  C   UNL     1       8.806  -0.319  -7.766  0.00  0.00    +0.046 A 
ATOM     17  S   UNL     1       7.378  -0.259  -6.785  0.00  0.00    -0.092 S 
ENDBRANCH  10  13
ENDBRANCH   7   9
ENDBRANCH   2   5
BRANCH   1  18
ATOM     18  C   UNL     1       1.423   1.615  -0.003  0.00  0.00    +0.136 C 
BRANCH  18  19
ATOM     19  C   UNL     1      -0.013   1.086   0.008  0.00  0.00    +0.183 C 
BRANCH  19  23
ATOM     20  C   UNL     1      -2.012   2.463   3.523  0.00  0.00    +0.000 A 
ATOM     21  C   UNL     1      -1.870   1.107   3.295  0.00  0.00    +0.000 A 
ATOM     22  C   UNL     1      -1.222   0.662   2.158  0.00  0.00    +0.005 A 
ATOM     23  C   UNL     1      -0.718   1.572   1.248  0.00  0.00    -0.022 A 
ATOM     24  C   UNL     1      -0.856   2.928   1.478  0.00  0.00    +0.005 A 
ATOM     25  C   UNL     1      -1.507   3.374   2.613  0.00  0.00    +0.000 A 
ENDBRANCH  19  23
BRANCH  19  26
ATOM     26  S   UNL     1      -0.890   1.687  -1.462  0.00  0.00    +0.011 S 
ATOM     27  O   UNL     1      -0.973   3.105  -1.436  0.00  0.00    -0.168 OA
ATOM     28  O   UNL     1      -0.425   1.009  -2.621  0.00  0.00    -0.168 OA
BRANCH  26  29
ATOM     29  C   UNL     1      -2.551   1.135  -1.254  0.00  0.00    +0.126 A 
ATOM     30  C   UNL     1      -3.589   1.762  -0.649  0.00  0.00    +0.035 A 
ATOM     31  C   UNL     1      -4.819   1.133  -0.605  0.00  0.00    +0.009 A 
ATOM     32  C   UNL     1      -4.950  -0.093  -1.169  0.00  0.00    +0.047 A 
ATOM     33  S   UNL     1      -3.304  -0.390  -1.794  0.00  0.00    -0.078 S 
ENDBRANCH  26  29
ENDBRANCH  19  26
ENDBRANCH  18  19
ENDBRANCH   1  18
TORSDOF 8
