REMARK  Name = ZINC09041888
REMARK  6 active torsions:
REMARK  status: ('A' for Active; 'I' for Inactive)
REMARK    1  A    between atoms: C_1  and  C_2
REMARK    2  A    between atoms: N_13  and  C_16
REMARK    3  A    between atoms: C_16  and  C_18
REMARK    4  A    between atoms: C_16  and  C_19
REMARK    5  A    between atoms: N_21  and  C_22
REMARK    6  A    between atoms: C_27  and  C_28
REMARK                            x       y       z     vdW  Elec       q    Type
REMARK                         _______ _______ _______ _____ _____    ______ ____
ROOT
ATOM      1  C   UNL     1      -2.452   1.154   0.013  0.00  0.00    +0.195 C 
ATOM      2  C   UNL     1      -3.270   1.527  -1.225  0.00  0.00    +0.043 C 
ENDROOT
BRANCH   1  14
ATOM      3  C   UNL     1       6.723   0.276  -0.032  0.00  0.00    +0.008 C 
ATOM      4  C   UNL     1       5.274   0.655   0.284  0.00  0.00    -0.009 C 
ATOM      5  C   UNL     1       4.324  -0.208  -0.552  0.00  0.00    +0.008 C 
ATOM      6  C   UNL     1       2.886  -0.016  -0.067  0.00  0.00    +0.037 C 
ATOM      7  C   UNL     1       2.571   1.477  -0.044  0.00  0.00    -0.023 A 
ATOM      8  C   UNL     1       3.564   2.393  -0.047  0.00  0.00    -0.004 A 
ATOM      9  S   UNL     1       2.741   3.962  -0.018  0.00  0.00    -0.071 S 
ATOM     10  C   UNL     1       1.063   3.382  -0.002  0.00  0.00    +0.138 A 
ATOM     11  C   UNL     1       1.201   1.985  -0.019  0.00  0.00    +0.079 A 
ATOM     12  C   UNL     1      -0.022   1.234  -0.010  0.00  0.00    +0.279 A 
ATOM     13  O   UNL     1      -0.002   0.016  -0.023  0.00  0.00    -0.265 OA
ATOM     14  N   UNL     1      -1.192   1.901   0.009  0.00  0.00    -0.199 N 
ATOM     15  N   UNL     1      -1.218   3.300   0.029  0.00  0.00    -0.061 NA
ATOM     16  N   UNL     1      -0.123   3.981   0.021  0.00  0.00    -0.123 NA
ATOM     17  C   UNL     1       5.039   2.131  -0.069  0.00  0.00    +0.046 C 
ENDBRANCH   1  14
BRANCH   1  18
ATOM     18  C   UNL     1      -3.235   1.495   1.254  0.00  0.00    +0.242 C 
ATOM     19  O   UNL     1      -2.784   2.286   2.057  0.00  0.00    -0.273 OA
ATOM     20  N   UNL     1      -4.435   0.923   1.473  0.00  0.00    -0.283 N 
ATOM     21  H   UNL     1      -4.825   0.342   0.801  0.00  0.00    +0.155 HD
BRANCH  20  22
ATOM     22  C   UNL     1      -5.119   1.167   2.669  0.00  0.00    +0.045 A 
ATOM     23  C   UNL     1      -5.032   2.412   3.279  0.00  0.00    +0.024 A 
ATOM     24  C   UNL     1      -5.712   2.651   4.457  0.00  0.00    +0.002 A 
ATOM     25  C   UNL     1      -6.471   1.650   5.034  0.00  0.00    +0.001 A 
ATOM     26  C   UNL     1      -6.556   0.408   4.432  0.00  0.00    +0.014 A 
ATOM     27  C   UNL     1      -5.882   0.164   3.251  0.00  0.00    +0.076 A 
BRANCH  27  28
ATOM     28  C   UNL     1      -5.974  -1.190   2.596  0.00  0.00    +0.419 C 
ATOM     29  F   UNL     1      -6.793  -2.025   3.364  0.00  0.00    -0.166 F 
ATOM     30  F   UNL     1      -6.519  -1.052   1.315  0.00  0.00    -0.166 F 
ATOM     31  F   UNL     1      -4.696  -1.750   2.501  0.00  0.00    -0.166 F 
ENDBRANCH  27  28
ENDBRANCH  20  22
ENDBRANCH   1  18
TORSDOF 4
