REMARK  Name = ZINC22175368
REMARK  3 active torsions:
REMARK  status: ('A' for Active; 'I' for Inactive)
REMARK    1  A    between atoms: N_9  and  S_10
REMARK    2  A    between atoms: S_10  and  C_13
REMARK    3  A    between atoms: C_17  and  N_19
REMARK                            x       y       z     vdW  Elec       q    Type
REMARK                         _______ _______ _______ _____ _____    ______ ____
ROOT
ATOM      1  S   UNL     1      -0.066   5.607   0.029  0.00  0.00    +0.075 S 
ATOM      2  O   UNL     1      -1.310   5.999   0.593  0.00  0.00    -0.150 OA
ATOM      3  O   UNL     1       1.181   6.023   0.569  0.00  0.00    -0.150 OA
ENDROOT
BRANCH   1  12
ATOM      4  C   UNL     1       3.032   6.964  -4.173  0.00  0.00    +0.000 A 
ATOM      5  C   UNL     1       3.377   6.566  -2.894  0.00  0.00    +0.002 A 
ATOM      6  C   UNL     1       2.397   6.265  -1.973  0.00  0.00    +0.025 A 
ATOM      7  C   UNL     1       1.048   6.359  -2.323  0.00  0.00    +0.054 A 
ATOM      8  C   UNL     1       0.713   6.756  -3.608  0.00  0.00    -0.023 A 
ATOM      9  C   UNL     1       1.700   7.052  -4.530  0.00  0.00    +0.005 A 
ATOM     10  C   UNL     1      -0.794   6.782  -3.726  0.00  0.00    +0.058 C 
ATOM     11  C   UNL     1      -1.297   6.343  -2.341  0.00  0.00    +0.136 C 
ATOM     12  N   UNL     1      -0.086   6.103  -1.551  0.00  0.00    -0.202 N 
ENDBRANCH   1  12
BRANCH   1  13
ATOM     13  C   UNL     1      -0.049   3.845   0.021  0.00  0.00    +0.110 A 
ATOM     14  C   UNL     1       1.156   3.166   0.007  0.00  0.00    +0.029 A 
ATOM     15  C   UNL     1       1.174   1.783   0.000  0.00  0.00    +0.004 A 
ATOM     16  C   UNL     1      -0.013   1.076   0.008  0.00  0.00    +0.023 A 
ATOM     17  C   UNL     1      -1.224   1.755   0.017  0.00  0.00    +0.026 A 
ATOM     18  C   UNL     1      -1.238   3.144   0.029  0.00  0.00    +0.051 A 
BRANCH  17  19
ATOM     19  N   UNL     1      -2.426   1.042   0.020  0.00  0.00    -0.358 N 
ATOM     20  H   UNL     1      -3.385   1.581   0.027  0.00  0.00    +0.142 HD
ATOM     21  H   UNL     1      -2.413  -0.058   0.014  0.00  0.00    +0.142 HD
ENDBRANCH  17  19
ENDBRANCH   1  13
TORSDOF 3
