REMARK  Name = ZINC50563799
REMARK  6 active torsions:
REMARK  status: ('A' for Active; 'I' for Inactive)
REMARK    1  A    between atoms: C_1  and  C_2
REMARK    2  A    between atoms: C_5  and  S_9
REMARK    3  A    between atoms: C_6  and  N_8
REMARK    4  A    between atoms: S_9  and  N_12
REMARK    5  A    between atoms: C_16  and  C_21
REMARK    6  A    between atoms: C_18  and  C_20
REMARK                            x       y       z     vdW  Elec       q    Type
REMARK                         _______ _______ _______ _____ _____    ______ ____
ROOT
ATOM      1  S   UNL     1       0.342  -5.116   0.374  0.00  0.00    +0.063 S 
ATOM      2  O   UNL     1       0.729  -4.551  -0.871  0.00  0.00    -0.153 OA
ATOM      3  O   UNL     1      -0.312  -4.359   1.384  0.00  0.00    -0.153 OA
ENDROOT
BRANCH   1   4
ATOM      4  N   UNL     1       1.716  -5.734   1.061  0.00  0.00    -0.173 NA
ATOM      5  C   UNL     1       2.950  -5.871   0.275  0.00  0.00    +0.110 C 
ATOM      6  C   UNL     1       3.443  -7.317   0.377  0.00  0.00    +0.017 C 
ATOM      7  C   UNL     1       3.592  -7.697   1.852  0.00  0.00    +0.006 C 
ATOM      8  C   UNL     1       2.232  -7.600   2.546  0.00  0.00    +0.005 C 
ATOM      9  C   UNL     1       1.726  -6.152   2.469  0.00  0.00    +0.080 C 
ATOM     10  C   UNL     1       0.309  -6.070   3.039  0.00  0.00    +0.026 C 
ATOM     11  C   UNL     1       2.376  -8.013   4.013  0.00  0.00    +0.009 C 
ENDBRANCH   1   4
BRANCH   1  16
ATOM     12  C   UNL     1      -3.279  -9.778  -0.895  0.00  0.00    +0.044 C 
ATOM     13  C   UNL     1      -2.373  -8.617  -0.581  0.00  0.00    -0.049 A 
ATOM     14  C   UNL     1      -2.748  -7.685   0.370  0.00  0.00    +0.005 A 
ATOM     15  C   UNL     1      -1.919  -6.617   0.661  0.00  0.00    +0.030 A 
ATOM     16  C   UNL     1      -0.713  -6.478   0.003  0.00  0.00    +0.126 A 
ATOM     17  C   UNL     1      -0.333  -7.411  -0.953  0.00  0.00    +0.051 A 
ATOM     18  C   UNL     1      -1.166  -8.486  -1.239  0.00  0.00    +0.028 A 
BRANCH  17  19
ATOM     19  N   UNL     1       0.886  -7.273  -1.621  0.00  0.00    -0.356 N 
ATOM     20  H   UNL     1       1.406  -6.461  -1.517  0.00  0.00    +0.142 HD
ATOM     21  H   UNL     1       1.212  -7.989  -2.187  0.00  0.00    +0.142 HD
ENDBRANCH  17  19
ENDBRANCH   1  16
TORSDOF 3
