REMARK  Name = ZINC23330070
REMARK  6 active torsions:
REMARK  status: ('A' for Active; 'I' for Inactive)
REMARK    1  A    between atoms: C_6  and  C_7
REMARK    2  A    between atoms: N_12  and  C_13
REMARK    3  A    between atoms: C_13  and  C_14
REMARK    4  A    between atoms: C_14  and  C_15
REMARK    5  A    between atoms: N_17  and  C_18
REMARK    6  A    between atoms: C_19  and  C_23
REMARK                            x       y       z     vdW  Elec       q    Type
REMARK                         _______ _______ _______ _____ _____    ______ ____
ROOT
ATOM      1  C   UNL     1      -2.265   1.531   0.720  0.00  0.00    -0.038 C 
ATOM      2  C   UNL     1      -0.801   1.617   1.234  0.00  0.00    -0.013 C 
ATOM      3  C   UNL     1      -0.013   1.086   0.008  0.00  0.00    -0.020 C 
ATOM      4  C   UNL     1      -0.820   1.627  -1.191  0.00  0.00    -0.078 C 
ATOM      5  N   UNL     1      -2.187   1.900  -0.709  0.00  0.00    +0.385 N 
ATOM      6  H   UNL     1      -2.414   2.970  -0.832  0.00  0.00    -0.081 HD
ENDROOT
BRANCH   1  12
ATOM      7  C   UNL     1      -3.072   3.854   1.177  0.00  0.00    +0.006 A 
ATOM      8  C   UNL     1      -3.873   4.754   1.858  0.00  0.00    +0.049 A 
ATOM      9  C   UNL     1      -4.744   4.297   2.832  0.00  0.00    +0.162 A 
ATOM     10  C   UNL     1      -4.812   2.941   3.123  0.00  0.00    +0.162 A 
ATOM     11  C   UNL     1      -4.014   2.043   2.435  0.00  0.00    +0.051 A 
ATOM     12  C   UNL     1      -3.140   2.504   1.466  0.00  0.00    -0.057 A 
ATOM     13  O   UNL     1      -5.674   2.501   4.085  0.00  0.00    -0.488 OA
ATOM     14  C   UNL     1      -7.065   2.612   3.777  0.00  0.00    +0.232 C 
ATOM     15  C   UNL     1      -7.581   4.003   4.109  0.00  0.00    +0.082 C 
ATOM     16  C   UNL     1      -6.940   5.080   3.248  0.00  0.00    +0.232 C 
ATOM     17  O   UNL     1      -5.538   5.173   3.512  0.00  0.00    -0.488 OA
ENDBRANCH   1  12
BRANCH   5  18
ATOM     18  C   UNL     1      -3.180   1.161  -1.499  0.00  0.00    -0.069 C 
BRANCH  18  19
ATOM     19  C   UNL     1      -3.255   1.754  -2.908  0.00  0.00    +0.077 C 
BRANCH  19  20
ATOM     20  C   UNL     1      -4.275   0.996  -3.718  0.00  0.00    +0.216 C 
ATOM     21  O   UNL     1      -4.882   0.073  -3.218  0.00  0.00    -0.276 OA
ATOM     22  N   UNL     1      -4.513   1.344  -4.998  0.00  0.00    -0.279 N 
ATOM     23  H   UNL     1      -3.962   2.182  -5.452  0.00  0.00    +0.155 HD
BRANCH  22  24
ATOM     24  C   UNL     1      -5.452   0.646  -5.745  0.00  0.00    +0.089 A 
ATOM     25  C   UNL     1      -5.835   0.857  -7.063  0.00  0.00    +0.080 A 
ATOM     26  C   UNL     1      -6.843  -0.029  -7.595  0.00  0.00    +0.028 A 
ATOM     27  C   UNL     1      -7.330  -0.973  -6.769  0.00  0.00    +0.048 A 
ATOM     28  S   UNL     1      -6.434  -0.694  -5.256  0.00  0.00    -0.081 S 
BRANCH  25  29
ATOM     29  C   UNL     1      -5.257   1.899  -7.856  0.00  0.00    +0.102 C 
ATOM     30  N   UNL     1      -4.798   2.726  -8.485  0.00  0.00    -0.191 NA
ENDBRANCH  25  29
ENDBRANCH  22  24
ENDBRANCH  19  20
ENDBRANCH  18  19
ENDBRANCH   5  18
TORSDOF 6
