REMARK  Name = ZINC18219453
REMARK  2 active torsions:
REMARK  status: ('A' for Active; 'I' for Inactive)
REMARK    1  A    between atoms: C_3  and  C_8
REMARK    2  A    between atoms: C_13  and  C_21
REMARK                            x       y       z     vdW  Elec       q    Type
REMARK                         _______ _______ _______ _____ _____    ______ ____
ROOT
ATOM      1  C   UNL     1       3.672   2.184  -0.021  0.00  0.00    +0.032 C 
ATOM      2  C   UNL     1       4.478   1.826  -1.272  0.00  0.00    +0.060 C 
ATOM      3  C   UNL     1       5.794   2.567  -1.257  0.00  0.00    +0.020 C 
ATOM      4  C   UNL     1       6.402   2.878  -0.093  0.00  0.00    +0.041 C 
ATOM      5  C   UNL     1       7.720   3.621  -0.047  0.00  0.00    +0.177 C 
ATOM      6  N   UNL     1       8.334   3.628  -1.368  0.00  0.00    -0.221 N 
ATOM      7  C   UNL     1       7.671   3.292  -2.502  0.00  0.00    +0.218 A 
ATOM      8  N   UNL     1       8.498   3.410  -3.503  0.00  0.00    -0.201 NA
ATOM      9  C   UNL     1       9.691   3.811  -3.053  0.00  0.00    +0.247 A 
ATOM     10  N   UNL     1       9.634   3.955  -1.752  0.00  0.00    -0.156 NA
ATOM     11  N   UNL     1       6.342   2.901  -2.473  0.00  0.00    -0.287 N 
ATOM     12  C   UNL     1       5.826   2.523   1.140  0.00  0.00    +0.164 C 
ATOM     13  O   UNL     1       6.409   2.797   2.170  0.00  0.00    -0.292 OA
ATOM     14  C   UNL     1       4.503   1.812   1.212  0.00  0.00    +0.088 C 
ATOM     15  H   UNL     1       5.814   2.863  -3.286  0.00  0.00    +0.155 HD
ENDROOT
BRANCH   1  18
ATOM     16  C   UNL     1      -0.017   1.378   0.010  0.00  0.00    +0.002 A 
ATOM     17  C   UNL     1       1.171   2.086   0.002  0.00  0.00    +0.004 A 
ATOM     18  C   UNL     1       2.378   1.412  -0.013  0.00  0.00    -0.042 A 
ATOM     19  C   UNL     1       2.398   0.029  -0.021  0.00  0.00    +0.024 A 
ATOM     20  C   UNL     1       1.210  -0.679  -0.013  0.00  0.00    +0.041 A 
ATOM     21  C   UNL     1       0.002  -0.004   0.002  0.00  0.00    +0.020 A 
ATOM     22 CL   UNL     1       1.234  -2.415  -0.024  0.00  0.00    -0.084 Cl
ENDBRANCH   1  18
BRANCH   5  23
ATOM     23  C   UNL     1       7.478   5.040   0.398  0.00  0.00    -0.000 A 
ATOM     24  C   UNL     1       8.083   5.529   1.546  0.00  0.00    +0.009 A 
ATOM     25  C   UNL     1       7.832   6.841   1.917  0.00  0.00    +0.020 A 
ATOM     26  C   UNL     1       6.993   7.613   1.136  0.00  0.00    +0.111 A 
ATOM     27  N   UNL     1       6.434   7.115   0.050  0.00  0.00    -0.263 NA
ATOM     28  C   UNL     1       6.655   5.873  -0.336  0.00  0.00    +0.116 A 
ENDBRANCH   5  23
TORSDOF 2
