REMARK  Name = ZINC28160172
REMARK  6 active torsions:
REMARK  status: ('A' for Active; 'I' for Inactive)
REMARK    1  A    between atoms: C_1  and  C_2
REMARK    2  A    between atoms: C_5  and  C_8
REMARK    3  A    between atoms: C_11  and  C_33
REMARK    4  A    between atoms: C_18  and  C_21
REMARK    5  A    between atoms: C_21  and  C_22
REMARK    6  A    between atoms: N_24  and  C_25
REMARK                            x       y       z     vdW  Elec       q    Type
REMARK                         _______ _______ _______ _____ _____    ______ ____
ROOT
ATOM      1  C   UNL     1      -1.339   2.088   0.007  0.00  0.00    +0.136 C 
ATOM      2  C   UNL     1      -1.665   2.601   1.423  0.00  0.00    +0.087 C 
ATOM      3  C   UNL     1      -1.730   4.106   1.255  0.00  0.00    +0.075 C 
ATOM      4  N   UNL     1      -1.499   4.413   0.023  0.00  0.00    -0.181 NA
ATOM      5  N   UNL     1      -1.257   3.315  -0.800  0.00  0.00    -0.195 N 
ATOM      6  C   UNL     1      -0.987   3.370  -2.136  0.00  0.00    +0.170 C 
ATOM      7  N   UNL     1      -0.744   2.362  -2.965  0.00  0.00    -0.157 NA
ATOM      8  C   UNL     1      -0.498   2.500  -4.239  0.00  0.00    +0.252 C 
ATOM      9  O   UNL     1      -0.284   1.550  -4.967  0.00  0.00    -0.272 OA
ATOM     10  C   UNL     1      -0.490   3.936  -4.750  0.00  0.00    +0.150 C 
ATOM     11  S   UNL     1      -0.871   4.815  -3.182  0.00  0.00    -0.078 S 
ENDROOT
BRANCH   1  16
ATOM     12  C   UNL     1       3.718  -0.709  -0.046  0.00  0.00    +0.044 C 
ATOM     13  C   UNL     1       2.399   0.021  -0.030  0.00  0.00    -0.050 A 
ATOM     14  C   UNL     1       1.215  -0.692  -0.030  0.00  0.00    +0.004 A 
ATOM     15  C   UNL     1       0.005  -0.024  -0.016  0.00  0.00    +0.006 A 
ATOM     16  C   UNL     1      -0.020   1.359  -0.002  0.00  0.00    -0.025 A 
ATOM     17  C   UNL     1       1.164   2.072  -0.002  0.00  0.00    +0.006 A 
ATOM     18  C   UNL     1       2.374   1.403  -0.017  0.00  0.00    +0.004 A 
ENDBRANCH   1  16
BRANCH   3  19
ATOM     19  C   UNL     1      -2.015   5.065   2.328  0.00  0.00    +0.035 A 
ATOM     20  C   UNL     1      -2.090   6.446   2.267  0.00  0.00    +0.017 A 
ATOM     21  C   UNL     1      -2.377   7.137   3.421  0.00  0.00    +0.008 A 
ATOM     22  C   UNL     1      -2.568   6.449   4.577  0.00  0.00    +0.046 A 
ATOM     23  S   UNL     1      -2.347   4.757   4.055  0.00  0.00    -0.095 S 
ENDBRANCH   3  19
BRANCH  10  24
ATOM     24  C   UNL     1      -1.583   4.163  -5.797  0.00  0.00    +0.120 C 
BRANCH  24  25
ATOM     25  C   UNL     1      -1.591   5.613  -6.208  0.00  0.00    +0.219 C 
ATOM     26  O   UNL     1      -0.801   6.388  -5.712  0.00  0.00    -0.275 OA
ATOM     27  N   UNL     1      -2.477   6.048  -7.126  0.00  0.00    -0.285 N 
ATOM     28  H   UNL     1      -3.141   5.332  -7.632  0.00  0.00    +0.155 HD
BRANCH  27  29
ATOM     29  C   UNL     1      -2.550   7.411  -7.437  0.00  0.00    +0.036 A 
ATOM     30  C   UNL     1      -3.774   7.988  -7.748  0.00  0.00    +0.026 A 
ATOM     31  C   UNL     1      -3.847   9.334  -8.049  0.00  0.00    +0.043 A 
ATOM     32  C   UNL     1      -2.698  10.107  -8.052  0.00  0.00    +0.159 A 
ATOM     33  C   UNL     1      -1.474   9.532  -7.748  0.00  0.00    +0.160 A 
ATOM     34  C   UNL     1      -1.398   8.186  -7.441  0.00  0.00    +0.064 A 
ATOM     35  F   UNL     1      -0.354  10.288  -7.751  0.00  0.00    -0.202 F 
ATOM     36  F   UNL     1      -2.771  11.422  -8.353  0.00  0.00    -0.202 F 
ENDBRANCH  27  29
ENDBRANCH  24  25
ENDBRANCH  10  24
TORSDOF 5
