REMARK  Name = ZINC39662877
REMARK  7 active torsions:
REMARK  status: ('A' for Active; 'I' for Inactive)
REMARK    1  A    between atoms: C_1  and  C_2
REMARK    2  A    between atoms: C_4  and  C_8
REMARK    3  A    between atoms: N_6  and  C_7
REMARK    4  A    between atoms: C_12  and  C_21
REMARK    5  A    between atoms: N_23  and  C_24
REMARK    6  A    between atoms: C_24  and  C_25
REMARK    7  A    between atoms: C_28  and  C_31
REMARK                            x       y       z     vdW  Elec       q    Type
REMARK                         _______ _______ _______ _____ _____    ______ ____
ROOT
ATOM      1  C   UNL     1       0.156  -3.210  -1.142  0.00  0.00    +0.267 C 
ATOM      2  O   UNL     1       0.183  -3.048  -2.346  0.00  0.00    -0.268 OA
ATOM      3  N   UNL     1       0.135  -4.457  -0.630  0.00  0.00    -0.295 N 
ATOM      4  C   UNL     1       0.095  -4.852   0.798  0.00  0.00    +0.121 C 
ATOM      5  C   UNL     1      -0.860  -6.066   0.841  0.00  0.00    +0.100 C 
ATOM      6  C   UNL     1      -0.820  -6.647  -0.583  0.00  0.00    -0.004 C 
ATOM      7  C   UNL     1       0.142  -5.743  -1.368  0.00  0.00    +0.115 C 
ATOM      8  C   UNL     1      -2.209  -6.602  -1.212  0.00  0.00    -0.010 C 
ATOM      9  C   UNL     1      -2.154  -7.237  -2.604  0.00  0.00    -0.082 C 
ATOM     10  N   UNL     1      -1.690  -8.625  -2.493  0.00  0.00    +0.379 N 
ATOM     11  C   UNL     1      -0.318  -8.654  -1.973  0.00  0.00    -0.082 C 
ATOM     12  C   UNL     1      -0.295  -8.079  -0.554  0.00  0.00    -0.010 C 
ATOM     13  H   UNL     1      -2.297  -9.132  -1.865  0.00  0.00    -0.086 HD
ATOM     14  H   UNL     1      -1.713  -9.060  -3.403  0.00  0.00    -0.086 HD
ENDROOT
BRANCH   1  18
ATOM     15  C   UNL     1       0.152   1.525   0.664  0.00  0.00    +0.065 C 
ATOM     16  C   UNL     1       0.143   0.024   0.531  0.00  0.00    +0.037 A 
ATOM     17  C   UNL     1       0.164  -0.679  -0.625  0.00  0.00    +0.057 A 
ATOM     18  C   UNL     1       0.145  -2.041  -0.239  0.00  0.00    +0.147 A 
ATOM     19  N   UNL     1       0.115  -2.067   1.078  0.00  0.00    -0.167 NA
ATOM     20  N   UNL     1       0.119  -0.870   1.543  0.00  0.00    -0.271 N 
ATOM     21  C   UNL     1       0.096  -0.523   2.966  0.00  0.00    +0.172 C 
ENDBRANCH   1  18
BRANCH   5  22
ATOM     22  C   UNL     1      -2.258  -5.622   1.189  0.00  0.00    +0.218 C 
ATOM     23  O   UNL     1      -2.640  -4.516   0.868  0.00  0.00    -0.275 OA
ATOM     24  N   UNL     1      -3.082  -6.453   1.857  0.00  0.00    -0.315 N 
ATOM     25  H   UNL     1      -2.776  -7.337   2.113  0.00  0.00    +0.149 HD
BRANCH  24  26
ATOM     26  C   UNL     1      -4.441  -6.022   2.195  0.00  0.00    +0.107 C 
BRANCH  26  27
ATOM     27  C   UNL     1      -5.160  -7.144   2.946  0.00  0.00    +0.006 C 
ATOM     28  C   UNL     1      -5.337  -8.347   2.017  0.00  0.00    +0.006 C 
ATOM     29  C   UNL     1      -6.056  -9.469   2.767  0.00  0.00    +0.015 C 
ATOM     30  C   UNL     1      -7.429  -8.976   3.230  0.00  0.00    +0.102 C 
ATOM     31  C   UNL     1      -7.252  -7.773   4.159  0.00  0.00    +0.015 C 
ATOM     32  C   UNL     1      -6.532  -6.650   3.408  0.00  0.00    +0.006 C 
BRANCH  30  33
ATOM     33  C   UNL     1      -8.137 -10.081   3.969  0.00  0.00    +0.359 C 
ATOM     34  O   UNL     1      -8.929  -9.812   4.856  0.00  0.00    -0.246 OA
ATOM     35  O   UNL     1      -7.919 -11.245   3.680  0.00  0.00    -0.246 OA
ENDBRANCH  30  33
ENDBRANCH  26  27
ENDBRANCH  24  26
ENDBRANCH   5  22
TORSDOF 5
