REMARK  Name = ZINC35730334
REMARK  14 active torsions:
REMARK  status: ('A' for Active; 'I' for Inactive)
REMARK    1  A    between atoms: N_9  and  C_27
REMARK    2  A    between atoms: C_10  and  S_12
REMARK    3  A    between atoms: S_12  and  C_13
REMARK    4  A    between atoms: C_13  and  C_14
REMARK    5  A    between atoms: C_14  and  C_15
REMARK    6  A    between atoms: C_15  and  C_16
REMARK    7  A    between atoms: C_16  and  C_17
REMARK    8  A    between atoms: N_19  and  C_20
REMARK    9  A    between atoms: C_20  and  C_21
REMARK   10  A    between atoms: C_21  and  C_22
REMARK   11  A    between atoms: C_22  and  C_23
REMARK   12  A    between atoms: C_23  and  C_24
REMARK   13  A    between atoms: C_24  and  C_25
REMARK   14  A    between atoms: C_25  and  N_26
REMARK                            x       y       z     vdW  Elec       q    Type
REMARK                         _______ _______ _______ _____ _____    ______ ____
ROOT
ATOM      1  C   UNL     1      -0.017   1.363   0.009  0.00  0.00    +0.001 A 
ATOM      2  C   UNL     1       1.168   2.089   0.002  0.00  0.00    +0.002 A 
ATOM      3  C   UNL     1       2.379   1.458  -0.013  0.00  0.00    +0.028 A 
ATOM      4  C   UNL     1       2.432   0.061  -0.021  0.00  0.00    +0.079 A 
ATOM      5  C   UNL     1       1.225  -0.674  -0.013  0.00  0.00    +0.065 A 
ATOM      6  C   UNL     1       0.002  -0.004   0.002  0.00  0.00    +0.015 A 
ATOM      7  C   UNL     1       1.305  -2.141  -0.022  0.00  0.00    +0.267 A 
ATOM      8  O   UNL     1       0.300  -2.829  -0.016  0.00  0.00    -0.267 OA
ATOM      9  N   UNL     1       2.538  -2.699  -0.037  0.00  0.00    -0.254 N 
ATOM     10  C   UNL     1       3.655  -1.911  -0.044  0.00  0.00    +0.177 A 
ATOM     11  N   UNL     1       3.606  -0.602  -0.036  0.00  0.00    -0.223 NA
ENDROOT
BRANCH   9  12
ATOM     12  C   UNL     1       2.670  -4.095  -0.045  0.00  0.00    +0.070 A 
ATOM     13  C   UNL     1       2.729  -4.780  -1.251  0.00  0.00    +0.029 A 
ATOM     14  C   UNL     1       2.860  -6.155  -1.257  0.00  0.00    +0.022 A 
ATOM     15  C   UNL     1       2.932  -6.850  -0.062  0.00  0.00    +0.042 A 
ATOM     16  C   UNL     1       2.873  -6.170   1.141  0.00  0.00    +0.042 A 
ATOM     17  C   UNL     1       2.748  -4.793   1.153  0.00  0.00    +0.066 A 
ATOM     18 CL   UNL     1       2.682  -3.939   2.663  0.00  0.00    -0.081 Cl
ATOM     19 CL   UNL     1       3.095  -8.578  -0.073  0.00  0.00    -0.083 Cl
ENDBRANCH   9  12
BRANCH  10  20
ATOM     20  S   UNL     1       5.235  -2.692  -0.063  0.00  0.00    -0.087 S 
BRANCH  20  21
ATOM     21  C   UNL     1       6.408  -1.309  -0.068  0.00  0.00    +0.077 C 
BRANCH  21  22
ATOM     22  C   UNL     1       7.838  -1.853  -0.084  0.00  0.00    +0.012 C 
BRANCH  22  23
ATOM     23  C   UNL     1       8.828  -0.686  -0.088  0.00  0.00    +0.010 C 
BRANCH  23  24
ATOM     24  C   UNL     1      10.258  -1.231  -0.105  0.00  0.00    +0.096 C 
BRANCH  24  25
ATOM     25  C   UNL     1      11.233  -0.082  -0.108  0.00  0.00    +0.213 C 
ATOM     26  O   UNL     1      10.824   1.060  -0.099  0.00  0.00    -0.276 OA
ATOM     27  N   UNL     1      12.559  -0.323  -0.123  0.00  0.00    -0.315 N 
ATOM     28  H   UNL     1      12.885  -1.236  -0.130  0.00  0.00    +0.149 HD
BRANCH  27  29
ATOM     29  C   UNL     1      13.506   0.794  -0.126  0.00  0.00    +0.104 C 
BRANCH  29  30
ATOM     30  C   UNL     1      14.936   0.250  -0.143  0.00  0.00    +0.019 C 
BRANCH  30  31
ATOM     31  C   UNL     1      15.926   1.416  -0.147  0.00  0.00    +0.001 C 
BRANCH  31  32
ATOM     32  C   UNL     1      17.356   0.872  -0.163  0.00  0.00    -0.002 C 
BRANCH  32  33
ATOM     33  C   UNL     1      18.346   2.039  -0.167  0.00  0.00    -0.020 C 
BRANCH  33  34
ATOM     34  C   UNL     1      19.776   1.494  -0.184  0.00  0.00    -0.086 C 
BRANCH  34  35
ATOM     35  N   UNL     1      20.726   2.614  -0.187  0.00  0.00    +0.378 N 
ATOM     36  H   UNL     1      21.669   2.255  -0.198  0.00  0.00    -0.090 HD
ATOM     37  H   UNL     1      20.573   3.183  -1.007  0.00  0.00    -0.090 HD
ATOM     38  H   UNL     1      20.589   3.174   0.641  0.00  0.00    -0.090 HD
ENDBRANCH  34  35
ENDBRANCH  33  34
ENDBRANCH  32  33
ENDBRANCH  31  32
ENDBRANCH  30  31
ENDBRANCH  29  30
ENDBRANCH  27  29
ENDBRANCH  24  25
ENDBRANCH  23  24
ENDBRANCH  22  23
ENDBRANCH  21  22
ENDBRANCH  20  21
ENDBRANCH  10  20
TORSDOF 14
