REMARK  Name = ZINC00384914
REMARK  6 active torsions:
REMARK  status: ('A' for Active; 'I' for Inactive)
REMARK    1  A    between atoms: C_1  and  S_2
REMARK    2  A    between atoms: S_2  and  C_3
REMARK    3  A    between atoms: C_7  and  O_9
REMARK    4  A    between atoms: O_9  and  C_10
REMARK    5  A    between atoms: C_18  and  N_24
REMARK    6  A    between atoms: C_19  and  C_22
REMARK                            x       y       z     vdW  Elec       q    Type
REMARK                         _______ _______ _______ _____ _____    ______ ____
ROOT
ATOM      1  C   UNL     1      -3.484  -0.612   0.237  0.00  0.00    +0.193 A 
ATOM      2  N   UNL     1      -3.552  -1.931   0.337  0.00  0.00    -0.202 NA
ATOM      3  C   UNL     1      -2.448  -2.672   0.330  0.00  0.00    +0.164 A 
ATOM      4  C   UNL     1      -1.212  -2.044   0.211  0.00  0.00    +0.116 A 
ATOM      5  C   UNL     1      -1.180  -0.657   0.114  0.00  0.00    +0.226 A 
ATOM      6  N   UNL     1      -2.324   0.019   0.128  0.00  0.00    -0.187 NA
ATOM      7  N   UNL     1      -2.528  -4.060   0.436  0.00  0.00    -0.199 N 
ATOM      8  C   UNL     1      -3.544  -4.758   1.011  0.00  0.00    +0.139 A 
ATOM      9  C   UNL     1      -3.223  -6.107   0.901  0.00  0.00    +0.111 A 
ATOM     10  C   UNL     1      -1.976  -6.185   0.238  0.00  0.00    +0.155 A 
ATOM     11  N   UNL     1      -1.580  -4.974  -0.036  0.00  0.00    -0.170 NA
ENDROOT
BRANCH   8  12
ATOM     12  N   UNL     1      -4.677  -4.227   1.594  0.00  0.00    -0.342 N 
ATOM     13  H   UNL     1      -4.806  -3.266   1.619  0.00  0.00    +0.144 HD
ATOM     14  H   UNL     1      -5.346  -4.816   1.978  0.00  0.00    +0.144 HD
ENDBRANCH   8  12
BRANCH   1  16
ATOM     15  C   UNL     1      -4.295   1.998   0.092  0.00  0.00    +0.093 C 
ATOM     16  S   UNL     1      -4.975   0.328   0.250  0.00  0.00    -0.089 S 
ENDBRANCH   1  16
BRANCH   9  17
ATOM     17  C   UNL     1      -4.007  -7.210   1.371  0.00  0.00    +0.104 C 
ATOM     18  N   UNL     1      -4.629  -8.084   1.744  0.00  0.00    -0.191 NA
ENDBRANCH   9  17
BRANCH   5  19
ATOM     19  O   UNL     1       0.002  -0.004   0.002  0.00  0.00    -0.438 OA
BRANCH  19  20
ATOM     20  C   UNL     1      -0.014   1.355   0.031  0.00  0.00    +0.131 A 
ATOM     21  C   UNL     1       0.247   2.077  -1.124  0.00  0.00    +0.049 A 
ATOM     22  C   UNL     1       0.225   3.458  -1.095  0.00  0.00    +0.042 A 
ATOM     23  C   UNL     1      -0.047   4.122   0.090  0.00  0.00    +0.124 A 
ATOM     24  C   UNL     1      -0.302   3.402   1.245  0.00  0.00    +0.042 A 
ATOM     25  C   UNL     1      -0.287   2.021   1.217  0.00  0.00    +0.049 A 
ATOM     26  F   UNL     1      -0.063   5.472   0.118  0.00  0.00    -0.205 F 
ENDBRANCH  19  20
ENDBRANCH   5  19
TORSDOF 5
