REMARK  Name = ZINC64491446
REMARK  13 active torsions:
REMARK  status: ('A' for Active; 'I' for Inactive)
REMARK    1  A    between atoms: C_1  and  C_2
REMARK    2  A    between atoms: C_5  and  C_8
REMARK    3  A    between atoms: C_9  and  N_34
REMARK    4  A    between atoms: N_17  and  C_18
REMARK    5  A    between atoms: N_17  and  C_19
REMARK    6  A    between atoms: C_19  and  C_20
REMARK    7  A    between atoms: N_22  and  C_23
REMARK    8  A    between atoms: C_23  and  C_24
REMARK    9  A    between atoms: C_24  and  C_25
REMARK   10  A    between atoms: N_34  and  C_35
REMARK   11  A    between atoms: C_35  and  C_36
REMARK   12  A    between atoms: C_35  and  C_37
REMARK   13  A    between atoms: C_35  and  C_38
REMARK                            x       y       z     vdW  Elec       q    Type
REMARK                         _______ _______ _______ _____ _____    ______ ____
ROOT
ATOM      1  C   UNL     1       0.035  -4.498  -0.032  0.00  0.00    +0.082 C 
ATOM      2  C   UNL     1       0.303  -5.317   1.215  0.00  0.00    +0.212 C 
ATOM      3  N   UNL     1       0.967  -6.531   0.699  0.00  0.00    -0.196 N 
ATOM      4  C   UNL     1       0.305  -6.650  -0.642  0.00  0.00    +0.277 C 
ATOM      5  N   UNL     1       0.081  -5.274  -1.070  0.00  0.00    -0.250 NA
ATOM      6  S   UNL     1       1.712  -7.422  -1.538  0.00  0.00    -0.041 S 
ATOM      7  C   UNL     1       2.513  -8.115  -0.093  0.00  0.00    +0.178 C 
ATOM      8  N   UNL     1       1.932  -7.495   0.900  0.00  0.00    -0.157 NA
ATOM      9  N   UNL     1       3.511  -9.080  -0.040  0.00  0.00    -0.303 N 
ATOM     10  C   UNL     1       4.038  -9.518   1.254  0.00  0.00    +0.132 C 
ENDROOT
BRANCH   1  15
ATOM     11  C   UNL     1      -1.042   1.151  -0.142  0.00  0.00    +0.044 C 
ATOM     12  C   UNL     1      -0.759  -0.329  -0.113  0.00  0.00    -0.050 A 
ATOM     13  C   UNL     1      -0.075  -0.920  -1.160  0.00  0.00    +0.004 A 
ATOM     14  C   UNL     1       0.186  -2.274  -1.141  0.00  0.00    +0.010 A 
ATOM     15  C   UNL     1      -0.241  -3.049  -0.060  0.00  0.00    -0.001 A 
ATOM     16  C   UNL     1      -0.931  -2.445   0.994  0.00  0.00    +0.010 A 
ATOM     17  C   UNL     1      -1.181  -1.089   0.964  0.00  0.00    +0.004 A 
ENDBRANCH   1  15
BRANCH   2  18
ATOM     18  N   UNL     1       1.193  -4.589   2.130  0.00  0.00    -0.288 NA
ATOM     19  H   UNL     1       1.246  -3.613   1.882  0.00  0.00    +0.125 HD
BRANCH  18  20
ATOM     20  C   UNL     1       0.765  -4.756   3.525  0.00  0.00    +0.013 C 
ATOM     21  C   UNL     1       0.688  -6.247   3.860  0.00  0.00    +0.027 C 
ATOM     22  C   UNL     1       1.775  -4.077   4.452  0.00  0.00    +0.027 C 
ATOM     23  C   UNL     1      -0.612  -4.118   3.716  0.00  0.00    +0.027 C 
ENDBRANCH  18  20
ENDBRANCH   2  18
BRANCH   9  24
ATOM     24  C   UNL     1       4.036  -9.658  -1.280  0.00  0.00    +0.202 C 
BRANCH  24  25
ATOM     25  C   UNL     1       5.204  -8.837  -1.762  0.00  0.00    +0.230 C 
ATOM     26  O   UNL     1       5.562  -7.865  -1.132  0.00  0.00    -0.274 OA
ATOM     27  N   UNL     1       5.850  -9.184  -2.893  0.00  0.00    -0.314 N 
ATOM     28  H   UNL     1       5.563  -9.962  -3.396  0.00  0.00    +0.149 HD
BRANCH  27  29
ATOM     29  C   UNL     1       6.986  -8.386  -3.361  0.00  0.00    +0.108 C 
BRANCH  29  30
ATOM     30  C   UNL     1       7.534  -8.990  -4.655  0.00  0.00    +0.052 C 
BRANCH  30  31
ATOM     31  C   UNL     1       8.702  -8.169  -5.138  0.00  0.00    -0.040 C 
ATOM     32  C   UNL     1      10.014  -8.405  -4.903  0.00  0.00    -0.001 A 
ATOM     33  C   UNL     1      10.717  -9.455  -4.157  0.00  0.00    +0.010 A 
ATOM     34  C   UNL     1      12.068  -9.425  -4.099  0.00  0.00    +0.001 A 
ATOM     35  C   UNL     1      12.811  -8.418  -4.730  0.00  0.00    +0.002 A 
ATOM     36  C   UNL     1      12.236  -7.420  -5.434  0.00  0.00    +0.026 A 
ATOM     37  C   UNL     1      10.821  -7.353  -5.562  0.00  0.00    +0.043 A 
ATOM     38  N   UNL     1      10.039  -6.501  -6.179  0.00  0.00    -0.380 N 
ATOM     39  C   UNL     1       8.646  -6.919  -5.987  0.00  0.00    +0.144 C 
ATOM     40  H   UNL     1      10.333  -5.725  -6.682  0.00  0.00    +0.160 HD
ENDBRANCH  30  31
ENDBRANCH  29  30
ENDBRANCH  27  29
ENDBRANCH  24  25
ENDBRANCH   9  24
TORSDOF 8
