REMARK  Name = ZINC59514457
REMARK  5 active torsions:
REMARK  status: ('A' for Active; 'I' for Inactive)
REMARK    1  A    between atoms: C_5  and  N_7
REMARK    2  A    between atoms: N_8  and  C_9
REMARK    3  A    between atoms: C_12  and  O_36
REMARK    4  A    between atoms: C_13  and  C_15
REMARK    5  A    between atoms: N_16  and  N_17
REMARK                            x       y       z     vdW  Elec       q    Type
REMARK                         _______ _______ _______ _____ _____    ______ ____
ROOT
ATOM      1  N   UNL     1      -7.018  -2.850   0.709  0.00  0.00    -0.205 N 
ATOM      2  C   UNL     1      -8.207  -2.158   0.826  0.00  0.00    +0.241 A 
ATOM      3  N   UNL     1      -8.219  -0.833   0.721  0.00  0.00    -0.180 NA
ATOM      4  C   UNL     1      -9.364  -0.167   0.834  0.00  0.00    +0.224 A 
ATOM      5  N   UNL     1     -10.498  -0.827   1.052  0.00  0.00    -0.181 NA
ATOM      6  C   UNL     1     -10.486  -2.152   1.157  0.00  0.00    +0.224 A 
ATOM      7  N   UNL     1      -9.342  -2.818   1.038  0.00  0.00    -0.180 NA
ATOM      8  N   UNL     1     -11.663  -2.836   1.383  0.00  0.00    -0.299 N 
ATOM      9  C   UNL     1     -12.937  -2.115   1.505  0.00  0.00    +0.108 C 
ATOM     10  C   UNL     1     -13.941  -2.716   0.516  0.00  0.00    +0.019 C 
ATOM     11  C   UNL     1     -14.047  -4.224   0.757  0.00  0.00    +0.003 C 
ATOM     12  C   UNL     1     -12.684  -4.877   0.519  0.00  0.00    +0.019 C 
ATOM     13  C   UNL     1     -11.666  -4.301   1.502  0.00  0.00    +0.108 C 
ATOM     14  N   UNL     1      -9.376   1.209   0.725  0.00  0.00    -0.299 N 
ATOM     15  C   UNL     1     -10.633   1.959   0.853  0.00  0.00    +0.108 C 
ATOM     16  C   UNL     1     -10.455   3.040   1.924  0.00  0.00    +0.019 C 
ATOM     17  C   UNL     1      -9.241   3.903   1.574  0.00  0.00    +0.003 C 
ATOM     18  C   UNL     1      -7.982   3.032   1.553  0.00  0.00    +0.019 C 
ATOM     19  C   UNL     1      -8.132   1.952   0.485  0.00  0.00    +0.108 C 
ATOM     20  H   UNL     1      -7.010  -3.817   0.781  0.00  0.00    +0.177 HD
ENDROOT
BRANCH   1  22
ATOM     21  C   UNL     1      -4.705  -2.804   0.375  0.00  0.00    +0.142 C 
ATOM     22  N   UNL     1      -5.822  -2.154   0.485  0.00  0.00    -0.187 NA
BRANCH  21  27
ATOM     23  C   UNL     1      -1.046  -2.054  -0.087  0.00  0.00    +0.087 A 
ATOM     24  C   UNL     1      -1.081  -0.671  -0.305  0.00  0.00    +0.033 A 
ATOM     25  C   UNL     1      -2.284   0.001  -0.301  0.00  0.00    +0.048 A 
ATOM     26  C   UNL     1      -3.469  -0.687  -0.080  0.00  0.00    +0.126 A 
ATOM     27  C   UNL     1      -3.446  -2.072   0.140  0.00  0.00    +0.038 A 
ATOM     28  C   UNL     1      -2.232  -2.755   0.131  0.00  0.00    +0.042 A 
BRANCH  23  30
ATOM     29  N   UNL     1       0.172  -4.002  -0.192  0.00  0.00    -0.148 NA
ATOM     30  N   UNL     1       0.148  -2.716  -0.092  0.00  0.00    -0.149 NA
BRANCH  29  35
ATOM     31  C   UNL     1      -2.689  -4.679  -2.356  0.00  0.00    +0.002 A 
ATOM     32  C   UNL     1      -2.962  -5.993  -2.017  0.00  0.00    +0.002 A 
ATOM     33  C   UNL     1      -2.192  -6.644  -1.071  0.00  0.00    +0.022 A 
ATOM     34  C   UNL     1      -1.144  -5.987  -0.457  0.00  0.00    +0.068 A 
ATOM     35  C   UNL     1      -0.863  -4.660  -0.795  0.00  0.00    +0.104 A 
ATOM     36  C   UNL     1      -1.646  -4.009  -1.752  0.00  0.00    +0.031 A 
ATOM     37 CL   UNL     1      -0.178  -6.806   0.731  0.00  0.00    -0.081 Cl
ENDBRANCH  29  35
ENDBRANCH  23  30
BRANCH  26  38
ATOM     38  O   UNL     1      -4.650  -0.018  -0.076  0.00  0.00    -0.506 OA
ATOM     39  H   UNL     1      -5.074   0.036  -0.944  0.00  0.00    +0.292 HD
ENDBRANCH  26  38
ENDBRANCH  21  27
ENDBRANCH   1  22
TORSDOF 5
