REMARK  Name = ZINC14678417
REMARK  11 active torsions:
REMARK  status: ('A' for Active; 'I' for Inactive)
REMARK    1  A    between atoms: C_1  and  C_2
REMARK    2  A    between atoms: C_12  and  C_14
REMARK    3  A    between atoms: C_14  and  S_15
REMARK    4  A    between atoms: S_15  and  C_16
REMARK    5  A    between atoms: C_19  and  C_22
REMARK    6  A    between atoms: N_20  and  N_21
REMARK    7  A    between atoms: C_22  and  O_23
REMARK    8  A    between atoms: O_23  and  C_24
REMARK    9  A    between atoms: C_27  and  C_30
REMARK   10  A    between atoms: C_30  and  C_31
REMARK   11  A    between atoms: C_30  and  C_32
REMARK                            x       y       z     vdW  Elec       q    Type
REMARK                         _______ _______ _______ _____ _____    ______ ____
ROOT
ATOM      1  C   UNL     1       9.511   5.664  -0.059  0.00  0.00    +0.209 A 
ATOM      2  N   UNL     1      10.448   4.745  -0.074  0.00  0.00    -0.121 NA
ATOM      3  N   UNL     1      11.606   5.302  -0.082  0.00  0.00    -0.128 NA
ATOM      4  C   UNL     1      11.479   6.599  -0.073  0.00  0.00    +0.189 A 
ATOM      5  N   UNL     1      10.139   6.876  -0.064  0.00  0.00    -0.225 N 
ENDROOT
BRANCH   5   6
ATOM      6  N   UNL     1       9.552   8.109  -0.058  0.00  0.00    -0.295 N 
ATOM      7  H   UNL     1       9.406   8.435   0.885  0.00  0.00    +0.163 HD
ATOM      8  H   UNL     1      10.097   8.772  -0.589  0.00  0.00    +0.163 HD
ENDBRANCH   5   6
BRANCH   1   9
ATOM      9  S   UNL     1       7.771   5.386  -0.044  0.00  0.00    -0.075 S 
BRANCH   9  10
ATOM     10  C   UNL     1       7.742   3.576  -0.053  0.00  0.00    +0.173 C 
BRANCH  10  22
ATOM     11  C   UNL     1      -1.288  -0.783   0.011  0.00  0.00    +0.044 C 
ATOM     12  C   UNL     1       0.002  -0.004   0.002  0.00  0.00    -0.049 A 
ATOM     13  C   UNL     1      -0.017   1.383   0.010  0.00  0.00    +0.005 A 
ATOM     14  C   UNL     1       1.142   2.115   0.003  0.00  0.00    +0.029 A 
ATOM     15  C   UNL     1       2.402   1.474  -0.013  0.00  0.00    +0.080 A 
ATOM     16  C   UNL     1       2.382   0.060  -0.020  0.00  0.00    +0.041 A 
ATOM     17  C   UNL     1       1.217  -0.665  -0.013  0.00  0.00    +0.020 A 
ATOM     18  S   UNL     1       4.113  -0.342  -0.039  0.00  0.00    -0.052 S 
ATOM     19  C   UNL     1       4.733   1.335  -0.036  0.00  0.00    +0.165 A 
ATOM     20  N   UNL     1       3.627   2.042  -0.021  0.00  0.00    -0.225 NA
ATOM     21  N   UNL     1       6.046   1.775  -0.046  0.00  0.00    -0.264 N 
ATOM     22  C   UNL     1       6.314   3.096  -0.042  0.00  0.00    +0.229 C 
ATOM     23  O   UNL     1       5.405   3.899  -0.029  0.00  0.00    -0.275 OA
ATOM     24  H   UNL     1       6.773   1.133  -0.057  0.00  0.00    +0.157 HD
ENDBRANCH  10  22
ENDBRANCH   9  10
ENDBRANCH   1   9
BRANCH   4  25
ATOM     25  C   UNL     1      12.599   7.606  -0.079  0.00  0.00    +0.306 C 
BRANCH  25  26
ATOM     26  O   UNL     1      12.940   7.933  -1.427  0.00  0.00    -0.484 OA
BRANCH  26  27
ATOM     27  C   UNL     1      13.940   8.835  -1.610  0.00  0.00    +0.121 A 
ATOM     28  C   UNL     1      14.576   9.399  -0.513  0.00  0.00    +0.046 A 
ATOM     29  C   UNL     1      15.596  10.311  -0.702  0.00  0.00    +0.007 A 
ATOM     30  C   UNL     1      15.976  10.671  -1.982  0.00  0.00    -0.045 A 
ATOM     31  C   UNL     1      15.340  10.114  -3.076  0.00  0.00    +0.007 A 
ATOM     32  C   UNL     1      14.323   9.197  -2.893  0.00  0.00    +0.046 A 
BRANCH  30  33
ATOM     33  C   UNL     1      17.085  11.671  -2.184  0.00  0.00    +0.013 C 
ATOM     34  C   UNL     1      16.702  12.997  -1.525  0.00  0.00    +0.012 C 
ATOM     35  C   UNL     1      18.372  11.140  -1.552  0.00  0.00    +0.012 C 
ENDBRANCH  30  33
ENDBRANCH  26  27
ENDBRANCH  25  26
ENDBRANCH   4  25
TORSDOF 8
