REMARK  Name = ZINC47152310
REMARK  7 active torsions:
REMARK  status: ('A' for Active; 'I' for Inactive)
REMARK    1  A    between atoms: C_1  and  C_2
REMARK    2  A    between atoms: C_5  and  N_8
REMARK    3  A    between atoms: C_9  and  C_11
REMARK    4  A    between atoms: C_11  and  C_13
REMARK    5  A    between atoms: C_11  and  N_14
REMARK    6  A    between atoms: C_18  and  C_19
REMARK    7  A    between atoms: C_22  and  N_25
REMARK                            x       y       z     vdW  Elec       q    Type
REMARK                         _______ _______ _______ _____ _____    ______ ____
ROOT
ATOM      1  N   UNL     1      -0.134  -6.363   2.693  0.00  0.00    -0.244 N 
ATOM      2  C   UNL     1      -0.802  -7.443   3.061  0.00  0.00    +0.259 C 
ATOM      3  O   UNL     1      -1.589  -7.995   2.314  0.00  0.00    -0.269 OA
ATOM      4  C   UNL     1      -0.544  -7.947   4.428  0.00  0.00    +0.077 C 
ATOM      5  C   UNL     1      -1.075  -9.018   5.069  0.00  0.00    +0.028 C 
ATOM      6  S   UNL     1       0.659  -6.756   5.001  0.00  0.00    -0.061 S 
ATOM      7  C   UNL     1       0.741  -5.758   3.522  0.00  0.00    +0.121 C 
ATOM      8  S   UNL     1       1.697  -4.369   3.229  0.00  0.00    -0.027 S 
ENDROOT
BRANCH   5   9
ATOM      9  C   UNL     1      -0.773  -9.247   6.489  0.00  0.00    -0.024 A 
ATOM     10  C   UNL     1      -0.107  -8.268   7.234  0.00  0.00    +0.010 A 
ATOM     11  C   UNL     1       0.172  -8.491   8.566  0.00  0.00    +0.033 A 
ATOM     12  C   UNL     1      -0.205  -9.680   9.166  0.00  0.00    +0.126 A 
ATOM     13  C   UNL     1      -0.863 -10.654   8.435  0.00  0.00    +0.033 A 
ATOM     14  C   UNL     1      -1.155 -10.445   7.104  0.00  0.00    +0.010 A 
BRANCH  12  15
ATOM     15  N   UNL     1       0.098  -9.911  10.596  0.00  0.00    +0.056 N 
ATOM     16  O   UNL     1       0.673  -9.062  11.237  0.00  0.00    -0.126 OA
ATOM     17  O   UNL     1      -0.229 -10.949  11.123  0.00  0.00    -0.126 OA
ENDBRANCH  12  15
ENDBRANCH   5   9
BRANCH   1  18
ATOM     18  C   UNL     1      -0.345  -5.814   1.351  0.00  0.00    +0.166 C 
ATOM     19  C   UNL     1       0.978  -5.825   0.582  0.00  0.00    +0.038 C 
BRANCH  18  21
ATOM     20  N   UNL     1      -1.116  -3.689   0.346  0.00  0.00    -0.284 N 
ATOM     21  C   UNL     1      -0.851  -4.399   1.461  0.00  0.00    +0.238 C 
ATOM     22  O   UNL     1      -1.018  -3.898   2.553  0.00  0.00    -0.273 OA
ATOM     23  H   UNL     1      -1.029  -4.106  -0.525  0.00  0.00    +0.155 HD
BRANCH  20  28
ATOM     24  C   UNL     1      -2.742   1.730   0.754  0.00  0.00    +0.044 C 
ATOM     25  C   UNL     1      -2.310   0.291   0.646  0.00  0.00    -0.050 A 
ATOM     26  C   UNL     1      -2.715  -0.625   1.600  0.00  0.00    +0.005 A 
ATOM     27  C   UNL     1      -2.321  -1.945   1.504  0.00  0.00    +0.023 A 
ATOM     28  C   UNL     1      -1.518  -2.353   0.447  0.00  0.00    +0.033 A 
ATOM     29  C   UNL     1      -1.113  -1.431  -0.510  0.00  0.00    +0.023 A 
ATOM     30  C   UNL     1      -1.515  -0.114  -0.411  0.00  0.00    +0.005 A 
ENDBRANCH  20  28
ENDBRANCH  18  21
ENDBRANCH   1  18
TORSDOF 5
