REMARK  Name = ZINC03861714
REMARK  11 active torsions:
REMARK  status: ('A' for Active; 'I' for Inactive)
REMARK    1  A    between atoms: C_1  and  C_2
REMARK    2  A    between atoms: C_2  and  C_28
REMARK    3  A    between atoms: C_4  and  N_11
REMARK    4  A    between atoms: C_6  and  C_9
REMARK    5  A    between atoms: C_6  and  C_10
REMARK    6  A    between atoms: N_7  and  O_8
REMARK    7  A    between atoms: N_11  and  S_12
REMARK    8  A    between atoms: S_12  and  C_15
REMARK    9  A    between atoms: C_24  and  N_25
REMARK   10  A    between atoms: N_25  and  C_26
REMARK   11  A    between atoms: N_25  and  C_27
REMARK                            x       y       z     vdW  Elec       q    Type
REMARK                         _______ _______ _______ _____ _____    ______ ____
ROOT
ATOM      1  S   UNL     1      -1.528  -1.214   1.448  0.00  0.00    +0.059 S 
ATOM      2  O   UNL     1      -1.642  -1.985   2.636  0.00  0.00    -0.153 OA
ATOM      3  O   UNL     1      -2.386  -0.116   1.167  0.00  0.00    -0.153 OA
ENDROOT
BRANCH   1   4
ATOM      4  C   UNL     1      -1.691  -2.338   0.101  0.00  0.00    +0.113 A 
ATOM      5  C   UNL     1      -2.527  -2.048  -0.934  0.00  0.00    +0.029 A 
ATOM      6  C   UNL     1      -2.668  -2.925  -2.008  0.00  0.00    +0.003 A 
ATOM      7  C   UNL     1      -1.975  -4.096  -2.052  0.00  0.00    +0.010 A 
ATOM      8  C   UNL     1      -1.104  -4.428  -1.003  0.00  0.00    +0.005 A 
ATOM      9  C   UNL     1      -0.956  -3.535   0.087  0.00  0.00    +0.010 A 
ATOM     10  C   UNL     1      -0.080  -3.864   1.136  0.00  0.00    +0.010 A 
ATOM     11  C   UNL     1       0.621  -5.030   1.097  0.00  0.00    +0.002 A 
ATOM     12  C   UNL     1       0.487  -5.913   0.029  0.00  0.00    +0.024 A 
ATOM     13  C   UNL     1      -0.368  -5.633  -1.015  0.00  0.00    +0.037 A 
BRANCH  13  14
ATOM     14  N   UNL     1      -0.495  -6.523  -2.079  0.00  0.00    -0.336 N 
ATOM     15  C   UNL     1       0.797  -6.734  -2.746  0.00  0.00    +0.129 C 
ATOM     16  C   UNL     1      -1.070  -7.799  -1.632  0.00  0.00    +0.129 C 
ENDBRANCH  13  14
ENDBRANCH   1   4
BRANCH   1  17
ATOM     17  N   UNL     1       0.020  -0.626   1.411  0.00  0.00    -0.185 NA
ATOM     18  H   UNL     1       0.632  -0.827   2.136  0.00  0.00    +0.148 HD
BRANCH  17  22
ATOM     19  C   UNL     1       2.006   2.869  -0.839  0.00  0.00    +0.030 C 
ATOM     20  C   UNL     1       1.744   2.268   0.543  0.00  0.00    +0.043 C 
ATOM     21  C   UNL     1       0.313   1.693   0.619  0.00  0.00    +0.046 C 
ATOM     22  C   UNL     1       0.465   0.196   0.283  0.00  0.00    +0.100 C 
ATOM     23  C   UNL     1       1.974  -0.009   0.033  0.00  0.00    +0.059 C 
ATOM     24  N   UNL     1       2.630   1.098   0.775  0.00  0.00    -0.178 NA
ATOM     25  C   UNL     1       2.428  -1.363   0.583  0.00  0.00    +0.031 C 
ATOM     26  C   UNL     1       2.285   0.089  -1.462  0.00  0.00    +0.031 C 
ATOM     27  C   UNL     1       1.955   3.321   1.634  0.00  0.00    +0.030 C 
BRANCH  24  28
ATOM     28  O   UNL     1       3.976   1.349   0.260  0.00  0.00    -0.311 OA
ATOM     29  H   UNL     1       4.444   2.063   0.714  0.00  0.00    +0.237 HD
ENDBRANCH  24  28
ENDBRANCH  17  22
ENDBRANCH   1  17
TORSDOF 5
