REMARK  Name = ZINC12806466
REMARK  7 active torsions:
REMARK  status: ('A' for Active; 'I' for Inactive)
REMARK    1  A    between atoms: C_1  and  C_2
REMARK    2  A    between atoms: C_2  and  C_4
REMARK    3  A    between atoms: C_2  and  N_14
REMARK    4  A    between atoms: C_15  and  C_17
REMARK    5  A    between atoms: C_17  and  N_18
REMARK    6  A    between atoms: C_19  and  C_21
REMARK    7  A    between atoms: C_25  and  N_27
REMARK                            x       y       z     vdW  Elec       q    Type
REMARK                         _______ _______ _______ _____ _____    ______ ____
ROOT
ATOM      1  N   UNL     1       5.808   3.391   0.852  0.00  0.00    -0.307 N 
ATOM      2  C   UNL     1       6.808   4.105   1.405  0.00  0.00    +0.231 C 
ATOM      3  O   UNL     1       6.901   5.293   1.179  0.00  0.00    -0.274 OA
ATOM      4  H   UNL     1       5.732   2.441   1.032  0.00  0.00    +0.149 HD
ENDROOT
BRANCH   1   6
ATOM      5  C   UNL     1       5.387   4.105  -1.449  0.00  0.00    +0.033 C 
ATOM      6  C   UNL     1       4.834   4.049  -0.024  0.00  0.00    +0.100 C 
BRANCH   6   7
ATOM      7  C   UNL     1       3.544   3.270  -0.015  0.00  0.00    -0.027 A 
ATOM      8  C   UNL     1       3.583   1.877  -0.022  0.00  0.00    +0.006 A 
ATOM      9  C   UNL     1       2.436   1.144  -0.015  0.00  0.00    +0.009 A 
ATOM     10  C   UNL     1       1.193   1.799   0.000  0.00  0.00    -0.018 A 
ATOM     11  C   UNL     1      -0.013   1.076   0.008  0.00  0.00    +0.008 A 
ATOM     12  C   UNL     1      -1.198   1.744   0.017  0.00  0.00    +0.001 A 
ATOM     13  C   UNL     1      -1.237   3.137   0.031  0.00  0.00    +0.001 A 
ATOM     14  C   UNL     1      -0.090   3.870   0.023  0.00  0.00    +0.008 A 
ATOM     15  C   UNL     1       1.153   3.215   0.008  0.00  0.00    -0.018 A 
ATOM     16  C   UNL     1       2.358   3.938  -0.001  0.00  0.00    +0.014 A 
ENDBRANCH   6   7
ENDBRANCH   1   6
BRANCH   2  17
ATOM     17  C   UNL     1       7.809   3.428   2.305  0.00  0.00    +0.200 C 
BRANCH  17  18
ATOM     18  N   UNL     1       8.786   4.412   2.776  0.00  0.00    -0.303 N 
ATOM     19  C   UNL     1       9.783   4.032   3.599  0.00  0.00    +0.245 C 
ATOM     20  O   UNL     1       9.871   2.872   3.951  0.00  0.00    -0.270 OA
ATOM     21  H   UNL     1       8.716   5.338   2.495  0.00  0.00    +0.150 HD
BRANCH  19  22
ATOM     22  C   UNL     1      10.770   5.025   4.074  0.00  0.00    +0.039 A 
ATOM     23  C   UNL     1      10.675   6.357   3.667  0.00  0.00    +0.013 A 
ATOM     24  C   UNL     1      11.596   7.280   4.117  0.00  0.00    +0.003 A 
ATOM     25  C   UNL     1      12.619   6.885   4.963  0.00  0.00    +0.033 A 
ATOM     26  C   UNL     1      12.721   5.566   5.366  0.00  0.00    +0.127 A 
ATOM     27  C   UNL     1      11.803   4.634   4.927  0.00  0.00    +0.045 A 
BRANCH  26  28
ATOM     28  N   UNL     1      13.818   5.153   6.270  0.00  0.00    +0.056 N 
ATOM     29  O   UNL     1      13.910   3.992   6.625  0.00  0.00    -0.126 OA
ATOM     30  O   UNL     1      14.629   5.975   6.658  0.00  0.00    -0.126 OA
ENDBRANCH  26  28
ENDBRANCH  19  22
ENDBRANCH  17  18
ENDBRANCH   2  17
TORSDOF 6
