REMARK  Name = ZINC29219662
REMARK  11 active torsions:
REMARK  status: ('A' for Active; 'I' for Inactive)
REMARK    1  A    between atoms: C_1  and  C_2
REMARK    2  A    between atoms: C_2  and  C_3
REMARK    3  A    between atoms: C_3  and  N_4
REMARK    4  A    between atoms: C_5  and  C_7
REMARK    5  A    between atoms: C_7  and  N_8
REMARK    6  A    between atoms: C_11  and  N_14
REMARK    7  A    between atoms: C_15  and  C_17
REMARK    8  A    between atoms: C_24  and  C_27
REMARK    9  A    between atoms: C_27  and  C_28
REMARK   10  A    between atoms: C_27  and  C_29
REMARK   11  A    between atoms: C_27  and  C_30
REMARK                            x       y       z     vdW  Elec       q    Type
REMARK                         _______ _______ _______ _____ _____    ______ ____
ROOT
ATOM      1  N   UNL     1      -7.505  -6.727  -0.924  0.00  0.00    -0.308 N 
ATOM      2  C   UNL     1      -7.851  -7.979  -1.282  0.00  0.00    +0.251 C 
ATOM      3  O   UNL     1      -7.005  -8.747  -1.703  0.00  0.00    -0.270 OA
ATOM      4  H   UNL     1      -8.179  -6.115  -0.589  0.00  0.00    +0.149 HD
ENDROOT
BRANCH   2   5
ATOM      5  C   UNL     1      -9.245  -8.417  -1.166  0.00  0.00    +0.074 A 
ATOM      6  C   UNL     1      -9.802  -9.645  -1.471  0.00  0.00    +0.024 A 
ATOM      7  C   UNL     1     -11.165  -9.784  -1.260  0.00  0.00    -0.036 A 
ATOM      8  C   UNL     1     -11.824  -8.694  -0.772  0.00  0.00    -0.006 A 
ATOM      9  S   UNL     1     -10.665  -7.506  -0.588  0.00  0.00    -0.088 S 
ATOM     10  C   UNL     1     -13.289  -8.595  -0.462  0.00  0.00    +0.043 C 
ATOM     11  C   UNL     1     -13.873 -10.013  -0.416  0.00  0.00    +0.009 C 
ATOM     12  C   UNL     1     -13.408 -10.777  -1.660  0.00  0.00    -0.001 C 
ATOM     13  C   UNL     1     -11.913 -11.082  -1.553  0.00  0.00    +0.040 C 
BRANCH  12  14
ATOM     14  C   UNL     1     -14.186 -12.089  -1.771  0.00  0.00    -0.035 C 
ATOM     15  C   UNL     1     -15.682 -11.787  -1.887  0.00  0.00    +0.011 C 
ATOM     16  C   UNL     1     -13.723 -12.854  -3.013  0.00  0.00    +0.011 C 
ATOM     17  C   UNL     1     -13.933 -12.940  -0.524  0.00  0.00    +0.011 C 
ENDBRANCH  12  14
ENDBRANCH   2   5
BRANCH   1  21
ATOM     18  N   UNL     1      -3.929  -4.704   0.014  0.00  0.00    +0.385 N 
ATOM     19  C   UNL     1      -4.604  -4.309  -1.228  0.00  0.00    -0.076 C 
ATOM     20  C   UNL     1      -6.064  -4.766  -1.187  0.00  0.00    +0.004 C 
ATOM     21  C   UNL     1      -6.112  -6.290  -1.040  0.00  0.00    +0.070 C 
ATOM     22  C   UNL     1      -5.341  -6.696   0.220  0.00  0.00    +0.004 C 
ATOM     23  C   UNL     1      -3.908  -6.167   0.127  0.00  0.00    -0.076 C 
ATOM     24  H   UNL     1      -4.424  -4.314   0.802  0.00  0.00    -0.081 HD
BRANCH  18  25
ATOM     25  C   UNL     1      -2.551  -4.195   0.004  0.00  0.00    +0.019 C 
BRANCH  25  27
ATOM     26  N   UNL     1      -1.413  -1.998   0.005  0.00  0.00    -0.317 N 
ATOM     27  C   UNL     1      -2.571  -2.688   0.012  0.00  0.00    +0.196 C 
ATOM     28  O   UNL     1      -3.630  -2.096   0.025  0.00  0.00    -0.278 OA
ATOM     29  H   UNL     1      -0.567  -2.472  -0.006  0.00  0.00    +0.149 HD
BRANCH  26  30
ATOM     30  C   UNL     1      -1.433  -0.534   0.013  0.00  0.00    +0.104 C 
BRANCH  30  32
ATOM     31  C   UNL     1      -0.019   1.526   0.010  0.00  0.00    +0.005 C 
ATOM     32  C   UNL     1       0.002  -0.004   0.002  0.00  0.00    +0.015 C 
ENDBRANCH  30  32
ENDBRANCH  26  30
ENDBRANCH  25  27
ENDBRANCH  18  25
ENDBRANCH   1  21
TORSDOF 7
