REMARK  Name = ZINC36369646
REMARK  10 active torsions:
REMARK  status: ('A' for Active; 'I' for Inactive)
REMARK    1  A    between atoms: C_1  and  C_2
REMARK    2  A    between atoms: N_9  and  C_10
REMARK    3  A    between atoms: N_17  and  C_38
REMARK    4  A    between atoms: N_20  and  C_23
REMARK    5  A    between atoms: C_23  and  C_24
REMARK    6  A    between atoms: C_24  and  C_26
REMARK    7  A    between atoms: C_24  and  C_27
REMARK    8  A    between atoms: C_27  and  N_28
REMARK    9  A    between atoms: C_30  and  C_37
REMARK   10  A    between atoms: C_33  and  C_36
REMARK                            x       y       z     vdW  Elec       q    Type
REMARK                         _______ _______ _______ _____ _____    ______ ____
ROOT
ATOM      1  C   UNL     1      -0.537   1.444   0.077  0.00  0.00    +0.065 C 
ATOM      2  C   UNL     1      -0.225  -0.030   0.031  0.00  0.00    +0.040 A 
ATOM      3  C   UNL     1      -0.230  -0.795  -1.056  0.00  0.00    +0.116 A 
ATOM      4  N   UNL     1       0.108  -2.084  -0.685  0.00  0.00    -0.277 N 
ATOM      5  C   UNL     1       0.317  -3.377  -1.140  0.00  0.00    +0.157 A 
ATOM      6  C   UNL     1       0.657  -4.137  -0.022  0.00  0.00    +0.170 A 
ATOM      7  N   UNL     1       0.645  -3.324   1.032  0.00  0.00    -0.193 NA
ATOM      8  C   UNL     1       0.320  -2.097   0.652  0.00  0.00    +0.223 A 
ATOM      9  N   UNL     1       0.121  -0.820   1.113  0.00  0.00    -0.283 N 
ATOM     10  N   UNL     1       0.924  -5.487  -0.188  0.00  0.00    -0.279 N 
ATOM     11  C   UNL     1       0.852  -6.042  -1.413  0.00  0.00    +0.333 A 
ATOM     12  O   UNL     1       1.089  -7.228  -1.541  0.00  0.00    -0.246 OA
ATOM     13  N   UNL     1       0.525  -5.318  -2.497  0.00  0.00    -0.259 N 
ATOM     14  C   UNL     1       0.255  -4.000  -2.398  0.00  0.00    +0.283 A 
ATOM     15  O   UNL     1      -0.039  -3.356  -3.390  0.00  0.00    -0.265 OA
ATOM     16  C   UNL     1       1.284  -6.311   0.969  0.00  0.00    +0.155 C 
ENDROOT
BRANCH   9  17
ATOM     17  C   UNL     1       0.244  -0.393   2.442  0.00  0.00    +0.050 A 
ATOM     18  C   UNL     1      -0.642  -0.856   3.405  0.00  0.00    +0.029 A 
ATOM     19  C   UNL     1      -0.519  -0.434   4.715  0.00  0.00    +0.040 A 
ATOM     20  C   UNL     1       0.487   0.451   5.066  0.00  0.00    +0.124 A 
ATOM     21  C   UNL     1       1.371   0.914   4.107  0.00  0.00    +0.040 A 
ATOM     22  C   UNL     1       1.256   0.489   2.797  0.00  0.00    +0.029 A 
ATOM     23  F   UNL     1       0.605   0.863   6.347  0.00  0.00    -0.205 F 
ENDBRANCH   9  17
BRANCH  13  24
ATOM     24  C   UNL     1       0.462  -5.970  -3.807  0.00  0.00    +0.131 C 
BRANCH  24  25
ATOM     25  C   UNL     1      -0.953  -6.500  -4.045  0.00  0.00    -0.011 C 
ATOM     26  C   UNL     1      -1.930  -5.325  -4.130  0.00  0.00    +0.007 C 
BRANCH  25  27
ATOM     27  C   UNL     1      -0.989  -7.288  -5.356  0.00  0.00    -0.074 C 
BRANCH  27  28
ATOM     28  N   UNL     1      -2.315  -7.897  -5.525  0.00  0.00    +0.380 N 
ATOM     29  C   UNL     1      -2.538  -8.884  -4.462  0.00  0.00    -0.076 C 
ATOM     30  C   UNL     1      -3.949  -9.463  -4.586  0.00  0.00    -0.031 C 
ATOM     31  C   UNL     1      -4.099 -10.139  -5.952  0.00  0.00    +0.003 C 
ATOM     32  C   UNL     1      -3.792  -9.119  -7.052  0.00  0.00    -0.031 C 
ATOM     33  C   UNL     1      -2.386  -8.553  -6.837  0.00  0.00    -0.076 C 
ATOM     34  C   UNL     1      -3.864  -9.803  -8.418  0.00  0.00    +0.005 C 
ATOM     35  C   UNL     1      -4.178 -10.492  -3.478  0.00  0.00    +0.005 C 
ATOM     36  H   UNL     1      -3.022  -7.180  -5.470  0.00  0.00    -0.082 HD
ENDBRANCH  27  28
ENDBRANCH  25  27
ENDBRANCH  24  25
ENDBRANCH  13  24
TORSDOF 5
