REMARK  Name = ZINC63248394
REMARK  4 active torsions:
REMARK  status: ('A' for Active; 'I' for Inactive)
REMARK    1  A    between atoms: C_1  and  C_2
REMARK    2  A    between atoms: C_4  and  C_7
REMARK    3  A    between atoms: C_7  and  N_8
REMARK    4  A    between atoms: C_16  and  C_18
REMARK                            x       y       z     vdW  Elec       q    Type
REMARK                         _______ _______ _______ _____ _____    ______ ____
ROOT
ATOM      1  N   UNL     1      -1.691  -3.832  -1.387  0.00  0.00    -0.323 N 
ATOM      2  C   UNL     1      -2.462  -4.952  -1.641  0.00  0.00    +0.131 A 
ATOM      3  C   UNL     1      -2.650  -5.411  -2.974  0.00  0.00    +0.051 A 
ATOM      4  C   UNL     1      -2.116  -4.843  -4.222  0.00  0.00    -0.025 A 
ATOM      5  C   UNL     1      -2.444  -5.469  -5.364  0.00  0.00    -0.004 A 
ATOM      6  S   UNL     1      -3.466  -6.837  -4.864  0.00  0.00    -0.073 S 
ATOM      7  C   UNL     1      -3.451  -6.559  -3.114  0.00  0.00    +0.114 A 
ATOM      8  N   UNL     1      -3.987  -7.158  -2.067  0.00  0.00    -0.225 NA
ATOM      9  C   UNL     1      -3.777  -6.686  -0.853  0.00  0.00    +0.129 A 
ATOM     10  N   UNL     1      -3.031  -5.616  -0.648  0.00  0.00    -0.217 NA
ATOM     11  C   UNL     1      -4.399  -7.388   0.327  0.00  0.00    +0.088 C 
ATOM     12  C   UNL     1      -1.848  -4.798  -6.572  0.00  0.00    +0.043 C 
ATOM     13  C   UNL     1      -1.440  -3.395  -6.074  0.00  0.00    +0.010 C 
ATOM     14  C   UNL     1      -1.224  -3.647  -4.569  0.00  0.00    +0.037 C 
ATOM     15  H   UNL     1      -1.278  -3.351  -2.121  0.00  0.00    +0.148 HD
ENDROOT
BRANCH   1  16
ATOM     16  C   UNL     1      -1.500  -3.372  -0.010  0.00  0.00    +0.162 C 
BRANCH  16  20
ATOM     17  C   UNL     1      -0.018   1.503   0.010  0.00  0.00    +0.089 C 
ATOM     18  C   UNL     1       0.002  -0.004   0.002  0.00  0.00    +0.135 A 
ATOM     19  C   UNL     1      -1.077  -0.810   0.003  0.00  0.00    +0.072 A 
ATOM     20  C   UNL     1      -0.627  -2.143  -0.007  0.00  0.00    +0.101 A 
ATOM     21  N   UNL     1       0.676  -2.130  -0.013  0.00  0.00    -0.081 NA
ATOM     22  O   UNL     1       1.098  -0.778  -0.013  0.00  0.00    -0.360 OA
ENDBRANCH  16  20
ENDBRANCH   1  16
TORSDOF 2
