REMARK  Name = ZINC32729038
REMARK  10 active torsions:
REMARK  status: ('A' for Active; 'I' for Inactive)
REMARK    1  A    between atoms: C_1  and  N_2
REMARK    2  A    between atoms: N_2  and  C_3
REMARK    3  A    between atoms: N_2  and  C_4
REMARK    4  A    between atoms: C_4  and  C_6
REMARK    5  A    between atoms: C_4  and  C_24
REMARK    6  A    between atoms: C_6  and  N_7
REMARK    7  A    between atoms: C_8  and  C_10
REMARK    8  A    between atoms: C_12  and  S_17
REMARK    9  A    between atoms: S_17  and  N_20
REMARK   10  A    between atoms: N_20  and  C_21
REMARK                            x       y       z     vdW  Elec       q    Type
REMARK                         _______ _______ _______ _____ _____    ______ ____
ROOT
ATOM      1  N   UNL     1      -3.495   0.198  -2.062  0.00  0.00    -0.313 N 
ATOM      2  C   UNL     1      -3.744   0.074  -3.381  0.00  0.00    +0.245 C 
ATOM      3  O   UNL     1      -2.942   0.494  -4.193  0.00  0.00    -0.270 OA
ATOM      4  H   UNL     1      -4.220  -0.182  -1.328  0.00  0.00    +0.149 HD
ENDROOT
BRANCH   2   5
ATOM      5  C   UNL     1      -4.990  -0.574  -3.840  0.00  0.00    +0.052 A 
ATOM      6  C   UNL     1      -5.910  -1.063  -2.910  0.00  0.00    +0.042 A 
ATOM      7  C   UNL     1      -7.074  -1.662  -3.345  0.00  0.00    +0.106 A 
ATOM      8  C   UNL     1      -7.327  -1.788  -4.700  0.00  0.00    +0.029 A 
ATOM      9  C   UNL     1      -6.418  -1.311  -5.627  0.00  0.00    +0.018 A 
ATOM     10  C   UNL     1      -5.251  -0.705  -5.206  0.00  0.00    +0.030 A 
ATOM     11 BR   UNL     1      -4.010  -0.052  -6.475  0.00  0.00    -0.050 Br
BRANCH   7  12
ATOM     12  S   UNL     1      -8.238  -2.274  -2.173  0.00  0.00    +0.059 S 
ATOM     13  O   UNL     1      -8.025  -1.546  -0.971  0.00  0.00    -0.153 OA
ATOM     14  O   UNL     1      -9.497  -2.307  -2.831  0.00  0.00    -0.153 OA
BRANCH  12  15
ATOM     15  N   UNL     1      -7.830  -3.846  -1.853  0.00  0.00    -0.187 NA
ATOM     16  H   UNL     1      -8.437  -4.657  -2.282  0.00  0.00    +0.148 HD
BRANCH  15  17
ATOM     17  C   UNL     1      -6.558  -4.154  -1.194  0.00  0.00    +0.077 C 
ATOM     18  C   UNL     1      -5.854  -5.454  -1.588  0.00  0.00    +0.022 C 
ATOM     19  C   UNL     1      -6.533  -5.335  -0.222  0.00  0.00    +0.022 C 
ENDBRANCH  15  17
ENDBRANCH  12  15
ENDBRANCH   7  12
ENDBRANCH   2   5
BRANCH   1  20
ATOM     20  C   UNL     1      -2.259   0.840  -1.607  0.00  0.00    +0.094 C 
BRANCH  20  21
ATOM     21  C   UNL     1      -2.304   1.012  -0.088  0.00  0.00    -0.021 C 
BRANCH  21  22
ATOM     22  C   UNL     1      -0.993   1.580   0.392  0.00  0.00    -0.057 A 
ATOM     23  C   UNL     1      -0.741   2.935   0.272  0.00  0.00    +0.002 A 
ATOM     24  C   UNL     1       0.463   3.456   0.707  0.00  0.00    +0.003 A 
ATOM     25  C   UNL     1       1.415   2.625   1.265  0.00  0.00    +0.038 A 
ATOM     26  C   UNL     1       1.162   1.270   1.391  0.00  0.00    +0.124 A 
ATOM     27  C   UNL     1      -0.044   0.748   0.956  0.00  0.00    +0.040 A 
ATOM     28  F   UNL     1       2.093   0.456   1.936  0.00  0.00    -0.205 F 
ENDBRANCH  21  22
BRANCH  21  30
ATOM     29  C   UNL     1      -3.652   2.887  -0.814  0.00  0.00    -0.096 C 
ATOM     30  N   UNL     1      -3.394   1.929   0.269  0.00  0.00    +0.382 N 
ATOM     31  C   UNL     1      -4.614   1.187   0.617  0.00  0.00    -0.096 C 
ATOM     32  H   UNL     1      -3.081   2.499   1.157  0.00  0.00    -0.082 HD
ENDBRANCH  21  30
ENDBRANCH  20  21
ENDBRANCH   1  20
TORSDOF 8
