REMARK  Name = ZINC66751487
REMARK  7 active torsions:
REMARK  status: ('A' for Active; 'I' for Inactive)
REMARK    1  A    between atoms: C_1  and  C_2
REMARK    2  A    between atoms: C_2  and  C_4
REMARK    3  A    between atoms: C_2  and  N_15
REMARK    4  A    between atoms: C_8  and  S_10
REMARK    5  A    between atoms: S_10  and  N_13
REMARK    6  A    between atoms: N_13  and  C_14
REMARK    7  A    between atoms: C_16  and  C_18
REMARK                            x       y       z     vdW  Elec       q    Type
REMARK                         _______ _______ _______ _____ _____    ______ ____
ROOT
ATOM      1  C   UNL     1      -0.019   1.526   0.010  0.00  0.00    +0.033 C 
ATOM      2  C   UNL     1       0.002  -0.004   0.002  0.00  0.00    +0.100 C 
ENDROOT
BRANCH   2   3
ATOM      3  C   UNL     1       0.707  -0.490  -1.238  0.00  0.00    -0.026 A 
ATOM      4  C   UNL     1       2.089  -0.511  -1.284  0.00  0.00    +0.005 A 
ATOM      5  C   UNL     1       2.736  -0.957  -2.421  0.00  0.00    +0.002 A 
ATOM      6  C   UNL     1       2.002  -1.382  -3.512  0.00  0.00    +0.028 A 
ATOM      7  C   UNL     1       0.620  -1.362  -3.466  0.00  0.00    +0.106 A 
ATOM      8  C   UNL     1      -0.027  -0.920  -2.327  0.00  0.00    +0.034 A 
BRANCH   7   9
ATOM      9  S   UNL     1      -0.316  -1.904  -4.857  0.00  0.00    +0.058 S 
ATOM     10  O   UNL     1      -1.586  -1.274  -4.762  0.00  0.00    -0.153 OA
ATOM     11  O   UNL     1       0.524  -1.758  -5.994  0.00  0.00    -0.153 OA
BRANCH   9  12
ATOM     12  N   UNL     1      -0.578  -3.528  -4.668  0.00  0.00    -0.193 NA
ATOM     13  C   UNL     1      -1.396  -4.014  -3.554  0.00  0.00    +0.127 C 
ATOM     14  H   UNL     1      -0.190  -4.158  -5.295  0.00  0.00    +0.148 HD
ENDBRANCH   9  12
ENDBRANCH   7   9
ENDBRANCH   2   3
BRANCH   2  15
ATOM     15  N   UNL     1       0.711  -0.489   1.189  0.00  0.00    -0.306 N 
ATOM     16  C   UNL     1       0.051  -0.633   2.355  0.00  0.00    +0.255 C 
ATOM     17  O   UNL     1      -1.129  -0.361   2.423  0.00  0.00    -0.272 OA
ATOM     18  H   UNL     1       1.654  -0.707   1.135  0.00  0.00    +0.149 HD
BRANCH  16  19
ATOM     19  C   UNL     1       0.780  -1.133   3.576  0.00  0.00    +0.263 C 
ATOM     20  C   UNL     1       1.203  -2.610   3.396  0.00  0.00    +0.093 C 
ATOM     21  C   UNL     1       1.018  -3.162   4.796  0.00  0.00    -0.002 A 
ATOM     22  C   UNL     1       1.462  -4.317   5.401  0.00  0.00    +0.007 A 
ATOM     23  C   UNL     1       1.144  -4.572   6.723  0.00  0.00    +0.000 A 
ATOM     24  C   UNL     1       0.381  -3.663   7.433  0.00  0.00    +0.004 A 
ATOM     25  C   UNL     1      -0.068  -2.507   6.828  0.00  0.00    +0.046 A 
ATOM     26  C   UNL     1       0.245  -2.245   5.497  0.00  0.00    +0.125 A 
ATOM     27  O   UNL     1      -0.102  -1.186   4.710  0.00  0.00    -0.479 OA
ENDBRANCH  16  19
ENDBRANCH   2  15
TORSDOF 5
