REMARK  Name = ZINC12539506
REMARK  8 active torsions:
REMARK  status: ('A' for Active; 'I' for Inactive)
REMARK    1  A    between atoms: C_1  and  C_2
REMARK    2  A    between atoms: C_2  and  C_3
REMARK    3  A    between atoms: C_2  and  C_4
REMARK    4  A    between atoms: C_7  and  S_10
REMARK    5  A    between atoms: S_10  and  N_13
REMARK    6  A    between atoms: C_19  and  C_21
REMARK    7  A    between atoms: C_24  and  N_30
REMARK    8  A    between atoms: C_25  and  N_27
REMARK                            x       y       z     vdW  Elec       q    Type
REMARK                         _______ _______ _______ _____ _____    ______ ____
ROOT
ATOM      1  N   UNL     1      -7.470  -1.352  -1.081  0.00  0.00    -0.174 NA
ATOM      2  C   UNL     1      -8.111  -0.276  -0.313  0.00  0.00    +0.128 C 
ATOM      3  C   UNL     1      -7.405   1.046  -0.637  0.00  0.00    +0.125 C 
ATOM      4  N   UNL     1      -7.308   1.180  -2.098  0.00  0.00    -0.295 N 
ATOM      5  C   UNL     1      -6.666   0.104  -2.866  0.00  0.00    +0.125 C 
ATOM      6  C   UNL     1      -7.367  -1.216  -2.541  0.00  0.00    +0.128 C 
ATOM      7  C   UNL     1      -7.798   2.270  -2.721  0.00  0.00    +0.247 C 
ATOM      8  O   UNL     1      -7.651   2.402  -3.920  0.00  0.00    -0.270 OA
ENDROOT
BRANCH   7   9
ATOM      9  C   UNL     1      -8.513   3.302  -1.947  0.00  0.00    +0.039 A 
ATOM     10  C   UNL     1      -7.930   3.848  -0.799  0.00  0.00    +0.015 A 
ATOM     11  C   UNL     1      -8.600   4.811  -0.080  0.00  0.00    +0.026 A 
ATOM     12  C   UNL     1      -9.857   5.242  -0.494  0.00  0.00    +0.060 A 
ATOM     13  C   UNL     1     -10.441   4.701  -1.636  0.00  0.00    +0.148 A 
ATOM     14  C   UNL     1      -9.774   3.741  -2.363  0.00  0.00    +0.047 A 
BRANCH  12  15
ATOM     15  N   UNL     1     -10.532   6.215   0.235  0.00  0.00    -0.328 N 
ATOM     16  C   UNL     1     -11.453   5.963   1.353  0.00  0.00    +0.105 C 
ATOM     17  C   UNL     1     -11.977   7.333   1.831  0.00  0.00    +0.020 C 
ATOM     18  C   UNL     1     -11.760   8.241   0.592  0.00  0.00    +0.020 C 
ATOM     19  C   UNL     1     -10.436   7.670   0.019  0.00  0.00    +0.105 C 
ENDBRANCH  12  15
BRANCH  13  20
ATOM     20  N   UNL     1     -11.778   5.161  -2.072  0.00  0.00    +0.058 N 
ATOM     21  O   UNL     1     -12.286   4.691  -3.064  0.00  0.00    -0.126 OA
ATOM     22  O   UNL     1     -12.363   6.007  -1.436  0.00  0.00    -0.126 OA
ENDBRANCH  13  20
ENDBRANCH   7   9
BRANCH   1  23
ATOM     23  S   UNL     1      -6.867  -2.691  -0.316  0.00  0.00    +0.061 S 
ATOM     24  O   UNL     1      -6.837  -3.733  -1.282  0.00  0.00    -0.153 OA
ATOM     25  O   UNL     1      -7.575  -2.811   0.911  0.00  0.00    -0.153 OA
BRANCH  23  29
ATOM     26  C   UNL     1      -2.561  -1.798   0.757  0.00  0.00    -0.045 A 
ATOM     27  C   UNL     1      -3.573  -1.491   1.647  0.00  0.00    +0.006 A 
ATOM     28  C   UNL     1      -4.888  -1.763   1.319  0.00  0.00    +0.029 A 
ATOM     29  C   UNL     1      -5.191  -2.343   0.101  0.00  0.00    +0.105 A 
ATOM     30  C   UNL     1      -4.179  -2.650  -0.789  0.00  0.00    +0.029 A 
ATOM     31  C   UNL     1      -2.864  -2.373  -0.463  0.00  0.00    +0.006 A 
BRANCH  26  33
ATOM     32  C   UNL     1      -0.964  -0.001   1.363  0.00  0.00    +0.012 C 
ATOM     33  C   UNL     1      -1.127  -1.501   1.114  0.00  0.00    +0.013 C 
ATOM     34  C   UNL     1      -0.747  -2.272   2.380  0.00  0.00    +0.012 C 
ENDBRANCH  26  33
ENDBRANCH  23  29
ENDBRANCH   1  23
TORSDOF 6
