REMARK  Name = ZINC05545042
REMARK  5 active torsions:
REMARK  status: ('A' for Active; 'I' for Inactive)
REMARK    1  A    between atoms: C_1  and  C_2
REMARK    2  A    between atoms: C_5  and  N_8
REMARK    3  A    between atoms: N_8  and  P_9
REMARK    4  A    between atoms: N_13  and  C_18
REMARK    5  A    between atoms: N_16  and  C_17
REMARK                            x       y       z     vdW  Elec       q    Type
REMARK                         _______ _______ _______ _____ _____    ______ ____
ROOT
ATOM      1  P   UNL     1      -1.407  -0.843   0.011  0.00  0.00    +0.275 P 
ATOM      2  O   UNL     1      -2.203  -0.449  -1.173  0.00  0.00    -0.274 OA
ATOM      3  C   UNL     1      -2.345  -0.408   1.527  0.00  0.00    +0.114 C 
ATOM      4  C   UNL     1      -2.607  -1.458   2.311  0.00  0.00    +0.111 C 
ATOM      5  N   UNL     1      -2.199  -2.729   1.982  0.00  0.00    -0.248 N 
ATOM      6  C   UNL     1      -1.527  -3.203   0.947  0.00  0.00    +0.316 C 
ATOM      7  O   UNL     1      -1.306  -4.398   0.926  0.00  0.00    -0.252 OA
ATOM      8  N   UNL     1      -1.064  -2.467  -0.094  0.00  0.00    -0.221 N 
ATOM      9  C   UNL     1      -0.325  -3.053  -1.215  0.00  0.00    +0.143 C 
ATOM     10  C   UNL     1      -2.579  -3.749   2.963  0.00  0.00    +0.141 C 
ATOM     11 CL   UNL     1      -3.490  -1.211   3.785  0.00  0.00    -0.066 Cl
ENDROOT
BRANCH   1  12
ATOM     12  N   UNL     1       0.002  -0.004   0.002  0.00  0.00    -0.277 N 
ATOM     13  H   UNL     1       0.849  -0.478  -0.009  0.00  0.00    +0.155 HD
BRANCH  12  18
ATOM     14  C   UNL     1      -0.075   5.666   0.032  0.00  0.00    +0.044 C 
ATOM     15  C   UNL     1      -0.054   4.159   0.024  0.00  0.00    -0.050 A 
ATOM     16  C   UNL     1       1.153   3.486   0.009  0.00  0.00    +0.005 A 
ATOM     17  C   UNL     1       1.176   2.105   0.002  0.00  0.00    +0.023 A 
ATOM     18  C   UNL     1      -0.017   1.393   0.010  0.00  0.00    +0.034 A 
ATOM     19  C   UNL     1      -1.228   2.072   0.019  0.00  0.00    +0.023 A 
ATOM     20  C   UNL     1      -1.243   3.453   0.032  0.00  0.00    +0.005 A 
ENDBRANCH  12  18
ENDBRANCH   1  12
TORSDOF 2
