REMARK  Name = ZINC23185521
REMARK  5 active torsions:
REMARK  status: ('A' for Active; 'I' for Inactive)
REMARK    1  A    between atoms: C_7  and  C_11
REMARK    2  A    between atoms: N_14  and  C_17
REMARK    3  A    between atoms: C_17  and  C_18
REMARK    4  A    between atoms: N_28  and  C_29
REMARK    5  A    between atoms: C_29  and  C_30
REMARK                            x       y       z     vdW  Elec       q    Type
REMARK                         _______ _______ _______ _____ _____    ______ ____
ROOT
ATOM      1  C   UNL     1      -0.776   6.405  -0.167  0.00  0.00    +0.018 C 
ATOM      2  C   UNL     1      -0.348   7.397  -1.252  0.00  0.00    -0.011 C 
ATOM      3  C   UNL     1      -1.298   8.597  -1.243  0.00  0.00    -0.078 C 
ATOM      4  N   UNL     1      -1.262   9.241   0.076  0.00  0.00    +0.384 N 
ATOM      5  C   UNL     1      -1.714   8.322   1.129  0.00  0.00    -0.078 C 
ATOM      6  C   UNL     1      -0.776   7.114   1.190  0.00  0.00    -0.011 C 
ATOM      7  H   UNL     1      -0.217   9.508   0.290  0.00  0.00    -0.081 HD
ENDROOT
BRANCH   1  14
ATOM      8  C   UNL     1      -1.274   1.785  -0.785  0.00  0.00    +0.001 A 
ATOM      9  C   UNL     1      -0.080   1.090  -0.652  0.00  0.00    +0.002 A 
ATOM     10  C   UNL     1       1.093   1.756  -0.374  0.00  0.00    +0.026 A 
ATOM     11  C   UNL     1       1.083   3.138  -0.218  0.00  0.00    +0.047 A 
ATOM     12  C   UNL     1      -0.131   3.837  -0.347  0.00  0.00    +0.003 A 
ATOM     13  C   UNL     1      -1.308   3.142  -0.630  0.00  0.00    +0.010 A 
ATOM     14  C   UNL     1       0.191   5.250  -0.131  0.00  0.00    -0.019 A 
ATOM     15  C   UNL     1       1.511   5.320   0.105  0.00  0.00    +0.087 A 
ATOM     16  N   UNL     1       2.061   4.068   0.057  0.00  0.00    -0.360 N 
ATOM     17  H   UNL     1       3.102   3.745   0.199  0.00  0.00    +0.165 HD
ENDBRANCH   1  14
BRANCH   4  18
ATOM     18  C   UNL     1      -2.056  10.477   0.080  0.00  0.00    -0.003 C 
BRANCH  18  19
ATOM     19  C   UNL     1      -1.784  11.244   1.349  0.00  0.00    +0.097 A 
ATOM     20  N   UNL     1      -0.861  10.805   2.149  0.00  0.00    -0.235 NA
ATOM     21  C   UNL     1      -0.561  11.443   3.308  0.00  0.00    +0.078 A 
ATOM     22  C   UNL     1       0.432  10.971   4.168  0.00  0.00    +0.028 A 
ATOM     23  C   UNL     1       0.704  11.651   5.334  0.00  0.00    +0.002 A 
ATOM     24  C   UNL     1       0.002  12.802   5.666  0.00  0.00    +0.001 A 
ATOM     25  C   UNL     1      -0.983  13.288   4.833  0.00  0.00    +0.015 A 
ATOM     26  C   UNL     1      -1.273  12.614   3.649  0.00  0.00    +0.065 A 
ATOM     27  C   UNL     1      -2.312  13.085   2.721  0.00  0.00    +0.263 A 
ATOM     28  O   UNL     1      -2.962  14.087   2.955  0.00  0.00    -0.267 OA
ATOM     29  N   UNL     1      -2.514  12.364   1.594  0.00  0.00    -0.284 N 
BRANCH  29  30
ATOM     30  C   UNL     1      -3.534  12.790   0.632  0.00  0.00    +0.245 C 
BRANCH  30  31
ATOM     31  C   UNL     1      -4.823  12.169   0.976  0.00  0.00    +0.084 C 
ATOM     32  N   UNL     1      -5.818  11.689   1.241  0.00  0.00    -0.195 NA
ENDBRANCH  30  31
ENDBRANCH  29  30
ENDBRANCH  18  19
ENDBRANCH   4  18
TORSDOF 5
