REMARK  Name = ZINC61882451
REMARK  5 active torsions:
REMARK  status: ('A' for Active; 'I' for Inactive)
REMARK    1  A    between atoms: C_4  and  S_9
REMARK    2  A    between atoms: C_6  and  N_7
REMARK    3  A    between atoms: S_9  and  N_12
REMARK    4  A    between atoms: N_12  and  C_13
REMARK    5  A    between atoms: N_17  and  C_19
REMARK                            x       y       z     vdW  Elec       q    Type
REMARK                         _______ _______ _______ _____ _____    ______ ____
ROOT
ATOM      1  S   UNL     1       4.072  -0.943  -0.102  0.00  0.00    +0.060 S 
ATOM      2  O   UNL     1       4.196  -2.057  -0.975  0.00  0.00    -0.153 OA
ATOM      3  O   UNL     1       4.971   0.157  -0.138  0.00  0.00    -0.153 OA
ENDROOT
BRANCH   1   7
ATOM      4  C   UNL     1      -0.081   0.750  -0.755  0.00  0.00    +0.044 A 
ATOM      5  C   UNL     1       0.353  -0.330  -1.501  0.00  0.00    +0.045 A 
ATOM      6  C   UNL     1       1.622  -0.845  -1.300  0.00  0.00    +0.049 A 
ATOM      7  C   UNL     1       2.458  -0.283  -0.353  0.00  0.00    +0.122 A 
ATOM      8  C   UNL     1       2.030   0.796   0.396  0.00  0.00    +0.065 A 
ATOM      9  C   UNL     1       0.756   1.317   0.196  0.00  0.00    +0.042 A 
ATOM     10 BR   UNL     1       3.174   1.564   1.690  0.00  0.00    -0.046 Br
ATOM     11 CL   UNL     1      -0.693  -1.040  -2.690  0.00  0.00    -0.083 Cl
BRANCH   9  12
ATOM     12  N   UNL     1       0.320   2.409   0.951  0.00  0.00    -0.357 N 
ATOM     13  H   UNL     1      -0.569   2.771   0.811  0.00  0.00    +0.142 HD
ATOM     14  H   UNL     1       0.906   2.804   1.615  0.00  0.00    +0.142 HD
ENDBRANCH   9  12
ENDBRANCH   1   7
BRANCH   1  15
ATOM     15  N   UNL     1       4.121  -1.543   1.441  0.00  0.00    -0.189 NA
ATOM     16  H   UNL     1       4.713  -1.144   2.098  0.00  0.00    +0.148 HD
BRANCH  15  17
ATOM     17  C   UNL     1       3.270  -2.676   1.813  0.00  0.00    +0.058 C 
ATOM     18  C   UNL     1       2.019  -2.179   2.574  0.00  0.00    -0.000 C 
ATOM     19  C   UNL     1       1.833  -3.255   3.674  0.00  0.00    -0.077 C 
ATOM     20  N   UNL     1       3.227  -3.587   4.064  0.00  0.00    +0.383 N 
ATOM     21  C   UNL     1       4.007  -3.595   2.804  0.00  0.00    -0.058 C 
ATOM     22  H   UNL     1       3.589  -2.886   4.693  0.00  0.00    -0.081 HD
BRANCH  20  23
ATOM     23  C   UNL     1       3.274  -4.912   4.696  0.00  0.00    -0.069 C 
ATOM     24  C   UNL     1       3.630  -4.973   6.183  0.00  0.00    -0.017 C 
ATOM     25  C   UNL     1       4.643  -5.437   5.135  0.00  0.00    -0.017 C 
ENDBRANCH  20  23
ENDBRANCH  15  17
ENDBRANCH   1  15
TORSDOF 5
