REMARK  Name = ZINC36307538
REMARK  15 active torsions:
REMARK  status: ('A' for Active; 'I' for Inactive)
REMARK    1  A    between atoms: C_1  and  C_2
REMARK    2  A    between atoms: C_2  and  C_3
REMARK    3  A    between atoms: C_2  and  N_4
REMARK    4  A    between atoms: N_4  and  C_5
REMARK    5  A    between atoms: N_4  and  C_26
REMARK    6  A    between atoms: C_5  and  C_6
REMARK    7  A    between atoms: C_7  and  C_20
REMARK    8  A    between atoms: N_9  and  C_19
REMARK    9  A    between atoms: C_10  and  O_11
REMARK   10  A    between atoms: O_11  and  C_12
REMARK   11  A    between atoms: C_26  and  C_27
REMARK   12  A    between atoms: C_27  and  C_29
REMARK   13  A    between atoms: C_27  and  O_37
REMARK   14  A    between atoms: C_29  and  O_30
REMARK   15  A    between atoms: O_30  and  C_31
REMARK                            x       y       z     vdW  Elec       q    Type
REMARK                         _______ _______ _______ _____ _____    ______ ____
ROOT
ATOM      1  C   UNL     1      -0.841  -2.290   0.841  0.00  0.00    +0.025 A 
ATOM      2  C   UNL     1       0.137  -3.302   0.880  0.00  0.00    +0.098 A 
ATOM      3  N   UNL     1       0.335  -3.632   2.138  0.00  0.00    -0.168 NA
ATOM      4  N   UNL     1      -0.506  -2.846   2.936  0.00  0.00    -0.235 N 
ATOM      5  C   UNL     1      -1.215  -2.025   2.119  0.00  0.00    +0.221 A 
ATOM      6  C   UNL     1      -0.601  -2.896   4.397  0.00  0.00    +0.176 C 
ENDROOT
BRANCH   2   7
ATOM      7  C   UNL     1       0.826  -3.893  -0.294  0.00  0.00    +0.002 A 
ATOM      8  C   UNL     1       0.109  -4.180  -1.454  0.00  0.00    +0.010 A 
ATOM      9  C   UNL     1       0.755  -4.729  -2.543  0.00  0.00    +0.001 A 
ATOM     10  C   UNL     1       2.111  -4.995  -2.485  0.00  0.00    +0.000 A 
ATOM     11  C   UNL     1       2.827  -4.713  -1.336  0.00  0.00    +0.001 A 
ATOM     12  C   UNL     1       2.193  -4.158  -0.243  0.00  0.00    +0.010 A 
ENDBRANCH   2   7
BRANCH   1  13
ATOM     13  C   UNL     1      -1.373  -1.616  -0.398  0.00  0.00    -0.035 C 
BRANCH  13  14
ATOM     14  N   UNL     1      -1.065  -0.181  -0.345  0.00  0.00    +0.386 N 
ATOM     15  H   UNL     1      -1.336   0.189   0.553  0.00  0.00    -0.081 HD
BRANCH  14  17
ATOM     16  C   UNL     1       1.139  -0.550   0.658  0.00  0.00    -0.014 C 
ATOM     17  C   UNL     1       0.378   0.018  -0.541  0.00  0.00    -0.074 C 
ATOM     18  C   UNL     1       0.823  -0.702  -1.815  0.00  0.00    -0.014 C 
ENDBRANCH  14  17
BRANCH  14  19
ATOM     19  C   UNL     1      -1.804   0.518  -1.405  0.00  0.00    -0.043 C 
BRANCH  19  20
ATOM     20  C   UNL     1      -1.593   2.027  -1.265  0.00  0.00    +0.135 C 
BRANCH  20  21
ATOM     21  O   UNL     1      -2.093   2.462   0.001  0.00  0.00    -0.390 OA
ATOM     22  H   UNL     1      -3.036   2.292   0.130  0.00  0.00    +0.210 HD
ENDBRANCH  20  21
BRANCH  20  23
ATOM     23  C   UNL     1      -2.340   2.753  -2.386  0.00  0.00    +0.258 C 
BRANCH  23  24
ATOM     24  O   UNL     1      -2.049   4.150  -2.325  0.00  0.00    -0.489 OA
BRANCH  24  25
ATOM     25  C   UNL     1      -2.638   4.944  -3.257  0.00  0.00    +0.121 A 
ATOM     26  C   UNL     1      -3.482   4.390  -4.208  0.00  0.00    +0.045 A 
ATOM     27  C   UNL     1      -4.080   5.200  -5.155  0.00  0.00    +0.004 A 
ATOM     28  C   UNL     1      -3.836   6.561  -5.156  0.00  0.00    +0.000 A 
ATOM     29  C   UNL     1      -2.994   7.115  -4.209  0.00  0.00    +0.004 A 
ATOM     30  C   UNL     1      -2.399   6.311  -3.257  0.00  0.00    +0.045 A 
ENDBRANCH  24  25
ENDBRANCH  23  24
ENDBRANCH  20  23
ENDBRANCH  19  20
ENDBRANCH  14  19
ENDBRANCH  13  14
ENDBRANCH   1  13
BRANCH   5  31
ATOM     31  O   UNL     1      -2.134  -1.106   2.509  0.00  0.00    -0.438 OA
BRANCH  31  32
ATOM     32  C   UNL     1      -3.418  -1.519   2.676  0.00  0.00    +0.131 A 
ATOM     33  C   UNL     1      -3.736  -2.864   2.557  0.00  0.00    +0.049 A 
ATOM     34  C   UNL     1      -5.041  -3.283   2.727  0.00  0.00    +0.042 A 
ATOM     35  C   UNL     1      -6.033  -2.361   3.016  0.00  0.00    +0.124 A 
ATOM     36  C   UNL     1      -5.717  -1.018   3.136  0.00  0.00    +0.042 A 
ATOM     37  C   UNL     1      -4.412  -0.597   2.972  0.00  0.00    +0.049 A 
ATOM     38  F   UNL     1      -7.309  -2.771   3.181  0.00  0.00    -0.205 F 
ENDBRANCH  31  32
ENDBRANCH   5  31
TORSDOF 12
