REMARK  Name = ZINC09728948
REMARK  9 active torsions:
REMARK  status: ('A' for Active; 'I' for Inactive)
REMARK    1  A    between atoms: C_1  and  C_2
REMARK    2  A    between atoms: C_5  and  C_9
REMARK    3  A    between atoms: C_7  and  C_8
REMARK    4  A    between atoms: C_9  and  C_30
REMARK    5  A    between atoms: N_12  and  C_16
REMARK    6  A    between atoms: C_16  and  C_17
REMARK    7  A    between atoms: N_19  and  C_20
REMARK    8  A    between atoms: C_20  and  C_22
REMARK    9  A    between atoms: C_20  and  C_23
REMARK                            x       y       z     vdW  Elec       q    Type
REMARK                         _______ _______ _______ _____ _____    ______ ____
ROOT
ATOM      1  C   UNL     1       0.640   3.376   0.014  0.00  0.00    +0.164 C 
ATOM      2  C   UNL     1      -0.678   3.638  -0.687  0.00  0.00    +0.256 C 
ATOM      3  O   UNL     1      -1.033   4.670  -1.216  0.00  0.00    -0.272 OA
ATOM      4  N   UNL     1      -1.371   2.485  -0.604  0.00  0.00    -0.215 N 
ATOM      5  C   UNL     1      -0.684   1.543   0.053  0.00  0.00    +0.310 C 
ATOM      6  O   UNL     1      -1.103   0.421   0.257  0.00  0.00    -0.252 OA
ATOM      7  N   UNL     1       0.524   1.975   0.457  0.00  0.00    -0.278 N 
ATOM      8  H   UNL     1       1.189   1.464   0.944  0.00  0.00    +0.152 HD
ENDROOT
BRANCH   1  13
ATOM      9  C   UNL     1       1.280   6.896   4.552  0.00  0.00    +0.044 C 
ATOM     10  C   UNL     1       1.113   5.978   3.369  0.00  0.00    -0.048 A 
ATOM     11  C   UNL     1       0.787   6.499   2.130  0.00  0.00    +0.004 A 
ATOM     12  C   UNL     1       0.634   5.657   1.045  0.00  0.00    +0.007 A 
ATOM     13  C   UNL     1       0.807   4.294   1.198  0.00  0.00    -0.010 A 
ATOM     14  C   UNL     1       1.127   3.772   2.437  0.00  0.00    +0.010 A 
ATOM     15  C   UNL     1       1.285   4.615   3.522  0.00  0.00    -0.047 A 
ATOM     16  C   UNL     1       1.640   4.047   4.872  0.00  0.00    +0.044 C 
ENDBRANCH   1  13
BRANCH   1  17
ATOM     17  C   UNL     1       1.792   3.535  -0.945  0.00  0.00    -0.011 A 
ATOM     18  C   UNL     1       2.780   2.570  -1.004  0.00  0.00    +0.006 A 
ATOM     19  C   UNL     1       3.834   2.713  -1.887  0.00  0.00    +0.000 A 
ATOM     20  C   UNL     1       3.905   3.827  -2.704  0.00  0.00    +0.000 A 
ATOM     21  C   UNL     1       2.919   4.794  -2.641  0.00  0.00    +0.000 A 
ATOM     22  C   UNL     1       1.862   4.648  -1.762  0.00  0.00    +0.006 A 
ENDBRANCH   1  17
BRANCH   4  23
ATOM     23  C   UNL     1      -2.711   2.289  -1.162  0.00  0.00    +0.213 C 
BRANCH  23  24
ATOM     24  C   UNL     1      -3.744   2.658  -0.129  0.00  0.00    +0.231 C 
ATOM     25  O   UNL     1      -3.395   3.047   0.965  0.00  0.00    -0.274 OA
ATOM     26  N   UNL     1      -5.056   2.556  -0.421  0.00  0.00    -0.307 N 
ATOM     27  H   UNL     1      -5.335   2.245  -1.296  0.00  0.00    +0.149 HD
BRANCH  26  28
ATOM     28  C   UNL     1      -6.060   2.915   0.583  0.00  0.00    +0.100 C 
ATOM     29  C   UNL     1      -6.316   4.423   0.532  0.00  0.00    +0.033 C 
BRANCH  28  30
ATOM     30  C   UNL     1      -7.343   2.178   0.297  0.00  0.00    -0.027 A 
ATOM     31  C   UNL     1      -7.779   2.030  -1.006  0.00  0.00    +0.007 A 
ATOM     32  C   UNL     1      -8.952   1.349  -1.270  0.00  0.00    +0.020 A 
ATOM     33  C   UNL     1      -9.696   0.825  -0.228  0.00  0.00    +0.041 A 
ATOM     34  C   UNL     1      -9.262   0.978   1.077  0.00  0.00    +0.020 A 
ATOM     35  C   UNL     1      -8.086   1.654   1.339  0.00  0.00    +0.007 A 
ATOM     36 CL   UNL     1     -11.174  -0.025  -0.558  0.00  0.00    -0.084 Cl
ENDBRANCH  28  30
ENDBRANCH  26  28
ENDBRANCH  23  24
ENDBRANCH   4  23
TORSDOF 6
