REMARK  Name = ZINC62349388
REMARK  5 active torsions:
REMARK  status: ('A' for Active; 'I' for Inactive)
REMARK    1  A    between atoms: C_1  and  C_2
REMARK    2  A    between atoms: C_4  and  N_21
REMARK    3  A    between atoms: C_6  and  C_9
REMARK    4  A    between atoms: C_7  and  C_8
REMARK    5  A    between atoms: C_11  and  C_14
REMARK                            x       y       z     vdW  Elec       q    Type
REMARK                         _______ _______ _______ _____ _____    ______ ____
ROOT
ATOM      1  C   UNL     1       0.310  -2.865   2.435  0.00  0.00    +0.259 A 
ATOM      2  N   UNL     1       1.115  -3.883   2.629  0.00  0.00    -0.187 NA
ATOM      3  C   UNL     1       0.992  -4.329   3.889  0.00  0.00    +0.203 A 
ATOM      4  N   UNL     1       0.102  -3.596   4.513  0.00  0.00    -0.056 NA
ATOM      5  O   UNL     1      -0.353  -2.627   3.580  0.00  0.00    -0.332 OA
ENDROOT
BRANCH   1  11
ATOM      6  C   UNL     1       0.023   1.503   0.039  0.00  0.00    +0.044 C 
ATOM      7  C   UNL     1       0.022  -0.004   0.016  0.00  0.00    -0.045 A 
ATOM      8  C   UNL     1      -0.117  -0.674  -1.185  0.00  0.00    +0.026 A 
ATOM      9  C   UNL     1      -0.120  -2.064  -1.215  0.00  0.00    +0.026 A 
ATOM     10  C   UNL     1       0.020  -2.783  -0.037  0.00  0.00    +0.036 A 
ATOM     11  C   UNL     1       0.161  -2.106   1.174  0.00  0.00    +0.044 A 
ATOM     12  C   UNL     1       0.167  -0.710   1.193  0.00  0.00    -0.035 A 
ATOM     13  C   UNL     1       0.326   0.026   2.498  0.00  0.00    +0.045 C 
BRANCH   9  14
ATOM     14  N   UNL     1      -0.262  -2.737  -2.431  0.00  0.00    -0.358 N 
ATOM     15  H   UNL     1      -0.360  -2.234  -3.254  0.00  0.00    +0.142 HD
ATOM     16  H   UNL     1      -0.264  -3.706  -2.451  0.00  0.00    +0.142 HD
ENDBRANCH   9  14
ENDBRANCH   1  11
BRANCH   3  17
ATOM     17  C   UNL     1       1.740  -5.467   4.479  0.00  0.00    +0.036 A 
ATOM     18  C   UNL     1       2.668  -6.167   3.711  0.00  0.00    +0.013 A 
ATOM     19  C   UNL     1       3.362  -7.224   4.265  0.00  0.00    +0.001 A 
ATOM     20  C   UNL     1       3.138  -7.589   5.581  0.00  0.00    +0.001 A 
ATOM     21  C   UNL     1       2.219  -6.898   6.348  0.00  0.00    +0.016 A 
ATOM     22  C   UNL     1       1.522  -5.835   5.806  0.00  0.00    +0.029 A 
ATOM     23 BR   UNL     1       0.271  -4.886   6.859  0.00  0.00    -0.050 Br
ENDBRANCH   3  17
TORSDOF 3
