REMARK  Name = ZINC20290854
REMARK  8 active torsions:
REMARK  status: ('A' for Active; 'I' for Inactive)
REMARK    1  A    between atoms: C_6  and  C_7
REMARK    2  A    between atoms: C_10  and  S_13
REMARK    3  A    between atoms: N_11  and  N_12
REMARK    4  A    between atoms: S_13  and  C_14
REMARK    5  A    between atoms: C_14  and  C_15
REMARK    6  A    between atoms: C_15  and  C_16
REMARK    7  A    between atoms: N_18  and  C_19
REMARK    8  A    between atoms: C_20  and  C_28
REMARK                            x       y       z     vdW  Elec       q    Type
REMARK                         _______ _______ _______ _____ _____    ______ ____
ROOT
ATOM      1  C   UNL     1      -5.303  -3.557  -0.051  0.00  0.00    +0.086 C 
ENDROOT
BRANCH   1   2
ATOM      2  S   UNL     1      -3.554  -3.906  -0.384  0.00  0.00    -0.084 S 
BRANCH   2   6
ATOM      3  C   UNL     1      -1.266  -0.764   0.010  0.00  0.00    +0.182 A 
ATOM      4  N   UNL     1      -2.458  -0.290   0.292  0.00  0.00    -0.127 NA
ATOM      5  N   UNL     1      -3.334  -1.225   0.203  0.00  0.00    -0.121 NA
ATOM      6  C   UNL     1      -2.756  -2.354  -0.142  0.00  0.00    +0.209 A 
ATOM      7  N   UNL     1      -1.421  -2.099  -0.282  0.00  0.00    -0.224 N 
BRANCH   3  13
ATOM      8  C   UNL     1      -0.017   1.392   0.010  0.00  0.00    +0.013 A 
ATOM      9  C   UNL     1       1.170   2.095   0.002  0.00  0.00    +0.016 A 
ATOM     10  C   UNL     1       2.378   1.419  -0.013  0.00  0.00    +0.018 A 
ATOM     11  C   UNL     1       2.403   0.035  -0.021  0.00  0.00    +0.016 A 
ATOM     12  C   UNL     1       1.223  -0.680  -0.013  0.00  0.00    +0.013 A 
ATOM     13  C   UNL     1       0.002  -0.004   0.002  0.00  0.00    +0.021 A 
ATOM     14 BR   UNL     1       4.000   2.390  -0.025  0.00  0.00    -0.050 Br
ENDBRANCH   3  13
BRANCH   7  15
ATOM     15  N   UNL     1      -0.444  -2.986  -0.635  0.00  0.00    -0.295 N 
ATOM     16  H   UNL     1      -0.052  -3.434   0.179  0.00  0.00    +0.163 HD
ATOM     17  H   UNL     1      -0.795  -3.668  -1.291  0.00  0.00    +0.163 HD
ENDBRANCH   7  15
ENDBRANCH   2   6
ENDBRANCH   1   2
BRANCH   1  18
ATOM     18  C   UNL     1      -6.122  -4.837  -0.228  0.00  0.00    +0.107 C 
BRANCH  18  19
ATOM     19  C   UNL     1      -7.574  -4.547   0.049  0.00  0.00    +0.218 C 
ATOM     20  O   UNL     1      -7.921  -3.426   0.357  0.00  0.00    -0.275 OA
ATOM     21  N   UNL     1      -8.489  -5.532  -0.046  0.00  0.00    -0.279 N 
ATOM     22  H   UNL     1      -8.211  -6.429  -0.292  0.00  0.00    +0.155 HD
BRANCH  21  23
ATOM     23  C   UNL     1      -9.826  -5.265   0.209  0.00  0.00    +0.090 A 
ATOM     24  C   UNL     1     -10.894  -6.146   0.166  0.00  0.00    +0.084 A 
ATOM     25  C   UNL     1     -12.208  -5.614   0.478  0.00  0.00    -0.018 A 
ATOM     26  C   UNL     1     -12.214  -4.296   0.776  0.00  0.00    -0.004 A 
ATOM     27  S   UNL     1     -10.521  -3.800   0.648  0.00  0.00    -0.077 S 
ATOM     28  C   UNL     1     -13.403  -3.461   1.136  0.00  0.00    +0.043 C 
ATOM     29  C   UNL     1     -14.672  -4.236   0.750  0.00  0.00    +0.005 C 
ATOM     30  C   UNL     1     -14.555  -5.670   1.276  0.00  0.00    +0.005 C 
ATOM     31  C   UNL     1     -13.492  -6.431   0.482  0.00  0.00    +0.037 C 
BRANCH  24  32
ATOM     32  C   UNL     1     -10.709  -7.526  -0.172  0.00  0.00    +0.102 C 
ATOM     33  N   UNL     1     -10.563  -8.620  -0.441  0.00  0.00    -0.191 NA
ENDBRANCH  24  32
ENDBRANCH  21  23
ENDBRANCH  18  19
ENDBRANCH   1  18
TORSDOF 8
