REMARK  Name = ZINC15642946
REMARK  9 active torsions:
REMARK  status: ('A' for Active; 'I' for Inactive)
REMARK    1  A    between atoms: C_1  and  C_2
REMARK    2  A    between atoms: C_2  and  C_4
REMARK    3  A    between atoms: C_2  and  O_13
REMARK    4  A    between atoms: N_9  and  C_10
REMARK    5  A    between atoms: C_10  and  C_11
REMARK    6  A    between atoms: C_10  and  C_12
REMARK    7  A    between atoms: O_13  and  C_14
REMARK    8  A    between atoms: C_14  and  C_16
REMARK    9  A    between atoms: C_21  and  N_22
REMARK                            x       y       z     vdW  Elec       q    Type
REMARK                         _______ _______ _______ _____ _____    ______ ____
ROOT
ATOM      1  O   UNL     1       0.684  -0.527   1.147  0.00  0.00    -0.449 OA
ENDROOT
BRANCH   1   3
ATOM      2  C   UNL     1      -0.062   1.466   0.001  0.00  0.00    +0.062 C 
ATOM      3  C   UNL     1      -0.010  -0.063  -0.013  0.00  0.00    +0.259 C 
BRANCH   3   4
ATOM      4  C   UNL     1      -1.413  -0.614  -0.014  0.00  0.00    +0.261 C 
ATOM      5  O   UNL     1      -1.812  -1.257   0.933  0.00  0.00    -0.271 OA
ATOM      6  N   UNL     1      -2.224  -0.391  -1.067  0.00  0.00    -0.237 N 
ATOM      7  C   UNL     1      -3.478  -0.883  -1.067  0.00  0.00    +0.306 C 
ATOM      8  O   UNL     1      -3.878  -1.528  -0.118  0.00  0.00    -0.252 OA
ATOM      9  N   UNL     1      -4.290  -0.660  -2.120  0.00  0.00    -0.297 N 
ATOM     10  H   UNL     1      -1.905   0.124  -1.824  0.00  0.00    +0.159 HD
ATOM     11  H   UNL     1      -3.970  -0.145  -2.877  0.00  0.00    +0.151 HD
BRANCH   9  12
ATOM     12  C   UNL     1      -5.653  -1.195  -2.120  0.00  0.00    +0.068 C 
ATOM     13  C   UNL     1      -6.582  -0.226  -1.387  0.00  0.00    +0.027 C 
ATOM     14  C   UNL     1      -6.133  -1.368  -3.563  0.00  0.00    +0.027 C 
ENDBRANCH   9  12
ENDBRANCH   3   4
ENDBRANCH   1   3
BRANCH   1  15
ATOM     15  C   UNL     1       2.018  -0.684   1.040  0.00  0.00    +0.342 C 
ATOM     16  O   UNL     1       2.577  -0.434  -0.010  0.00  0.00    -0.245 OA
BRANCH  15  17
ATOM     17  C   UNL     1       2.798  -1.159   2.195  0.00  0.00    +0.082 A 
ATOM     18  C   UNL     1       2.182  -1.330   3.438  0.00  0.00    +0.037 A 
ATOM     19  C   UNL     1       2.917  -1.775   4.515  0.00  0.00    +0.043 A 
ATOM     20  C   UNL     1       4.269  -2.054   4.374  0.00  0.00    +0.042 A 
ATOM     21  C   UNL     1       4.892  -1.891   3.153  0.00  0.00    +0.064 A 
ATOM     22  C   UNL     1       4.164  -1.449   2.053  0.00  0.00    +0.057 A 
ATOM     23 CL   UNL     1       6.584  -2.243   2.989  0.00  0.00    -0.082 Cl
ATOM     24 CL   UNL     1       2.149  -1.986   6.058  0.00  0.00    -0.083 Cl
BRANCH  22  25
ATOM     25  N   UNL     1       4.788  -1.289   0.822  0.00  0.00    -0.356 N 
ATOM     26  H   UNL     1       4.301  -0.901   0.078  0.00  0.00    +0.142 HD
ATOM     27  H   UNL     1       5.711  -1.565   0.706  0.00  0.00    +0.142 HD
ENDBRANCH  22  25
ENDBRANCH  15  17
ENDBRANCH   1  15
TORSDOF 6
