REMARK  Name = ZINC04571283
REMARK  2 active torsions:
REMARK  status: ('A' for Active; 'I' for Inactive)
REMARK    1  A    between atoms: C_1  and  C_2
REMARK    2  A    between atoms: C_14  and  C_17
REMARK                            x       y       z     vdW  Elec       q    Type
REMARK                         _______ _______ _______ _____ _____    ______ ____
ROOT
ATOM      1  C   UNL     1      -0.019   1.526   0.010  0.00  0.00    +0.008 C 
ATOM      2  C   UNL     1       0.002  -0.004   0.002  0.00  0.00    -0.009 C 
ATOM      3  C   UNL     1      -1.434  -0.537   0.019  0.00  0.00    +0.008 C 
ATOM      4  C   UNL     1      -1.432  -2.045  -0.236  0.00  0.00    +0.037 C 
ATOM      5  C   UNL     1      -0.465  -2.705   0.737  0.00  0.00    -0.023 A 
ATOM      6  C   UNL     1       0.483  -1.986   1.377  0.00  0.00    -0.004 A 
ATOM      7  S   UNL     1       1.345  -3.163   2.382  0.00  0.00    -0.078 S 
ATOM      8  C   UNL     1       0.506  -4.536   1.980  0.00  0.00    +0.080 A 
ATOM      9  C   UNL     1      -0.470  -4.122   1.062  0.00  0.00    +0.068 A 
ATOM     10  C   UNL     1      -1.396  -5.148   0.531  0.00  0.00    +0.248 C 
ATOM     11  O   UNL     1      -2.374  -4.841  -0.126  0.00  0.00    -0.270 OA
ATOM     12  N   UNL     1      -1.110  -6.439   0.805  0.00  0.00    -0.289 N 
ATOM     13  C   UNL     1       0.127  -6.870   1.448  0.00  0.00    +0.190 C 
ATOM     14  N   UNL     1       0.635  -5.845   2.377  0.00  0.00    -0.316 N 
ATOM     15  C   UNL     1       0.739  -0.515   1.249  0.00  0.00    +0.046 C 
ATOM     16  H   UNL     1      -1.761  -7.115   0.561  0.00  0.00    +0.151 HD
ATOM     17  H   UNL     1       1.041  -6.083   3.225  0.00  0.00    +0.149 HD
ENDROOT
BRANCH  13  18
ATOM     18  C   UNL     1       1.167  -7.134   0.390  0.00  0.00    -0.009 A 
ATOM     19  C   UNL     1       2.507  -6.952   0.677  0.00  0.00    +0.008 A 
ATOM     20  C   UNL     1       3.461  -7.194  -0.292  0.00  0.00    +0.015 A 
ATOM     21  C   UNL     1       3.075  -7.618  -1.551  0.00  0.00    +0.018 A 
ATOM     22  C   UNL     1       1.735  -7.800  -1.839  0.00  0.00    +0.015 A 
ATOM     23  C   UNL     1       0.781  -7.563  -0.867  0.00  0.00    +0.008 A 
ATOM     24 BR   UNL     1       4.381  -7.949  -2.879  0.00  0.00    -0.050 Br
ENDBRANCH  13  18
TORSDOF 1
