REMARK  Name = ZINC07590433
REMARK  7 active torsions:
REMARK  status: ('A' for Active; 'I' for Inactive)
REMARK    1  A    between atoms: C_4  and  S_7
REMARK    2  A    between atoms: S_7  and  C_8
REMARK    3  A    between atoms: C_13  and  N_14
REMARK    4  A    between atoms: C_15  and  C_17
REMARK    5  A    between atoms: C_17  and  N_55
REMARK    6  A    between atoms: N_20  and  C_23
REMARK    7  A    between atoms: C_26  and  O_29
REMARK                            x       y       z     vdW  Elec       q    Type
REMARK                         _______ _______ _______ _____ _____    ______ ____
ROOT
ATOM      1  N   UNL     1       5.248  -0.445   3.142  0.00  0.00    -0.286 N 
ATOM      2  C   UNL     1       4.211  -0.004   2.403  0.00  0.00    +0.201 C 
ATOM      3  O   UNL     1       4.310   1.028   1.773  0.00  0.00    -0.278 OA
ATOM      4  H   UNL     1       5.198  -1.308   3.581  0.00  0.00    +0.155 HD
ENDROOT
BRANCH   1  10
ATOM      5  C   UNL     1       7.281   0.120   4.332  0.00  0.00    +0.034 A 
ATOM      6  C   UNL     1       8.422   0.902   4.455  0.00  0.00    +0.017 A 
ATOM      7  C   UNL     1       8.674   1.904   3.537  0.00  0.00    +0.001 A 
ATOM      8  C   UNL     1       7.797   2.128   2.492  0.00  0.00    +0.002 A 
ATOM      9  C   UNL     1       6.661   1.351   2.359  0.00  0.00    +0.024 A 
ATOM     10  C   UNL     1       6.399   0.343   3.275  0.00  0.00    +0.047 A 
BRANCH   5  11
ATOM     11  S   UNL     1       6.952  -1.153   5.504  0.00  0.00    -0.088 S 
BRANCH  11  15
ATOM     12  C   UNL     1       3.656   0.565   8.092  0.00  0.00    +0.000 A 
ATOM     13  C   UNL     1       4.191  -0.675   8.389  0.00  0.00    +0.001 A 
ATOM     14  C   UNL     1       5.196  -1.202   7.603  0.00  0.00    +0.015 A 
ATOM     15  C   UNL     1       5.670  -0.485   6.511  0.00  0.00    +0.013 A 
ATOM     16  C   UNL     1       5.134   0.764   6.219  0.00  0.00    +0.015 A 
ATOM     17  C   UNL     1       4.125   1.282   7.006  0.00  0.00    +0.001 A 
ENDBRANCH  11  15
ENDBRANCH   5  11
ENDBRANCH   1  10
BRANCH   2  18
ATOM     18  C   UNL     1       2.927  -0.792   2.360  0.00  0.00    +0.019 C 
BRANCH  18  24
ATOM     19  C   UNL     1       2.489  -0.354   0.019  0.00  0.00    -0.059 C 
ATOM     20  C   UNL     1       1.546   0.368  -0.946  0.00  0.00    +0.086 C 
ATOM     21  N   UNL     1       0.187  -0.170  -0.794  0.00  0.00    -0.333 N 
ATOM     22  C   UNL     1      -0.296   0.008   0.582  0.00  0.00    +0.086 C 
ATOM     23  C   UNL     1       0.647  -0.714   1.548  0.00  0.00    -0.059 C 
ATOM     24  N   UNL     1       2.005  -0.149   1.400  0.00  0.00    +0.387 N 
ATOM     25  H   UNL     1       1.970   0.859   1.596  0.00  0.00    -0.081 HD
BRANCH  21  26
ATOM     26  C   UNL     1      -0.690   0.417  -1.713  0.00  0.00    +0.030 A 
ATOM     27  C   UNL     1      -0.226   1.377  -2.602  0.00  0.00    +0.026 A 
ATOM     28  C   UNL     1      -1.091   1.952  -3.512  0.00  0.00    +0.047 A 
ATOM     29  C   UNL     1      -2.426   1.578  -3.531  0.00  0.00    +0.117 A 
ATOM     30  C   UNL     1      -2.893   0.623  -2.640  0.00  0.00    +0.047 A 
ATOM     31  C   UNL     1      -2.028   0.043  -1.733  0.00  0.00    +0.026 A 
BRANCH  29  32
ATOM     32  O   UNL     1      -3.279   2.149  -4.423  0.00  0.00    -0.507 OA
ATOM     33  H   UNL     1      -3.712   2.950  -4.097  0.00  0.00    +0.292 HD
ENDBRANCH  29  32
ENDBRANCH  21  26
ENDBRANCH  18  24
ENDBRANCH   2  18
TORSDOF 7
