REMARK  Name = ZINC59818091
REMARK  10 active torsions:
REMARK  status: ('A' for Active; 'I' for Inactive)
REMARK    1  A    between atoms: C_4  and  C_7
REMARK    2  A    between atoms: N_9  and  N_10
REMARK    3  A    between atoms: C_11  and  C_13
REMARK    4  A    between atoms: C_13  and  S_14
REMARK    5  A    between atoms: S_14  and  C_15
REMARK    6  A    between atoms: N_20  and  N_21
REMARK    7  A    between atoms: C_22  and  C_23
REMARK    8  A    between atoms: C_26  and  C_28
REMARK    9  A    between atoms: C_28  and  O_29
REMARK   10  A    between atoms: O_29  and  C_30
REMARK                            x       y       z     vdW  Elec       q    Type
REMARK                         _______ _______ _______ _____ _____    ______ ____
ROOT
ATOM      1  C   UNL     1       7.592  -7.287  -0.111  0.00  0.00    +0.211 A 
ATOM      2  N   UNL     1       7.868  -8.595  -0.126  0.00  0.00    -0.186 NA
ATOM      3  C   UNL     1       9.173  -8.773  -0.139  0.00  0.00    +0.232 A 
ATOM      4  N   UNL     1       9.759  -7.556  -0.132  0.00  0.00    -0.245 N 
ATOM      5  N   UNL     1       8.718  -6.614  -0.119  0.00  0.00    -0.144 NA
ATOM      6  N   UNL     1       9.827  -9.990  -0.157  0.00  0.00    -0.205 N 
ATOM      7  H   UNL     1      10.797 -10.019  -0.165  0.00  0.00    +0.177 HD
ATOM      8  H   UNL     1      10.711  -7.370  -0.138  0.00  0.00    +0.192 HD
ENDROOT
BRANCH   6   9
ATOM      9  N   UNL     1       9.091 -11.181  -0.162  0.00  0.00    -0.184 NA
ATOM     10  C   UNL     1       9.707 -12.327  -0.179  0.00  0.00    +0.176 C 
BRANCH  10  11
ATOM     11  C   UNL     1       8.935 -13.574  -0.185  0.00  0.00    +0.148 A 
ATOM     12  C   UNL     1       9.453 -14.837  -0.196  0.00  0.00    +0.051 A 
ATOM     13  C   UNL     1       8.359 -15.723  -0.197  0.00  0.00    +0.049 A 
ATOM     14  C   UNL     1       7.240 -14.971  -0.187  0.00  0.00    +0.143 A 
ATOM     15  O   UNL     1       7.591 -13.674  -0.174  0.00  0.00    -0.455 OA
BRANCH  14  16
ATOM     16  C   UNL     1       5.828 -15.498  -0.184  0.00  0.00    +0.303 C 
BRANCH  16  17
ATOM     17  O   UNL     1       5.388 -15.674   1.164  0.00  0.00    -0.484 OA
BRANCH  17  18
ATOM     18  C   UNL     1       4.127 -16.147   1.345  0.00  0.00    +0.121 A 
ATOM     19  C   UNL     1       3.331 -16.440   0.246  0.00  0.00    +0.048 A 
ATOM     20  C   UNL     1       2.049 -16.921   0.431  0.00  0.00    +0.042 A 
ATOM     21  C   UNL     1       1.558 -17.109   1.712  0.00  0.00    +0.124 A 
ATOM     22  C   UNL     1       2.350 -16.816   2.809  0.00  0.00    +0.042 A 
ATOM     23  C   UNL     1       3.635 -16.342   2.627  0.00  0.00    +0.048 A 
ATOM     24  F   UNL     1       0.304 -17.578   1.891  0.00  0.00    -0.205 F 
ENDBRANCH  17  18
ENDBRANCH  16  17
ENDBRANCH  14  16
ENDBRANCH  10  11
ENDBRANCH   6   9
BRANCH   1  25
ATOM     25  S   UNL     1       5.978  -6.582  -0.091  0.00  0.00    -0.075 S 
BRANCH  25  26
ATOM     26  C   UNL     1       6.280  -4.793  -0.085  0.00  0.00    +0.174 C 
BRANCH  26  28
ATOM     27  N   UNL     1       4.942  -2.713  -0.060  0.00  0.00    -0.233 N 
ATOM     28  C   UNL     1       4.963  -4.061  -0.068  0.00  0.00    +0.239 C 
ATOM     29  O   UNL     1       3.923  -4.684  -0.061  0.00  0.00    -0.273 OA
ATOM     30  H   UNL     1       5.774  -2.215  -0.066  0.00  0.00    +0.173 HD
BRANCH  27  33
ATOM     31  C   UNL     1       3.696  -0.685  -0.037  0.00  0.00    +0.260 C 
ATOM     32  O   UNL     1       4.738  -0.060  -0.044  0.00  0.00    -0.269 OA
ATOM     33  N   UNL     1       3.717  -2.032  -0.045  0.00  0.00    -0.230 N 
ATOM     34  H   UNL     1       2.885  -2.531  -0.039  0.00  0.00    +0.173 HD
BRANCH  31  38
ATOM     35  C   UNL     1      -0.017   1.379   0.010  0.00  0.00    +0.000 A 
ATOM     36  C   UNL     1       1.168   2.094   0.002  0.00  0.00    +0.001 A 
ATOM     37  C   UNL     1       2.377   1.429  -0.013  0.00  0.00    +0.013 A 
ATOM     38  C   UNL     1       2.403   0.034  -0.021  0.00  0.00    +0.038 A 
ATOM     39  C   UNL     1       1.204  -0.681  -0.013  0.00  0.00    +0.013 A 
ATOM     40  C   UNL     1       0.002  -0.004   0.002  0.00  0.00    +0.001 A 
ENDBRANCH  31  38
ENDBRANCH  27  33
ENDBRANCH  26  28
ENDBRANCH  25  26
ENDBRANCH   1  25
TORSDOF 10
