REMARK  Name = ZINC18022920
REMARK  10 active torsions:
REMARK  status: ('A' for Active; 'I' for Inactive)
REMARK    1  A    between atoms: C_1  and  C_2
REMARK    2  A    between atoms: N_10  and  N_14
REMARK    3  A    between atoms: C_15  and  C_17
REMARK    4  A    between atoms: C_17  and  C_18
REMARK    5  A    between atoms: C_18  and  N_19
REMARK    6  A    between atoms: C_20  and  C_22
REMARK    7  A    between atoms: C_25  and  C_28
REMARK    8  A    between atoms: C_28  and  C_29
REMARK    9  A    between atoms: C_28  and  C_30
REMARK   10  A    between atoms: C_28  and  C_31
REMARK                            x       y       z     vdW  Elec       q    Type
REMARK                         _______ _______ _______ _____ _____    ______ ____
ROOT
ATOM      1  N   UNL     1       6.044   2.150  -0.044  0.00  0.00    -0.224 N 
ATOM      2  C   UNL     1       4.886   1.460  -0.037  0.00  0.00    +0.231 C 
ATOM      3  O   UNL     1       4.903   0.247  -0.043  0.00  0.00    -0.274 OA
ATOM      4  H   UNL     1       6.031   3.120  -0.039  0.00  0.00    +0.174 HD
ENDROOT
BRANCH   1  14
ATOM      5  C   UNL     1      13.021  -1.578  -0.690  0.00  0.00    +0.007 C 
ATOM      6  C   UNL     1      11.823  -0.757  -1.170  0.00  0.00    -0.014 C 
ATOM      7  C   UNL     1      10.541  -1.573  -0.995  0.00  0.00    +0.006 C 
ATOM      8  C   UNL     1       9.345  -0.755  -1.487  0.00  0.00    +0.035 C 
ATOM      9  C   UNL     1       9.252   0.543  -0.693  0.00  0.00    +0.114 C 
ATOM     10  C   UNL     1      10.533   1.357  -0.838  0.00  0.00    +0.035 C 
ATOM     11  C   UNL     1      11.725   0.530  -0.348  0.00  0.00    +0.006 C 
ATOM     12  C   UNL     1       8.059   1.354  -1.145  0.00  0.00    +0.263 C 
ATOM     13  O   UNL     1       7.857   1.808  -2.251  0.00  0.00    -0.271 OA
ATOM     14  N   UNL     1       7.267   1.466  -0.059  0.00  0.00    -0.137 N 
ATOM     15  C   UNL     1       7.797   0.848   1.003  0.00  0.00    +0.326 C 
ATOM     16  O   UNL     1       7.270   0.815   2.098  0.00  0.00    -0.251 OA
ATOM     17  N   UNL     1       8.977   0.264   0.722  0.00  0.00    -0.284 N 
ATOM     18  H   UNL     1       9.537  -0.239   1.334  0.00  0.00    +0.151 HD
ENDBRANCH   1  14
BRANCH   2  19
ATOM     19  C   UNL     1       3.571   2.196  -0.020  0.00  0.00    +0.116 C 
BRANCH  19  20
ATOM     20  C   UNL     1       2.422   1.186  -0.015  0.00  0.00    +0.114 C 
BRANCH  20  21
ATOM     21  N   UNL     1       1.143   1.901   0.001  0.00  0.00    -0.311 N 
ATOM     22  C   UNL     1      -0.014   1.211   0.009  0.00  0.00    +0.244 C 
ATOM     23  O   UNL     1       0.002  -0.004   0.002  0.00  0.00    -0.270 OA
ATOM     24  H   UNL     1       1.130   2.871   0.007  0.00  0.00    +0.149 HD
BRANCH  22  25
ATOM     25  C   UNL     1      -1.305   1.933   0.019  0.00  0.00    +0.037 A 
ATOM     26  C   UNL     1      -1.327   3.329   0.032  0.00  0.00    +0.013 A 
ATOM     27  C   UNL     1      -2.534   3.996   0.037  0.00  0.00    +0.005 A 
ATOM     28  C   UNL     1      -3.721   3.285   0.039  0.00  0.00    -0.042 A 
ATOM     29  C   UNL     1      -3.706   1.901   0.030  0.00  0.00    +0.005 A 
ATOM     30  C   UNL     1      -2.506   1.222   0.021  0.00  0.00    +0.013 A 
BRANCH  28  31
ATOM     31  C   UNL     1      -5.037   4.021   0.050  0.00  0.00    -0.013 C 
ATOM     32  C   UNL     1      -5.828   3.632   1.300  0.00  0.00    +0.015 C 
ATOM     33  C   UNL     1      -4.777   5.529   0.058  0.00  0.00    +0.015 C 
ATOM     34  C   UNL     1      -5.840   3.648  -1.198  0.00  0.00    +0.015 C 
ENDBRANCH  28  31
ENDBRANCH  22  25
ENDBRANCH  20  21
ENDBRANCH  19  20
ENDBRANCH   2  19
TORSDOF 6
