REMARK  Name = ZINC20411065
REMARK  4 active torsions:
REMARK  status: ('A' for Active; 'I' for Inactive)
REMARK    1  A    between atoms: C_3  and  C_6
REMARK    2  A    between atoms: C_7  and  C_8
REMARK    3  A    between atoms: N_10  and  C_11
REMARK    4  A    between atoms: C_21  and  C_23
REMARK                            x       y       z     vdW  Elec       q    Type
REMARK                         _______ _______ _______ _____ _____    ______ ____
ROOT
ATOM      1  C   UNL     1      -5.895  -1.439   0.144  0.00  0.00    +0.035 A 
ATOM      2  C   UNL     1      -5.785  -2.825   0.236  0.00  0.00    +0.025 A 
ATOM      3  C   UNL     1      -6.882  -3.622   0.333  0.00  0.00    +0.031 A 
ATOM      4  C   UNL     1      -8.183  -3.069   0.346  0.00  0.00    +0.080 A 
ATOM      5  C   UNL     1      -8.267  -1.661   0.253  0.00  0.00    +0.043 A 
ATOM      6  C   UNL     1      -7.157  -0.859   0.159  0.00  0.00    +0.040 A 
ATOM      7  S   UNL     1     -10.020  -1.381   0.303  0.00  0.00    -0.052 S 
ATOM      8  C   UNL     1     -10.517  -3.092   0.440  0.00  0.00    +0.166 A 
ATOM      9  N   UNL     1      -9.365  -3.720   0.438  0.00  0.00    -0.225 NA
ATOM     10  N   UNL     1     -11.794  -3.621   0.528  0.00  0.00    -0.258 N 
ATOM     11  C   UNL     1     -11.965  -4.954   0.626  0.00  0.00    +0.285 C 
ATOM     12  O   UNL     1     -10.998  -5.693   0.638  0.00  0.00    -0.266 OA
ATOM     13  H   UNL     1     -12.668  -2.953   0.517  0.00  0.00    +0.157 HD
ENDROOT
BRANCH  11  14
ATOM     14  C   UNL     1     -13.317  -5.514   0.719  0.00  0.00    +0.189 A 
ATOM     15  C   UNL     1     -13.631  -6.840   0.823  0.00  0.00    +0.054 A 
ATOM     16  C   UNL     1     -15.031  -6.919   0.885  0.00  0.00    +0.042 A 
ATOM     17  C   UNL     1     -15.504  -5.654   0.818  0.00  0.00    +0.196 A 
ATOM     18  O   UNL     1     -14.468  -4.811   0.723  0.00  0.00    -0.458 OA
ENDBRANCH  11  14
BRANCH   1  21
ATOM     19  C   UNL     1      -4.784   0.502  -0.667  0.00  0.00    +0.241 C 
ATOM     20  O   UNL     1      -5.781   0.794  -1.302  0.00  0.00    -0.270 OA
ATOM     21  N   UNL     1      -4.749  -0.642   0.045  0.00  0.00    -0.282 N 
ATOM     22  H   UNL     1      -3.820  -0.948   0.548  0.00  0.00    +0.155 HD
BRANCH  19  24
ATOM     23  C   UNL     1      -3.697   2.515  -1.393  0.00  0.00    +0.051 C 
ATOM     24  C   UNL     1      -3.662   1.364  -0.676  0.00  0.00    +0.071 C 
BRANCH  23  27
ATOM     25  C   UNL     1      -1.194   5.083  -1.808  0.00  0.00    +0.042 A 
ATOM     26  C   UNL     1      -2.472   4.573  -2.084  0.00  0.00    +0.049 A 
ATOM     27  C   UNL     1      -2.574   3.378  -1.403  0.00  0.00    +0.128 A 
ATOM     28  O   UNL     1      -1.411   3.177  -0.747  0.00  0.00    -0.464 OA
ATOM     29  C   UNL     1      -0.581   4.201  -0.988  0.00  0.00    +0.195 A 
ENDBRANCH  23  27
ENDBRANCH  19  24
ENDBRANCH   1  21
TORSDOF 4
