REMARK  Name = ZINC58989200
REMARK  9 active torsions:
REMARK  status: ('A' for Active; 'I' for Inactive)
REMARK    1  A    between atoms: C_6  and  C_7
REMARK    2  A    between atoms: N_8  and  N_9
REMARK    3  A    between atoms: C_10  and  C_12
REMARK    4  A    between atoms: C_12  and  C_13
REMARK    5  A    between atoms: C_13  and  C_14
REMARK    6  A    between atoms: C_14  and  S_15
REMARK    7  A    between atoms: S_15  and  C_16
REMARK    8  A    between atoms: C_19  and  C_22
REMARK    9  A    between atoms: N_20  and  N_21
REMARK                            x       y       z     vdW  Elec       q    Type
REMARK                         _______ _______ _______ _____ _____    ______ ____
ROOT
ATOM      1  C   UNL     1      -4.726  -7.186   0.010  0.00  0.00    +0.078 C 
ENDROOT
BRANCH   1   2
ATOM      2  C   UNL     1      -3.413  -6.400   0.002  0.00  0.00    +0.020 C 
BRANCH   2   3
ATOM      3  C   UNL     1      -3.716  -4.900   0.013  0.00  0.00    +0.098 C 
BRANCH   3   5
ATOM      4  N   UNL     1      -2.445  -2.779   0.011  0.00  0.00    -0.207 N 
ATOM      5  C   UNL     1      -2.423  -4.126   0.004  0.00  0.00    +0.232 C 
ATOM      6  O   UNL     1      -1.363  -4.716  -0.010  0.00  0.00    -0.274 OA
ATOM      7  H   UNL     1      -3.292  -2.307   0.022  0.00  0.00    +0.177 HD
BRANCH   4   9
ATOM      8  C   UNL     1      -1.263  -0.762   0.011  0.00  0.00    +0.138 C 
ATOM      9  N   UNL     1      -1.242  -2.059   0.003  0.00  0.00    -0.188 NA
BRANCH   8  15
ATOM     10  C   UNL     1      -0.017   1.393   0.010  0.00  0.00    +0.012 A 
ATOM     11  C   UNL     1       1.169   2.096   0.002  0.00  0.00    +0.039 A 
ATOM     12  C   UNL     1       2.379   1.419  -0.013  0.00  0.00    +0.123 A 
ATOM     13  C   UNL     1       2.404   0.033  -0.021  0.00  0.00    +0.039 A 
ATOM     14  C   UNL     1       1.224  -0.680  -0.014  0.00  0.00    +0.012 A 
ATOM     15  C   UNL     1       0.002  -0.004   0.002  0.00  0.00    -0.005 A 
ATOM     16  F   UNL     1       3.538   2.113  -0.020  0.00  0.00    -0.205 F 
ENDBRANCH   8  15
ENDBRANCH   4   9
ENDBRANCH   3   5
ENDBRANCH   2   3
ENDBRANCH   1   2
BRANCH   1  17
ATOM     17  S   UNL     1      -4.366  -8.964  -0.003  0.00  0.00    -0.084 S 
BRANCH  17  18
ATOM     18  C   UNL     1      -5.957  -9.721   0.009  0.00  0.00    +0.209 A 
ATOM     19  N   UNL     1      -7.115  -9.100   0.018  0.00  0.00    -0.121 NA
ATOM     20  N   UNL     1      -8.074  -9.956   0.025  0.00  0.00    -0.127 NA
ATOM     21  C   UNL     1      -7.587 -11.175   0.021  0.00  0.00    +0.182 A 
ATOM     22  N   UNL     1      -6.216 -11.062   0.004  0.00  0.00    -0.224 N 
BRANCH  21  23
ATOM     23  C   UNL     1      -8.366 -12.432   0.026  0.00  0.00    +0.021 A 
ATOM     24  C   UNL     1      -7.742 -13.640   0.339  0.00  0.00    +0.013 A 
ATOM     25  C   UNL     1      -8.473 -14.810   0.343  0.00  0.00    +0.016 A 
ATOM     26  C   UNL     1      -9.823 -14.787   0.036  0.00  0.00    +0.018 A 
ATOM     27  C   UNL     1     -10.447 -13.591  -0.276  0.00  0.00    +0.016 A 
ATOM     28  C   UNL     1      -9.728 -12.414  -0.276  0.00  0.00    +0.013 A 
ATOM     29 BR   UNL     1     -10.818 -16.395   0.042  0.00  0.00    -0.050 Br
ENDBRANCH  21  23
BRANCH  22  30
ATOM     30  N   UNL     1      -5.304 -12.079  -0.011  0.00  0.00    -0.295 N 
ATOM     31  H   UNL     1      -5.054 -12.353   0.927  0.00  0.00    +0.163 HD
ATOM     32  H   UNL     1      -5.650 -12.866  -0.538  0.00  0.00    +0.163 HD
ENDBRANCH  22  30
ENDBRANCH  17  18
ENDBRANCH   1  17
TORSDOF 9
