REMARK  Name = ZINC38702236
REMARK  12 active torsions:
REMARK  status: ('A' for Active; 'I' for Inactive)
REMARK    1  A    between atoms: C_1  and  C_2
REMARK    2  A    between atoms: C_4  and  C_10
REMARK    3  A    between atoms: C_5  and  O_9
REMARK    4  A    between atoms: C_7  and  C_8
REMARK    5  A    between atoms: N_18  and  C_33
REMARK    6  A    between atoms: C_19  and  C_21
REMARK    7  A    between atoms: C_23  and  O_31
REMARK    8  A    between atoms: C_24  and  O_29
REMARK    9  A    between atoms: C_25  and  O_27
REMARK   10  A    between atoms: O_27  and  C_28
REMARK   11  A    between atoms: O_29  and  C_30
REMARK   12  A    between atoms: O_31  and  C_32
REMARK                            x       y       z     vdW  Elec       q    Type
REMARK                         _______ _______ _______ _____ _____    ______ ____
ROOT
ATOM      1  C   UNL     1       0.035  -2.816  -2.499  0.00  0.00    +0.102 A 
ATOM      2  C   UNL     1       0.147  -4.201  -2.658  0.00  0.00    +0.035 A 
ATOM      3  C   UNL     1       0.104  -4.429  -4.020  0.00  0.00    +0.126 A 
ATOM      4  N   UNL     1      -0.028  -3.202  -4.606  0.00  0.00    -0.272 N 
ATOM      5  H   UNL     1      -0.086  -3.044  -5.562  0.00  0.00    +0.189 HD
ATOM      6  N   UNL     1      -0.070  -2.288  -3.703  0.00  0.00    -0.173 NA
ATOM      7  C   UNL     1       0.217  -5.872  -4.256  0.00  0.00    +0.266 C 
ATOM      8  O   UNL     1       0.213  -6.400  -5.352  0.00  0.00    -0.268 OA
ATOM      9  N   UNL     1       0.327  -6.530  -3.088  0.00  0.00    -0.280 N 
ATOM     10  C   UNL     1       0.293  -5.545  -1.999  0.00  0.00    +0.142 C 
ENDROOT
BRANCH   1  14
ATOM     11  C   UNL     1      -1.614  -2.311   2.185  0.00  0.00    +0.044 C 
ATOM     12  C   UNL     1      -0.760  -1.829   1.041  0.00  0.00    -0.047 A 
ATOM     13  C   UNL     1      -0.758  -2.520  -0.155  0.00  0.00    +0.017 A 
ATOM     14  C   UNL     1       0.030  -2.076  -1.213  0.00  0.00    +0.044 A 
ATOM     15  C   UNL     1       0.817  -0.931  -1.057  0.00  0.00    +0.126 A 
ATOM     16  C   UNL     1       0.807  -0.248   0.147  0.00  0.00    +0.049 A 
ATOM     17  C   UNL     1       0.016  -0.694   1.190  0.00  0.00    -0.044 A 
ATOM     18  C   UNL     1       0.003   0.058   2.496  0.00  0.00    +0.044 C 
BRANCH  15  19
ATOM     19  O   UNL     1       1.590  -0.491  -2.084  0.00  0.00    -0.506 OA
ATOM     20  H   UNL     1       1.173   0.193  -2.626  0.00  0.00    +0.292 HD
ENDBRANCH  15  19
ENDBRANCH   1  14
BRANCH   9  21
ATOM     21  C   UNL     1       0.458  -7.981  -2.929  0.00  0.00    +0.100 C 
ATOM     22  C   UNL     1       1.707  -8.475  -3.677  0.00  0.00    +0.047 C 
ATOM     23  C   UNL     1       1.681 -10.018  -3.787  0.00  0.00    +0.168 C 
ATOM     24  S   UNL     1      -0.120 -10.393  -3.771  0.00  0.00    -0.029 S 
ATOM     25  O   UNL     1      -0.421 -11.168  -2.618  0.00  0.00    -0.174 OA
ATOM     26  O   UNL     1      -0.504 -10.870  -5.054  0.00  0.00    -0.174 OA
ATOM     27  C   UNL     1      -0.784  -8.691  -3.540  0.00  0.00    +0.188 C 
ENDBRANCH   9  21
BRANCH  10  28
ATOM     28  C   UNL     1       1.575  -5.600  -1.209  0.00  0.00    -0.015 A 
ATOM     29  C   UNL     1       2.787  -5.692  -1.868  0.00  0.00    +0.055 A 
ATOM     30  C   UNL     1       3.969  -5.743  -1.145  0.00  0.00    +0.165 A 
ATOM     31  C   UNL     1       3.934  -5.700   0.244  0.00  0.00    +0.204 A 
ATOM     32  C   UNL     1       2.714  -5.606   0.902  0.00  0.00    +0.165 A 
ATOM     33  C   UNL     1       1.537  -5.551   0.172  0.00  0.00    +0.055 A 
BRANCH  32  34
ATOM     34  O   UNL     1       2.675  -5.564   2.261  0.00  0.00    -0.491 OA
ATOM     35  C   UNL     1       1.386  -5.467   2.870  0.00  0.00    +0.277 C 
ENDBRANCH  32  34
BRANCH  31  36
ATOM     36  O   UNL     1       5.093  -5.750   0.957  0.00  0.00    -0.488 OA
ATOM     37  C   UNL     1       5.722  -4.503   1.259  0.00  0.00    +0.277 C 
ENDBRANCH  31  36
BRANCH  30  38
ATOM     38  O   UNL     1       5.161  -5.835  -1.794  0.00  0.00    -0.491 OA
ATOM     39  C   UNL     1       5.120  -5.875  -3.222  0.00  0.00    +0.277 C 
ENDBRANCH  30  38
ENDBRANCH  10  28
TORSDOF 7
