REMARK  Name = ZINC02619249
REMARK  7 active torsions:
REMARK  status: ('A' for Active; 'I' for Inactive)
REMARK    1  A    between atoms: C_1  and  C_2
REMARK    2  A    between atoms: C_2  and  C_4
REMARK    3  A    between atoms: C_2  and  O_15
REMARK    4  A    between atoms: O_15  and  C_16
REMARK    5  A    between atoms: C_16  and  C_18
REMARK    6  A    between atoms: C_22  and  S_24
REMARK    7  A    between atoms: S_24  and  N_27
REMARK                            x       y       z     vdW  Elec       q    Type
REMARK                         _______ _______ _______ _____ _____    ______ ____
ROOT
ATOM      1  C   UNL     1      -0.165   1.341   0.016  0.00  0.00    +0.061 A 
ATOM      2  C   UNL     1       1.008   2.096  -0.061  0.00  0.00    +0.016 A 
ATOM      3  C   UNL     1       2.230   1.461  -0.124  0.00  0.00    +0.023 A 
ATOM      4  C   UNL     1       2.297   0.078  -0.113  0.00  0.00    +0.068 A 
ATOM      5  C   UNL     1       1.138  -0.677  -0.037  0.00  0.00    +0.128 A 
ATOM      6  C   UNL     1      -0.091  -0.054   0.028  0.00  0.00    +0.045 A 
ATOM      7 CL   UNL     1       3.840  -0.714  -0.194  0.00  0.00    -0.082 Cl
ENDROOT
BRANCH   5   8
ATOM      8  S   UNL     1       1.233  -2.436  -0.023  0.00  0.00    +0.076 S 
ATOM      9  O   UNL     1       2.256  -2.780   0.902  0.00  0.00    -0.150 OA
ATOM     10  O   UNL     1      -0.099  -2.914   0.103  0.00  0.00    -0.150 OA
BRANCH   8  11
ATOM     11  N   UNL     1       1.767  -2.910  -1.517  0.00  0.00    -0.202 N 
ATOM     12  C   UNL     1       3.158  -3.229  -1.849  0.00  0.00    +0.136 C 
ATOM     13  C   UNL     1       3.139  -3.611  -3.338  0.00  0.00    +0.058 C 
ATOM     14  C   UNL     1       1.692  -3.465  -3.749  0.00  0.00    -0.023 A 
ATOM     15  C   UNL     1       0.959  -3.057  -2.646  0.00  0.00    +0.054 A 
ATOM     16  C   UNL     1      -0.415  -2.852  -2.782  0.00  0.00    +0.025 A 
ATOM     17  C   UNL     1      -1.031  -3.055  -3.999  0.00  0.00    +0.002 A 
ATOM     18  C   UNL     1      -0.291  -3.462  -5.094  0.00  0.00    +0.000 A 
ATOM     19  C   UNL     1       1.071  -3.666  -4.967  0.00  0.00    +0.005 A 
ENDBRANCH   8  11
ENDBRANCH   5   8
BRANCH   1  20
ATOM     20  C   UNL     1      -1.477   2.014   0.079  0.00  0.00    +0.340 C 
ATOM     21  O   UNL     1      -2.496   1.355   0.141  0.00  0.00    -0.245 OA
BRANCH  20  22
ATOM     22  O   UNL     1      -1.546   3.360   0.068  0.00  0.00    -0.449 OA
BRANCH  22  24
ATOM     23  C   UNL     1      -3.411   4.146  -1.285  0.00  0.00    +0.062 C 
ATOM     24  C   UNL     1      -2.869   3.953   0.132  0.00  0.00    +0.259 C 
BRANCH  24  25
ATOM     25  C   UNL     1      -2.787   5.289   0.825  0.00  0.00    +0.259 C 
ATOM     26  O   UNL     1      -1.708   5.742   1.143  0.00  0.00    -0.271 OA
ATOM     27  N   UNL     1      -3.913   5.981   1.090  0.00  0.00    -0.266 N 
ATOM     28  C   UNL     1      -3.838   7.218   1.731  0.00  0.00    +0.144 A 
ATOM     29  C   UNL     1      -5.004   7.929   1.996  0.00  0.00    +0.082 A 
ATOM     30  C   UNL     1      -4.915   9.152   2.638  0.00  0.00    +0.045 A 
ATOM     31  C   UNL     1      -3.656   9.629   2.983  0.00  0.00    +0.061 A 
ATOM     32  C   UNL     1      -2.540   8.871   2.683  0.00  0.00    +0.133 A 
ATOM     33  N   UNL     1      -2.657   7.706   2.075  0.00  0.00    -0.237 NA
ATOM     34 CL   UNL     1      -3.487  11.161   3.782  0.00  0.00    -0.082 Cl
ATOM     35 CL   UNL     1      -6.550   7.287   1.535  0.00  0.00    -0.080 Cl
ATOM     36  H   UNL     1      -4.776   5.619   0.835  0.00  0.00    +0.156 HD
ENDBRANCH  24  25
ENDBRANCH  22  24
ENDBRANCH  20  22
ENDBRANCH   1  20
TORSDOF 6
