REMARK  Name = ZINC27579003
REMARK  6 active torsions:
REMARK  status: ('A' for Active; 'I' for Inactive)
REMARK    1  A    between atoms: C_4  and  C_7
REMARK    2  A    between atoms: C_8  and  C_20
REMARK    3  A    between atoms: N_10  and  C_13
REMARK    4  A    between atoms: C_11  and  N_12
REMARK    5  A    between atoms: C_20  and  N_21
REMARK    6  A    between atoms: N_24  and  C_27
REMARK                            x       y       z     vdW  Elec       q    Type
REMARK                         _______ _______ _______ _____ _____    ______ ____
ROOT
ATOM      1  C   UNL     1      -1.595   6.238  -2.377  0.00  0.00    +0.043 A 
ATOM      2  C   UNL     1      -0.202   6.077  -2.238  0.00  0.00    +0.057 A 
ATOM      3  N   UNL     1       0.354   6.276  -3.403  0.00  0.00    -0.171 NA
ATOM      4  N   UNL     1      -0.643   6.563  -4.342  0.00  0.00    -0.218 N 
ATOM      5  C   UNL     1      -1.844   6.542  -3.704  0.00  0.00    +0.128 A 
ENDROOT
BRANCH   4   6
ATOM      6  C   UNL     1      -0.440   6.832  -5.702  0.00  0.00    +0.068 A 
ATOM      7  C   UNL     1      -1.369   6.408  -6.642  0.00  0.00    +0.029 A 
ATOM      8  C   UNL     1      -1.169   6.679  -7.981  0.00  0.00    +0.022 A 
ATOM      9  C   UNL     1      -0.037   7.364  -8.388  0.00  0.00    +0.041 A 
ATOM     10  C   UNL     1       0.893   7.783  -7.454  0.00  0.00    +0.022 A 
ATOM     11  C   UNL     1       0.695   7.519  -6.113  0.00  0.00    +0.029 A 
ATOM     12 CL   UNL     1       0.215   7.697 -10.073  0.00  0.00    -0.084 Cl
ENDBRANCH   4   6
BRANCH   1  16
ATOM     13  C   UNL     1      -4.495   5.860   0.709  0.00  0.00    +0.000 A 
ATOM     14  C   UNL     1      -4.269   7.092   0.123  0.00  0.00    +0.001 A 
ATOM     15  C   UNL     1      -3.329   7.221  -0.879  0.00  0.00    +0.008 A 
ATOM     16  C   UNL     1      -2.606   6.106  -1.300  0.00  0.00    -0.013 A 
ATOM     17  C   UNL     1      -2.841   4.865  -0.709  0.00  0.00    +0.008 A 
ATOM     18  C   UNL     1      -3.781   4.750   0.295  0.00  0.00    +0.001 A 
ENDBRANCH   1  16
BRANCH   5  19
ATOM     19  N   UNL     1      -3.086   6.780  -4.276  0.00  0.00    -0.343 N 
ATOM     20  H   UNL     1      -3.162   7.014  -5.348  0.00  0.00    +0.144 HD
ATOM     21  H   UNL     1      -3.995   6.735  -3.657  0.00  0.00    +0.144 HD
ENDBRANCH   5  19
BRANCH   2  22
ATOM     22  C   UNL     1       0.523   5.739  -0.962  0.00  0.00    -0.020 C 
BRANCH  22  23
ATOM     23  N   UNL     1       0.774   6.970  -0.200  0.00  0.00    +0.385 N 
ATOM     24  C   UNL     1       1.133   6.664   1.192  0.00  0.00    -0.059 C 
ATOM     25  C   UNL     1       1.308   7.970   1.970  0.00  0.00    +0.086 C 
ATOM     26  N   UNL     1       2.349   8.785   1.327  0.00  0.00    -0.333 N 
ATOM     27  C   UNL     1       1.989   9.090  -0.065  0.00  0.00    +0.086 C 
ATOM     28  C   UNL     1       1.815   7.784  -0.843  0.00  0.00    -0.059 C 
ATOM     29  H   UNL     1      -0.158   7.555  -0.189  0.00  0.00    -0.081 HD
BRANCH  26  30
ATOM     30  C   UNL     1       2.587   9.955   2.051  0.00  0.00    +0.030 A 
ATOM     31  C   UNL     1       1.869  10.214   3.211  0.00  0.00    +0.023 A 
ATOM     32  C   UNL     1       2.111  11.370   3.927  0.00  0.00    +0.002 A 
ATOM     33  C   UNL     1       3.059  12.274   3.485  0.00  0.00    +0.000 A 
ATOM     34  C   UNL     1       3.772  12.022   2.327  0.00  0.00    +0.002 A 
ATOM     35  C   UNL     1       3.539  10.865   1.609  0.00  0.00    +0.023 A 
ENDBRANCH  26  30
ENDBRANCH  22  23
ENDBRANCH   2  22
TORSDOF 6
