REMARK  Name = ZINC54580315
REMARK  9 active torsions:
REMARK  status: ('A' for Active; 'I' for Inactive)
REMARK    1  A    between atoms: C_1  and  C_2
REMARK    2  A    between atoms: C_2  and  C_3
REMARK    3  A    between atoms: C_2  and  N_14
REMARK    4  A    between atoms: C_6  and  S_9
REMARK    5  A    between atoms: S_9  and  N_12
REMARK    6  A    between atoms: N_12  and  C_13
REMARK    7  A    between atoms: N_17  and  C_18
REMARK    8  A    between atoms: C_18  and  C_19
REMARK    9  A    between atoms: C_20  and  C_21
REMARK                            x       y       z     vdW  Elec       q    Type
REMARK                         _______ _______ _______ _____ _____    ______ ____
ROOT
ATOM      1  N   UNL     1      -1.372  -0.511   0.012  0.00  0.00    -0.293 N 
ATOM      2  C   UNL     1      -2.051  -0.643  -1.145  0.00  0.00    +0.301 C 
ATOM      3  O   UNL     1      -1.522  -0.341  -2.197  0.00  0.00    -0.253 OA
ATOM      4  N   UNL     1      -3.315  -1.109  -1.135  0.00  0.00    -0.289 N 
ATOM      5  H   UNL     1      -1.794  -0.752   0.852  0.00  0.00    +0.151 HD
ATOM      6  H   UNL     1      -3.737  -1.350  -0.295  0.00  0.00    +0.151 HD
ENDROOT
BRANCH   1   8
ATOM      7  C   UNL     1      -0.019   1.526   0.010  0.00  0.00    +0.033 C 
ATOM      8  C   UNL     1       0.002  -0.004   0.002  0.00  0.00    +0.102 C 
BRANCH   8   9
ATOM      9  C   UNL     1       0.731  -0.503   1.223  0.00  0.00    -0.027 A 
ATOM     10  C   UNL     1       0.081  -0.558   2.442  0.00  0.00    +0.007 A 
ATOM     11  C   UNL     1       0.749  -1.016   3.562  0.00  0.00    +0.029 A 
ATOM     12  C   UNL     1       2.068  -1.420   3.463  0.00  0.00    +0.105 A 
ATOM     13  C   UNL     1       2.718  -1.365   2.244  0.00  0.00    +0.029 A 
ATOM     14  C   UNL     1       2.048  -0.911   1.123  0.00  0.00    +0.007 A 
BRANCH  12  15
ATOM     15  S   UNL     1       2.921  -2.002   4.890  0.00  0.00    +0.058 S 
ATOM     16  O   UNL     1       4.306  -1.804   4.645  0.00  0.00    -0.153 OA
ATOM     17  O   UNL     1       2.259  -1.441   6.016  0.00  0.00    -0.153 OA
BRANCH  15  18
ATOM     18  N   UNL     1       2.683  -3.639   4.969  0.00  0.00    -0.193 NA
ATOM     19  C   UNL     1       3.227  -4.509   3.924  0.00  0.00    +0.127 C 
ATOM     20  H   UNL     1       2.183  -4.022   5.707  0.00  0.00    +0.148 HD
ENDBRANCH  15  18
ENDBRANCH  12  15
ENDBRANCH   8   9
ENDBRANCH   1   8
BRANCH   4  21
ATOM     21  C   UNL     1      -4.053  -1.252  -2.393  0.00  0.00    +0.195 C 
BRANCH  21  22
ATOM     22  C   UNL     1      -5.400  -1.777  -2.115  0.00  0.00    -0.078 C 
ATOM     23  C   UNL     1      -6.474  -2.195  -1.893  0.00  0.00    -0.065 C 
BRANCH  23  24
ATOM     24  C   UNL     1      -7.785  -2.705  -1.623  0.00  0.00    +0.025 A 
ATOM     25  C   UNL     1      -8.174  -2.976  -0.310  0.00  0.00    +0.017 A 
ATOM     26  C   UNL     1      -9.438  -3.467  -0.056  0.00  0.00    +0.001 A 
ATOM     27  C   UNL     1     -10.319  -3.690  -1.099  0.00  0.00    +0.000 A 
ATOM     28  C   UNL     1      -9.939  -3.424  -2.403  0.00  0.00    +0.001 A 
ATOM     29  C   UNL     1      -8.680  -2.928  -2.670  0.00  0.00    +0.017 A 
ENDBRANCH  23  24
ENDBRANCH  21  22
ENDBRANCH   4  21
TORSDOF 7
