REMARK  Name = ZINC54672192
REMARK  6 active torsions:
REMARK  status: ('A' for Active; 'I' for Inactive)
REMARK    1  A    between atoms: C_2  and  N_9
REMARK    2  A    between atoms: C_10  and  C_12
REMARK    3  A    between atoms: C_12  and  C_13
REMARK    4  A    between atoms: N_26  and  C_27
REMARK    5  A    between atoms: C_27  and  C_28
REMARK    6  A    between atoms: C_33  and  C_36
REMARK                            x       y       z     vdW  Elec       q    Type
REMARK                         _______ _______ _______ _____ _____    ______ ____
ROOT
ATOM      1  C   UNL     1       3.810   6.041  -0.607  0.00  0.00    +0.153 C 
ATOM      2  C   UNL     1       3.821   7.522  -0.856  0.00  0.00    +0.231 C 
ATOM      3  O   UNL     1       3.077   7.975  -1.701  0.00  0.00    -0.274 OA
ATOM      4  N   UNL     1       4.617   8.364  -0.185  0.00  0.00    -0.310 N 
ATOM      5  C   UNL     1       5.510   7.917   0.876  0.00  0.00    +0.090 C 
ATOM      6  C   UNL     1       6.829   8.680   0.837  0.00  0.00    +0.024 C 
ATOM      7  C   UNL     1       7.580   8.360  -0.457  0.00  0.00    +0.002 C 
ATOM      8  C   UNL     1       7.852   6.855  -0.520  0.00  0.00    +0.002 C 
ATOM      9  C   UNL     1       6.522   6.102  -0.519  0.00  0.00    +0.021 C 
ATOM     10  C   UNL     1       5.761   6.415   0.759  0.00  0.00    +0.078 C 
ATOM     11  N   UNL     1       4.452   5.740   0.680  0.00  0.00    -0.278 NA
ATOM     12  H   UNL     1       4.598   9.306  -0.413  0.00  0.00    +0.149 HD
ENDROOT
BRANCH   1  13
ATOM     13  C   UNL     1       2.364   5.542  -0.580  0.00  0.00    +0.124 C 
BRANCH  13  15
ATOM     14  N   UNL     1       0.382   5.766   0.883  0.00  0.00    -0.285 N 
ATOM     15  C   UNL     1       1.654   6.122   0.616  0.00  0.00    +0.219 C 
ATOM     16  O   UNL     1       2.228   6.909   1.339  0.00  0.00    -0.275 OA
ATOM     17  H   UNL     1      -0.036   5.049   0.381  0.00  0.00    +0.155 HD
BRANCH  14  19
ATOM     18  C   UNL     1      -1.717   6.530   1.800  0.00  0.00    +0.043 A 
ATOM     19  C   UNL     1      -0.335   6.430   1.884  0.00  0.00    +0.036 A 
ATOM     20  C   UNL     1       0.335   6.990   2.964  0.00  0.00    +0.043 A 
ATOM     21  C   UNL     1      -0.376   7.646   3.952  0.00  0.00    +0.044 A 
ATOM     22  C   UNL     1      -1.754   7.744   3.866  0.00  0.00    +0.040 A 
ATOM     23  C   UNL     1      -2.424   7.187   2.790  0.00  0.00    +0.044 A 
ATOM     24 CL   UNL     1      -4.152   7.312   2.685  0.00  0.00    -0.083 Cl
ATOM     25 CL   UNL     1       0.460   8.346   5.303  0.00  0.00    -0.083 Cl
ENDBRANCH  14  19
ENDBRANCH  13  15
ENDBRANCH   1  13
BRANCH  11  26
ATOM     26  C   UNL     1       4.598   4.291   0.869  0.00  0.00    +0.181 C 
BRANCH  26  27
ATOM     27  C   UNL     1       4.806   3.994   2.332  0.00  0.00    +0.230 C 
ATOM     28  O   UNL     1       4.717   4.884   3.150  0.00  0.00    -0.274 OA
ATOM     29  N   UNL     1       5.092   2.738   2.731  0.00  0.00    -0.300 N 
ATOM     30  C   UNL     1       5.324   1.674   1.744  0.00  0.00    +0.108 C 
ATOM     31  C   UNL     1       4.394   0.498   2.060  0.00  0.00    +0.032 C 
ATOM     32  C   UNL     1       4.602   0.065   3.513  0.00  0.00    +0.078 C 
ATOM     33  C   UNL     1       4.249   1.224   4.449  0.00  0.00    +0.032 C 
ATOM     34  C   UNL     1       5.183   2.409   4.160  0.00  0.00    +0.108 C 
BRANCH  32  35
ATOM     35  C   UNL     1       3.714  -1.114   3.818  0.00  0.00    +0.214 C 
ATOM     36  O   UNL     1       2.960  -1.541   2.968  0.00  0.00    -0.276 OA
ATOM     37  N   UNL     1       3.756  -1.694   5.034  0.00  0.00    -0.329 N 
ATOM     38  H   UNL     1       4.307  -1.311   5.734  0.00  0.00    +0.145 HD
ATOM     39  H   UNL     1       3.237  -2.494   5.208  0.00  0.00    +0.145 HD
ENDBRANCH  32  35
ENDBRANCH  26  27
ENDBRANCH  11  26
TORSDOF 6
