REMARK  Name = ZINC12657694
REMARK  10 active torsions:
REMARK  status: ('A' for Active; 'I' for Inactive)
REMARK    1  A    between atoms: C_1  and  C_2
REMARK    2  A    between atoms: C_2  and  O_3
REMARK    3  A    between atoms: O_3  and  C_4
REMARK    4  A    between atoms: C_4  and  C_6
REMARK    5  A    between atoms: C_6  and  C_36
REMARK    6  A    between atoms: C_13  and  C_35
REMARK    7  A    between atoms: C_24  and  C_34
REMARK    8  A    between atoms: C_27  and  O_30
REMARK    9  A    between atoms: O_30  and  C_31
REMARK   10  A    between atoms: C_31  and  C_33
REMARK                            x       y       z     vdW  Elec       q    Type
REMARK                         _______ _______ _______ _____ _____    ______ ____
ROOT
ATOM      1  C   UNL     1      -0.623   0.537   1.873  0.00  0.00    +0.271 C 
ATOM      2  C   UNL     1      -0.527   1.654   0.840  0.00  0.00    +0.125 C 
ATOM      3  O   UNL     1       0.092   1.752   2.116  0.00  0.00    -0.341 OA
ATOM      4  C   UNL     1       0.304   1.481  -0.441  0.00  0.00    +0.040 C 
ATOM      5  C   UNL     1      -0.452   2.244  -1.553  0.00  0.00    +0.007 C 
ATOM      6  C   UNL     1      -1.292   3.303  -0.778  0.00  0.00    +0.001 C 
ATOM      7  C   UNL     1      -1.741   2.504   0.459  0.00  0.00    +0.004 C 
ATOM      8  C   UNL     1      -2.228   3.381   1.588  0.00  0.00    +0.010 C 
ATOM      9  C   UNL     1      -1.196   4.451   1.944  0.00  0.00    +0.005 C 
ATOM     10  C   UNL     1      -0.938   5.308   0.699  0.00  0.00    -0.001 C 
ATOM     11  C   UNL     1      -0.326   4.423  -0.384  0.00  0.00    -0.004 C 
ATOM     12  C   UNL     1      -0.009   5.265  -1.623  0.00  0.00    +0.004 C 
ATOM     13  C   UNL     1       0.967   6.383  -1.251  0.00  0.00    +0.004 C 
ATOM     14  C   UNL     1       0.333   7.274  -0.181  0.00  0.00    -0.001 C 
ATOM     15  C   UNL     1       0.023   6.442   1.066  0.00  0.00    -0.026 C 
ATOM     16  C   UNL     1       1.342   5.834   1.593  0.00  0.00    +0.011 C 
ATOM     17  C   UNL     1       2.312   6.961   1.956  0.00  0.00    +0.045 C 
ATOM     18  C   UNL     1       2.605   7.802   0.712  0.00  0.00    +0.177 C 
ATOM     19  C   UNL     1       1.301   8.401   0.182  0.00  0.00    +0.048 C 
ATOM     20  C   UNL     1      -0.617   7.326   2.138  0.00  0.00    +0.012 C 
ATOM     21  C   UNL     1      -2.873   1.561   0.047  0.00  0.00    +0.014 C 
ENDROOT
BRANCH   1  22
ATOM     22  C   UNL     1      -1.941   0.344   2.578  0.00  0.00    +0.257 C 
ATOM     23  O   UNL     1      -2.738  -0.470   2.162  0.00  0.00    -0.272 OA
ATOM     24  N   UNL     1      -2.234   1.075   3.672  0.00  0.00    -0.326 N 
ATOM     25  H   UNL     1      -1.597   1.726   4.005  0.00  0.00    +0.145 HD
ATOM     26  H   UNL     1      -3.083   0.950   4.126  0.00  0.00    +0.145 HD
ENDBRANCH   1  22
BRANCH   1  27
ATOM     27  C   UNL     1       0.180  -0.715   1.632  0.00  0.00    +0.352 C 
ATOM     28  O   UNL     1       1.087  -1.003   2.375  0.00  0.00    -0.247 OA
BRANCH  27  29
ATOM     29  O   UNL     1      -0.114  -1.509   0.590  0.00  0.00    -0.462 OA
BRANCH  29  31
ATOM     30  C   UNL     1       0.222  -3.473  -0.811  0.00  0.00    +0.048 C 
ATOM     31  C   UNL     1       0.702  -2.699   0.419  0.00  0.00    +0.229 C 
ENDBRANCH  29  31
ENDBRANCH  27  29
ENDBRANCH   1  27
BRANCH  18  32
ATOM     32  O   UNL     1       3.524   8.872   1.058  0.00  0.00    -0.462 OA
BRANCH  32  33
ATOM     33  C   UNL     1       4.835   8.610   0.941  0.00  0.00    +0.304 C 
ATOM     34  O   UNL     1       5.203   7.524   0.562  0.00  0.00    -0.251 OA
ATOM     35  C   UNL     1       5.849   9.672   1.281  0.00  0.00    +0.136 C 
ENDBRANCH  32  33
ENDBRANCH  18  32
TORSDOF 6
