REMARK  Name = ZINC63917274
REMARK  7 active torsions:
REMARK  status: ('A' for Active; 'I' for Inactive)
REMARK    1  A    between atoms: C_7  and  C_10
REMARK    2  A    between atoms: C_16  and  C_18
REMARK    3  A    between atoms: C_18  and  N_19
REMARK    4  A    between atoms: N_19  and  C_20
REMARK    5  A    between atoms: N_19  and  C_27
REMARK    6  A    between atoms: C_20  and  C_21
REMARK    7  A    between atoms: C_27  and  C_28
REMARK                            x       y       z     vdW  Elec       q    Type
REMARK                         _______ _______ _______ _____ _____    ______ ____
ROOT
ATOM      1  C   UNL     1       0.518  -3.234  -0.745  0.00  0.00    +0.079 A 
ATOM      2  C   UNL     1       0.967  -4.518  -1.029  0.00  0.00    +0.076 A 
ATOM      3  S   UNL     1      -0.430  -5.439  -0.855  0.00  0.00    -0.060 S 
ATOM      4  C   UNL     1      -1.556  -4.127  -0.418  0.00  0.00    +0.165 A 
ATOM      5  N   UNL     1      -0.773  -3.070  -0.432  0.00  0.00    -0.225 NA
ATOM      6  N   UNL     1      -2.911  -4.203  -0.131  0.00  0.00    -0.266 N 
ATOM      7  C   UNL     1      -3.542  -5.394  -0.165  0.00  0.00    +0.202 C 
ATOM      8  O   UNL     1      -2.924  -6.399  -0.445  0.00  0.00    -0.277 OA
ATOM      9  H   UNL     1      -3.405  -3.399   0.093  0.00  0.00    +0.157 HD
ENDROOT
BRANCH   1  16
ATOM     10  C   UNL     1      -0.113   1.190   0.046  0.00  0.00    +0.001 A 
ATOM     11  C   UNL     1       1.046   1.957  -0.101  0.00  0.00    +0.002 A 
ATOM     12  C   UNL     1       2.233   1.401  -0.448  0.00  0.00    +0.026 A 
ATOM     13  C   UNL     1       2.318   0.003  -0.672  0.00  0.00    +0.043 A 
ATOM     14  N   UNL     1       3.334  -0.766  -1.013  0.00  0.00    -0.380 N 
ATOM     15  C   UNL     1       2.876  -2.155  -1.114  0.00  0.00    +0.151 C 
ATOM     16  C   UNL     1       1.401  -2.133  -0.781  0.00  0.00    +0.007 C 
ATOM     17  C   UNL     1       1.095  -0.801  -0.516  0.00  0.00    +0.005 A 
ATOM     18  C   UNL     1      -0.106  -0.152  -0.153  0.00  0.00    +0.010 A 
ATOM     19  H   UNL     1       4.241  -0.460  -1.171  0.00  0.00    +0.160 HD
ENDBRANCH   1  16
BRANCH   7  20
ATOM     20  C   UNL     1      -5.014  -5.477   0.147  0.00  0.00    +0.019 C 
BRANCH  20  21
ATOM     21  N   UNL     1      -5.459  -6.873   0.043  0.00  0.00    +0.388 N 
ATOM     22  H   UNL     1      -5.219  -7.236  -0.867  0.00  0.00    -0.081 HD
BRANCH  21  23
ATOM     23  C   UNL     1      -6.914  -6.938   0.229  0.00  0.00    -0.046 C 
BRANCH  23  24
ATOM     24  C   UNL     1      -7.609  -6.221  -0.931  0.00  0.00    +0.102 C 
ATOM     25  C   UNL     1      -9.139  -6.258  -0.728  0.00  0.00    +0.032 C 
ATOM     26  C   UNL     1      -9.657  -6.495  -2.173  0.00  0.00    +0.030 C 
ATOM     27  C   UNL     1      -8.532  -7.394  -2.745  0.00  0.00    +0.160 C 
ATOM     28  O   UNL     1      -7.317  -6.893  -2.162  0.00  0.00    -0.378 OA
ENDBRANCH  23  24
ENDBRANCH  21  23
BRANCH  21  29
ATOM     29  C   UNL     1      -4.796  -7.676   1.080  0.00  0.00    -0.063 C 
BRANCH  29  30
ATOM     30  C   UNL     1      -5.136  -9.153   0.875  0.00  0.00    +0.038 C 
ATOM     31  C   UNL     1      -4.403 -10.054   1.904  0.00  0.00    +0.040 C 
ATOM     32  C   UNL     1      -3.942 -11.323   1.264  0.00  0.00    -0.019 C 
ATOM     33  C   UNL     1      -3.852 -11.400  -0.050  0.00  0.00    +0.036 C 
ATOM     34  S   UNL     1      -4.381  -9.813  -0.670  0.00  0.00    -0.131 S 
ENDBRANCH  29  30
ENDBRANCH  21  29
ENDBRANCH  20  21
ENDBRANCH   7  20
TORSDOF 7
