REMARK  Name = ZINC23953585
REMARK  6 active torsions:
REMARK  status: ('A' for Active; 'I' for Inactive)
REMARK    1  A    between atoms: C_1  and  C_2
REMARK    2  A    between atoms: C_2  and  C_3
REMARK    3  A    between atoms: C_3  and  C_23
REMARK    4  A    between atoms: N_6  and  N_10
REMARK    5  A    between atoms: C_11  and  C_13
REMARK    6  A    between atoms: C_14  and  C_22
REMARK                            x       y       z     vdW  Elec       q    Type
REMARK                         _______ _______ _______ _____ _____    ______ ____
ROOT
ATOM      1  C   UNL     1       8.931   4.325   0.548  0.00  0.00    +0.139 C 
ATOM      2  C   UNL     1       7.493   4.346   1.026  0.00  0.00    +0.268 C 
ATOM      3  O   UNL     1       7.095   4.613   2.140  0.00  0.00    -0.271 OA
ATOM      4  N   UNL     1       6.748   4.004  -0.044  0.00  0.00    -0.137 N 
ATOM      5  C   UNL     1       7.508   3.779  -1.122  0.00  0.00    +0.327 C 
ATOM      6  O   UNL     1       7.063   3.461  -2.207  0.00  0.00    -0.251 OA
ATOM      7  N   UNL     1       8.819   3.945  -0.871  0.00  0.00    -0.280 N 
ATOM      8  H   UNL     1       9.724   3.852  -1.488  0.00  0.00    +0.152 HD
ENDROOT
BRANCH   1   9
ATOM      9  C   UNL     1       9.551   5.692   0.683  0.00  0.00    -0.015 A 
ATOM     10  C   UNL     1      10.286   6.009   1.810  0.00  0.00    +0.006 A 
ATOM     11  C   UNL     1      10.858   7.262   1.932  0.00  0.00    +0.000 A 
ATOM     12  C   UNL     1      10.687   8.200   0.932  0.00  0.00    +0.000 A 
ATOM     13  C   UNL     1       9.947   7.885  -0.193  0.00  0.00    +0.000 A 
ATOM     14  C   UNL     1       9.379   6.631  -0.317  0.00  0.00    +0.006 A 
ENDBRANCH   1   9
BRANCH   4  15
ATOM     15  N   UNL     1       5.351   3.902  -0.030  0.00  0.00    -0.217 N 
ATOM     16  C   UNL     1       4.764   2.689  -0.031  0.00  0.00    +0.296 C 
ATOM     17  O   UNL     1       5.447   1.683  -0.043  0.00  0.00    -0.265 OA
ATOM     18  H   UNL     1       4.734   4.813  -0.018  0.00  0.00    +0.174 HD
BRANCH  16  19
ATOM     19  C   UNL     1       3.298   2.583  -0.016  0.00  0.00    +0.195 A 
ATOM     20  C   UNL     1       2.599   1.418  -0.016  0.00  0.00    +0.008 A 
ATOM     21  C   UNL     1       1.186   1.794   0.000  0.00  0.00    +0.024 A 
ATOM     22  C   UNL     1      -0.013   1.076   0.008  0.00  0.00    +0.012 A 
ATOM     23  C   UNL     1      -1.203   1.746   0.017  0.00  0.00    +0.001 A 
ATOM     24  C   UNL     1      -1.229   3.134   0.031  0.00  0.00    +0.004 A 
ATOM     25  C   UNL     1      -0.058   3.860   0.023  0.00  0.00    +0.047 A 
ATOM     26  C   UNL     1       1.165   3.201   0.008  0.00  0.00    +0.136 A 
ATOM     27  O   UNL     1       2.443   3.627  -0.002  0.00  0.00    -0.450 OA
ATOM     28  C   UNL     1       3.165   0.021  -0.028  0.00  0.00    +0.048 C 
ENDBRANCH  16  19
ENDBRANCH   4  15
BRANCH   1  30
ATOM     29  C   UNL     1       9.140   1.899   1.109  0.00  0.00    +0.007 C 
ATOM     30  C   UNL     1       9.748   3.287   1.321  0.00  0.00    +0.037 C 
ENDBRANCH   1  30
TORSDOF 4
