REMARK  Name = ZINC62038666
REMARK  9 active torsions:
REMARK  status: ('A' for Active; 'I' for Inactive)
REMARK    1  A    between atoms: C_1  and  C_2
REMARK    2  A    between atoms: C_5  and  C_9
REMARK    3  A    between atoms: C_6  and  C_8
REMARK    4  A    between atoms: C_14  and  S_18
REMARK    5  A    between atoms: S_18  and  C_19
REMARK    6  A    between atoms: C_19  and  C_21
REMARK    7  A    between atoms: C_19  and  C_22
REMARK    8  A    between atoms: N_24  and  C_25
REMARK    9  A    between atoms: C_30  and  O_31
REMARK                            x       y       z     vdW  Elec       q    Type
REMARK                         _______ _______ _______ _____ _____    ______ ____
ROOT
ATOM      1  C   UNL     1       0.029  -4.267  -0.059  0.00  0.00    +0.001 A 
ATOM      2  C   UNL     1       1.088  -4.943  -0.564  0.00  0.00    +0.056 A 
ATOM      3  S   UNL     1       0.627  -6.653  -0.358  0.00  0.00    -0.076 S 
ATOM      4  C   UNL     1      -0.963  -6.426   0.394  0.00  0.00    +0.113 A 
ATOM      5  C   UNL     1      -1.098  -5.025   0.474  0.00  0.00    +0.047 A 
ATOM      6  C   UNL     1      -2.309  -4.561   1.055  0.00  0.00    +0.110 A 
ATOM      7  N   UNL     1      -3.203  -5.442   1.475  0.00  0.00    -0.228 NA
ATOM      8  C   UNL     1      -3.008  -6.744   1.373  0.00  0.00    +0.223 A 
ATOM      9  N   UNL     1      -1.909  -7.234   0.834  0.00  0.00    -0.228 NA
ENDROOT
BRANCH   1  14
ATOM     10  C   UNL     1      -0.018   1.490   0.002  0.00  0.00    +0.044 C 
ATOM     11  C   UNL     1      -0.005  -0.017  -0.014  0.00  0.00    -0.050 A 
ATOM     12  C   UNL     1      -0.010  -0.693  -1.221  0.00  0.00    +0.004 A 
ATOM     13  C   UNL     1       0.001  -2.073  -1.242  0.00  0.00    +0.009 A 
ATOM     14  C   UNL     1       0.018  -2.785  -0.044  0.00  0.00    -0.014 A 
ATOM     15  C   UNL     1       0.023  -2.098   1.169  0.00  0.00    -0.042 A 
ATOM     16  C   UNL     1       0.016  -0.718   1.178  0.00  0.00    +0.007 A 
ATOM     17  C   UNL     1       0.040  -2.861   2.469  0.00  0.00    +0.044 C 
ENDBRANCH   1  14
BRANCH   6  18
ATOM     18  S   UNL     1      -2.616  -2.833   1.214  0.00  0.00    -0.093 S 
BRANCH  18  19
ATOM     19  C   UNL     1      -4.252  -2.748   1.995  0.00  0.00    +0.136 C 
ATOM     20  C   UNL     1      -5.301  -3.325   1.043  0.00  0.00    +0.029 C 
BRANCH  19  21
ATOM     21  C   UNL     1      -4.587  -1.312   2.303  0.00  0.00    +0.230 C 
ATOM     22  O   UNL     1      -4.076  -0.419   1.661  0.00  0.00    -0.274 OA
ATOM     23  N   UNL     1      -5.456  -1.020   3.291  0.00  0.00    -0.282 N 
ATOM     24  H   UNL     1      -5.914  -1.734   3.761  0.00  0.00    +0.155 HD
BRANCH  23  25
ATOM     25  C   UNL     1      -5.697   0.316   3.639  0.00  0.00    +0.077 A 
ATOM     26  C   UNL     1      -5.689   1.301   2.664  0.00  0.00    +0.047 A 
ATOM     27  C   UNL     1      -5.928   2.619   3.010  0.00  0.00    +0.043 A 
ATOM     28  C   UNL     1      -6.176   2.956   4.329  0.00  0.00    +0.023 A 
ATOM     29  C   UNL     1      -6.185   1.978   5.306  0.00  0.00    +0.049 A 
ATOM     30  C   UNL     1      -5.953   0.656   4.966  0.00  0.00    +0.138 A 
ATOM     31 CL   UNL     1      -5.917   3.852   1.788  0.00  0.00    -0.083 Cl
BRANCH  30  32
ATOM     32  O   UNL     1      -5.968  -0.308   5.926  0.00  0.00    -0.505 OA
ATOM     33  H   UNL     1      -5.108  -0.466   6.338  0.00  0.00    +0.292 HD
ENDBRANCH  30  32
ENDBRANCH  23  25
ENDBRANCH  19  21
ENDBRANCH  18  19
ENDBRANCH   6  18
TORSDOF 6
