REMARK  Name = ZINC00958605
REMARK  8 active torsions:
REMARK  status: ('A' for Active; 'I' for Inactive)
REMARK    1  A    between atoms: C_1  and  C_2
REMARK    2  A    between atoms: C_2  and  C_36
REMARK    3  A    between atoms: C_6  and  C_27
REMARK    4  A    between atoms: C_11  and  S_15
REMARK    5  A    between atoms: S_15  and  C_16
REMARK    6  A    between atoms: C_16  and  C_17
REMARK    7  A    between atoms: C_32  and  O_33
REMARK    8  A    between atoms: O_33  and  C_34
REMARK                            x       y       z     vdW  Elec       q    Type
REMARK                         _______ _______ _______ _____ _____    ______ ____
ROOT
ATOM      1  C   UNL     1      -0.019   1.526   0.010  0.00  0.00    +0.011 C 
ATOM      2  C   UNL     1       0.002  -0.004   0.002  0.00  0.00    -0.023 C 
ATOM      3  C   UNL     1      -1.433  -0.540   0.039  0.00  0.00    +0.086 C 
ATOM      4  C   UNL     1      -1.394  -2.041   0.124  0.00  0.00    +0.162 C 
ATOM      5  C   UNL     1      -0.312  -2.712   0.722  0.00  0.00    +0.024 C 
ATOM      6  C   UNL     1      -0.353  -4.219   0.755  0.00  0.00    +0.096 C 
ATOM      7  C   UNL     1       1.008  -4.795   1.005  0.00  0.00    +0.071 A 
ATOM      8  C   UNL     1       2.026  -4.009   1.530  0.00  0.00    +0.135 A 
ATOM      9  N   UNL     1       3.221  -4.548   1.743  0.00  0.00    -0.206 NA
ATOM     10  C   UNL     1       3.445  -5.824   1.457  0.00  0.00    +0.194 A 
ATOM     11  N   UNL     1       2.497  -6.602   0.955  0.00  0.00    -0.183 NA
ATOM     12  C   UNL     1       1.278  -6.128   0.718  0.00  0.00    +0.280 A 
ATOM     13  O   UNL     1       0.314  -6.931   0.204  0.00  0.00    -0.265 OA
ATOM     14  N   UNL     1       1.783  -2.677   1.820  0.00  0.00    -0.302 N 
ATOM     15  C   UNL     1       0.722  -2.026   1.253  0.00  0.00    +0.017 C 
ATOM     16  C   UNL     1       0.741  -0.516   1.240  0.00  0.00    +0.058 C 
ATOM     17  O   UNL     1      -2.315  -2.687  -0.333  0.00  0.00    -0.292 OA
ATOM     18  C   UNL     1       0.706  -0.503  -1.261  0.00  0.00    +0.011 C 
ATOM     19  H   UNL     1       2.369  -2.203   2.430  0.00  0.00    +0.153 HD
ENDROOT
BRANCH   6  20
ATOM     20  C   UNL     1      -1.285  -4.663   1.853  0.00  0.00    +0.006 A 
ATOM     21  C   UNL     1      -1.036  -4.298   3.162  0.00  0.00    +0.008 A 
ATOM     22  C   UNL     1      -1.890  -4.706   4.169  0.00  0.00    +0.001 A 
ATOM     23  C   UNL     1      -2.996  -5.480   3.870  0.00  0.00    +0.004 A 
ATOM     24  C   UNL     1      -3.250  -5.848   2.563  0.00  0.00    +0.046 A 
ATOM     25  C   UNL     1      -2.397  -5.435   1.549  0.00  0.00    +0.124 A 
BRANCH  25  26
ATOM     26  O   UNL     1      -2.648  -5.790   0.262  0.00  0.00    -0.495 OA
ATOM     27  C   UNL     1      -3.811  -6.586   0.023  0.00  0.00    +0.277 C 
ENDBRANCH  25  26
ENDBRANCH   6  20
BRANCH  10  28
ATOM     28  S   UNL     1       5.044  -6.501   1.753  0.00  0.00    -0.081 S 
BRANCH  28  29
ATOM     29  C   UNL     1       4.892  -8.231   1.228  0.00  0.00    +0.114 C 
BRANCH  29  30
ATOM     30  C   UNL     1       6.208  -8.935   1.432  0.00  0.00    -0.019 A 
ATOM     31  C   UNL     1       7.150  -8.947   0.419  0.00  0.00    +0.006 A 
ATOM     32  C   UNL     1       8.357  -9.593   0.606  0.00  0.00    +0.000 A 
ATOM     33  C   UNL     1       8.625 -10.228   1.804  0.00  0.00    +0.001 A 
ATOM     34  C   UNL     1       7.685 -10.217   2.817  0.00  0.00    +0.020 A 
ATOM     35  C   UNL     1       6.478  -9.566   2.633  0.00  0.00    +0.045 A 
ATOM     36 CL   UNL     1       5.299  -9.546   3.907  0.00  0.00    -0.083 Cl
ENDBRANCH  29  30
ENDBRANCH  28  29
ENDBRANCH  10  28
TORSDOF 5
