REMARK  Name = ZINC12707475
REMARK  15 active torsions:
REMARK  status: ('A' for Active; 'I' for Inactive)
REMARK    1  A    between atoms: C_1  and  C_2
REMARK    2  A    between atoms: C_4  and  C_7
REMARK    3  A    between atoms: C_7  and  N_63
REMARK    4  A    between atoms: C_8  and  C_9
REMARK    5  A    between atoms: C_8  and  N_63
REMARK    6  A    between atoms: C_12  and  O_17
REMARK    7  A    between atoms: C_13  and  O_15
REMARK    8  A    between atoms: O_15  and  C_16
REMARK    9  A    between atoms: O_17  and  C_18
REMARK   10  A    between atoms: C_18  and  C_19
REMARK   11  A    between atoms: C_19  and  C_21
REMARK   12  A    between atoms: C_19  and  O_29
REMARK   13  A    between atoms: C_21  and  N_66
REMARK   14  A    between atoms: C_22  and  N_66
REMARK   15  A    between atoms: C_23  and  N_66
REMARK                            x       y       z     vdW  Elec       q    Type
REMARK                         _______ _______ _______ _____ _____    ______ ____
ROOT
ATOM      1  C   UNL     1       1.176   3.093  -0.655  0.00  0.00    -0.061 A 
ATOM      2  C   UNL     1       1.189   1.731  -0.418  0.00  0.00    +0.005 A 
ATOM      3  C   UNL     1       0.001   1.027  -0.354  0.00  0.00    +0.049 A 
ATOM      4  C   UNL     1      -1.205   1.685  -0.533  0.00  0.00    +0.162 A 
ATOM      5  C   UNL     1      -1.218   3.056  -0.767  0.00  0.00    +0.162 A 
ATOM      6  C   UNL     1      -0.024   3.756  -0.830  0.00  0.00    +0.051 A 
ENDROOT
BRANCH   5   7
ATOM      7  O   UNL     1      -2.400   3.708  -0.939  0.00  0.00    -0.491 OA
ATOM      8  C   UNL     1      -2.336   5.114  -1.181  0.00  0.00    +0.277 C 
ENDBRANCH   5   7
BRANCH   1   9
ATOM      9  C   UNL     1       2.474   3.856  -0.724  0.00  0.00    -0.046 C 
BRANCH   9  10
ATOM     10  N   UNL     1       2.958   3.862  -2.117  0.00  0.00    +0.385 N 
ATOM     11  H   UNL     1       3.105   2.895  -2.429  0.00  0.00    -0.085 HD
ATOM     12  H   UNL     1       2.257   4.312  -2.717  0.00  0.00    -0.085 HD
BRANCH  10  13
ATOM     13  C   UNL     1       4.229   4.604  -2.214  0.00  0.00    -0.025 C 
BRANCH  13  17
ATOM     14  C   UNL     1       6.619   2.505  -6.076  0.00  0.00    +0.073 C 
ATOM     15  C   UNL     1       5.815   3.562  -5.364  0.00  0.00    +0.075 A 
ATOM     16  N   UNL     1       5.404   3.587  -4.117  0.00  0.00    -0.251 NA
ATOM     17  C   UNL     1       4.699   4.594  -3.646  0.00  0.00    +0.032 A 
ATOM     18  C   UNL     1       4.409   5.625  -4.480  0.00  0.00    +0.068 A 
ATOM     19  S   UNL     1       5.200   5.065  -5.982  0.00  0.00    -0.081 S 
ENDBRANCH  13  17
ENDBRANCH  10  13
ENDBRANCH   9  10
ENDBRANCH   1   9
BRANCH   4  20
ATOM     20  O   UNL     1      -2.374   0.992  -0.476  0.00  0.00    -0.486 OA
BRANCH  20  21
ATOM     21  C   UNL     1      -2.285  -0.412  -0.228  0.00  0.00    +0.258 C 
BRANCH  21  22
ATOM     22  C   UNL     1      -3.691  -1.015  -0.199  0.00  0.00    +0.135 C 
BRANCH  22  23
ATOM     23  O   UNL     1      -4.286  -0.897  -1.493  0.00  0.00    -0.390 OA
ATOM     24  H   UNL     1      -3.796  -1.349  -2.194  0.00  0.00    +0.210 HD
ENDBRANCH  22  23
BRANCH  22  25
ATOM     25  C   UNL     1      -3.604  -2.493   0.189  0.00  0.00    -0.044 C 
BRANCH  25  27
ATOM     26  C   UNL     1      -4.911  -4.530   0.254  0.00  0.00    -0.096 C 
ATOM     27  N   UNL     1      -4.971  -3.053   0.234  0.00  0.00    +0.381 N 
ATOM     28  H   UNL     1      -5.483  -2.751  -0.603  0.00  0.00    -0.082 HD
BRANCH  27  29
ATOM     29  C   UNL     1      -5.680  -2.560   1.434  0.00  0.00    -0.069 C 
ATOM     30  C   UNL     1      -4.989  -3.054   2.706  0.00  0.00    -0.015 C 
ATOM     31  C   UNL     1      -5.742  -2.532   3.931  0.00  0.00    -0.002 C 
ATOM     32  C   UNL     1      -7.183  -3.046   3.901  0.00  0.00    -0.000 C 
ATOM     33  C   UNL     1      -7.874  -2.552   2.629  0.00  0.00    -0.002 C 
ATOM     34  C   UNL     1      -7.121  -3.074   1.404  0.00  0.00    -0.015 C 
ENDBRANCH  27  29
ENDBRANCH  25  27
ENDBRANCH  22  25
ENDBRANCH  21  22
ENDBRANCH  20  21
ENDBRANCH   4  20
TORSDOF 12
