REMARK  Name = ZINC14624011
REMARK  11 active torsions:
REMARK  status: ('A' for Active; 'I' for Inactive)
REMARK    1  A    between atoms: C_1  and  C_2
REMARK    2  A    between atoms: C_2  and  C_3
REMARK    3  A    between atoms: C_3  and  C_4
REMARK    4  A    between atoms: C_4  and  N_5
REMARK    5  A    between atoms: C_6  and  N_27
REMARK    6  A    between atoms: C_7  and  N_14
REMARK    7  A    between atoms: N_14  and  C_15
REMARK    8  A    between atoms: C_15  and  C_16
REMARK    9  A    between atoms: C_16  and  C_17
REMARK   10  A    between atoms: C_17  and  C_18
REMARK   11  A    between atoms: C_19  and  C_21
REMARK                            x       y       z     vdW  Elec       q    Type
REMARK                         _______ _______ _______ _____ _____    ______ ____
ROOT
ATOM      1  N   UNL     1       3.499  -0.883   0.106  0.00  0.00    -0.280 N 
ATOM      2  C   UNL     1       2.308  -0.200   0.024  0.00  0.00    +0.127 A 
ATOM      3  C   UNL     1       2.324   1.180  -0.006  0.00  0.00    +0.140 A 
ATOM      4  C   UNL     1       3.563   1.846   0.042  0.00  0.00    +0.277 A 
ATOM      5  O   UNL     1       3.606   3.064   0.012  0.00  0.00    -0.266 OA
ATOM      6  N   UNL     1       4.700   1.129   0.128  0.00  0.00    -0.273 N 
ATOM      7  H   UNL     1       5.580   1.602   0.171  0.00  0.00    +0.173 HD
ATOM      8  C   UNL     1       4.666  -0.215   0.156  0.00  0.00    +0.331 A 
ATOM      9  O   UNL     1       5.708  -0.837   0.229  0.00  0.00    -0.246 OA
ENDROOT
BRANCH   3  10
ATOM     10  N   UNL     1       1.119   1.909  -0.090  0.00  0.00    -0.260 N 
ATOM     11  C   UNL     1       0.308   1.751  -1.155  0.00  0.00    +0.258 C 
ATOM     12  O   UNL     1       0.651   1.039  -2.081  0.00  0.00    -0.269 OA
BRANCH  11  13
ATOM     13  C   UNL     1      -0.983   2.442  -1.201  0.00  0.00    +0.075 A 
ATOM     14  C   UNL     1      -1.986   2.356  -2.154  0.00  0.00    +0.022 A 
ATOM     15  C   UNL     1      -3.108   3.120  -1.952  0.00  0.00    +0.024 A 
ATOM     16  C   UNL     1      -3.181   3.911  -0.848  0.00  0.00    +0.056 A 
ATOM     17  S   UNL     1      -1.677   3.607  -0.042  0.00  0.00    -0.077 S 
ATOM     18 BR   UNL     1      -4.588   5.058  -0.316  0.00  0.00    -0.043 Br
ENDBRANCH  11  13
BRANCH  10  19
ATOM     19  C   UNL     1       0.750   2.838   0.981  0.00  0.00    +0.114 C 
BRANCH  19  20
ATOM     20  C   UNL     1      -0.189   2.136   1.964  0.00  0.00    +0.019 C 
BRANCH  20  21
ATOM     21  C   UNL     1      -0.575   3.107   3.082  0.00  0.00    -0.002 C 
ATOM     22  C   UNL     1      -1.513   2.404   4.066  0.00  0.00    +0.004 C 
ENDBRANCH  20  21
ENDBRANCH  19  20
ENDBRANCH  10  19
ENDBRANCH   3  10
BRANCH   2  23
ATOM     23  N   UNL     1       1.117  -0.883  -0.027  0.00  0.00    -0.343 N 
ATOM     24  H   UNL     1       0.284  -0.398  -0.139  0.00  0.00    +0.144 HD
ATOM     25  H   UNL     1       1.108  -1.850   0.049  0.00  0.00    +0.144 HD
ENDBRANCH   2  23
BRANCH   1  26
ATOM     26  C   UNL     1       3.498  -2.348   0.138  0.00  0.00    +0.128 C 
BRANCH  26  27
ATOM     27  C   UNL     1       3.578  -2.890  -1.291  0.00  0.00    +0.021 C 
BRANCH  27  29
ATOM     28  C   UNL     1       3.656  -4.961  -2.686  0.00  0.00    +0.004 C 
ATOM     29  C   UNL     1       3.576  -4.419  -1.257  0.00  0.00    -0.002 C 
ENDBRANCH  27  29
ENDBRANCH  26  27
ENDBRANCH   1  26
TORSDOF 9
