REMARK  Name = ZINC13563862
REMARK  4 active torsions:
REMARK  status: ('A' for Active; 'I' for Inactive)
REMARK    1  A    between atoms: C_9  and  O_27
REMARK    2  A    between atoms: C_10  and  C_11
REMARK    3  A    between atoms: N_12  and  N_13
REMARK    4  A    between atoms: C_14  and  C_16
REMARK                            x       y       z     vdW  Elec       q    Type
REMARK                         _______ _______ _______ _____ _____    ______ ____
ROOT
ATOM      1  C   UNL     1      -3.048  10.329  -0.331  0.00  0.00    +0.142 C 
ATOM      2  N   UNL     1      -2.108   9.509   0.037  0.00  0.00    -0.187 NA
ENDROOT
BRANCH   1  12
ATOM      3  C   UNL     1      -5.354  11.398  -4.817  0.00  0.00    +0.001 A 
ATOM      4  C   UNL     1      -4.236  11.904  -4.159  0.00  0.00    +0.001 A 
ATOM      5  C   UNL     1      -3.854  11.411  -2.948  0.00  0.00    +0.009 A 
ATOM      6  C   UNL     1      -4.595  10.381  -2.355  0.00  0.00    -0.006 A 
ATOM      7  C   UNL     1      -5.730   9.861  -3.023  0.00  0.00    -0.017 A 
ATOM      8  C   UNL     1      -6.092  10.391  -4.274  0.00  0.00    +0.008 A 
ATOM      9  C   UNL     1      -6.476   8.831  -2.424  0.00  0.00    +0.012 A 
ATOM     10  C   UNL     1      -6.117   8.326  -1.214  0.00  0.00    +0.046 A 
ATOM     11  C   UNL     1      -5.006   8.802  -0.520  0.00  0.00    +0.126 A 
ATOM     12  C   UNL     1      -4.221   9.822  -1.057  0.00  0.00    +0.044 A 
BRANCH  11  13
ATOM     13  O   UNL     1      -4.685   8.268   0.687  0.00  0.00    -0.506 OA
ATOM     14  H   UNL     1      -5.159   8.665   1.431  0.00  0.00    +0.292 HD
ENDBRANCH  11  13
ENDBRANCH   1  12
BRANCH   2  15
ATOM     15  N   UNL     1      -2.148   8.169  -0.369  0.00  0.00    -0.204 N 
ATOM     16  C   UNL     1      -1.237   7.295   0.102  0.00  0.00    +0.276 C 
ATOM     17  O   UNL     1      -0.439   7.646   0.945  0.00  0.00    -0.270 OA
ATOM     18  H   UNL     1      -2.832   7.870  -0.988  0.00  0.00    +0.177 HD
BRANCH  16  19
ATOM     19  C   UNL     1      -1.210   5.881  -0.419  0.00  0.00    +0.297 C 
ATOM     20  C   UNL     1      -2.511   5.163  -0.035  0.00  0.00    +0.283 C 
ATOM     21  O   UNL     1      -2.446   3.822  -0.532  0.00  0.00    -0.484 OA
ATOM     22  C   UNL     1      -1.288   3.142  -0.308  0.00  0.00    +0.162 A 
ATOM     23  C   UNL     1      -1.275   1.761  -0.432  0.00  0.00    +0.049 A 
ATOM     24  C   UNL     1      -0.108   1.056  -0.205  0.00  0.00    +0.004 A 
ATOM     25  C   UNL     1       1.052   1.727   0.136  0.00  0.00    +0.004 A 
ATOM     26  C   UNL     1       1.046   3.103   0.258  0.00  0.00    +0.049 A 
ATOM     27  C   UNL     1      -0.123   3.816   0.038  0.00  0.00    +0.163 A 
ATOM     28  O   UNL     1      -0.115   5.171   0.169  0.00  0.00    -0.472 OA
ENDBRANCH  16  19
ENDBRANCH   2  15
TORSDOF 4
