REMARK  Name = ZINC09368298
REMARK  8 active torsions:
REMARK  status: ('A' for Active; 'I' for Inactive)
REMARK    1  A    between atoms: C_1  and  C_2
REMARK    2  A    between atoms: C_2  and  N_3
REMARK    3  A    between atoms: N_3  and  C_4
REMARK    4  A    between atoms: C_5  and  N_20
REMARK    5  A    between atoms: N_6  and  C_13
REMARK    6  A    between atoms: C_13  and  C_14
REMARK    7  A    between atoms: C_21  and  C_23
REMARK    8  A    between atoms: C_23  and  N_24
REMARK                            x       y       z     vdW  Elec       q    Type
REMARK                         _______ _______ _______ _____ _____    ______ ____
ROOT
ATOM      1  C   UNL     1       0.074   1.424  -0.018  0.00  0.00    +0.140 A 
ATOM      2  C   UNL     1       0.427   2.130  -1.150  0.00  0.00    +0.128 A 
ATOM      3  N   UNL     1       0.418   3.506  -1.114  0.00  0.00    -0.276 N 
ATOM      4  C   UNL     1       0.077   4.154   0.014  0.00  0.00    +0.331 A 
ATOM      5  O   UNL     1       0.079   5.370   0.027  0.00  0.00    -0.246 OA
ATOM      6  N   UNL     1      -0.265   3.483   1.128  0.00  0.00    -0.273 N 
ATOM      7  H   UNL     1      -0.514   3.989   1.953  0.00  0.00    +0.173 HD
ATOM      8  C   UNL     1      -0.276   2.136   1.144  0.00  0.00    +0.277 A 
ATOM      9  O   UNL     1      -0.588   1.537   2.160  0.00  0.00    -0.266 OA
ENDROOT
BRANCH   1  10
ATOM     10  N   UNL     1       0.070   0.013  -0.025  0.00  0.00    -0.263 N 
ATOM     11  C   UNL     1      -1.091  -0.659   0.113  0.00  0.00    +0.237 C 
ATOM     12  O   UNL     1      -2.142  -0.053   0.152  0.00  0.00    -0.274 OA
BRANCH  10  14
ATOM     13  C   UNL     1       1.873  -1.099   1.198  0.00  0.00    +0.025 C 
ATOM     14  C   UNL     1       1.328  -0.722  -0.181  0.00  0.00    +0.110 C 
ENDBRANCH  10  14
BRANCH  11  15
ATOM     15  C   UNL     1      -1.084  -2.162   0.218  0.00  0.00    +0.201 C 
BRANCH  15  16
ATOM     16  N   UNL     1      -2.463  -2.650   0.359  0.00  0.00    -0.320 N 
ATOM     17  C   UNL     1      -2.521  -4.112   0.227  0.00  0.00    +0.106 C 
ATOM     18  C   UNL     1      -3.532  -4.721   1.175  0.00  0.00    +0.030 C 
ATOM     19  C   UNL     1      -4.989  -4.466   0.840  0.00  0.00    +0.076 C 
ATOM     20  S   UNL     1      -5.366  -2.698   1.075  0.00  0.00    -0.123 S 
ATOM     21  C   UNL     1      -4.684  -1.981  -0.400  0.00  0.00    +0.029 A 
ATOM     22  C   UNL     1      -3.313  -2.037  -0.579  0.00  0.00    +0.044 A 
ATOM     23  C   UNL     1      -2.757  -1.472  -1.722  0.00  0.00    +0.024 A 
ATOM     24  C   UNL     1      -3.578  -0.873  -2.659  0.00  0.00    +0.002 A 
ATOM     25  C   UNL     1      -4.947  -0.830  -2.474  0.00  0.00    +0.001 A 
ATOM     26  C   UNL     1      -5.509  -1.386  -1.335  0.00  0.00    +0.016 A 
ENDBRANCH  15  16
ENDBRANCH  11  15
ENDBRANCH   1  10
BRANCH   2  27
ATOM     27  N   UNL     1       0.780   1.468  -2.301  0.00  0.00    -0.343 N 
ATOM     28  H   UNL     1       0.833   0.499  -2.307  0.00  0.00    +0.144 HD
ATOM     29  H   UNL     1       0.977   1.968  -3.108  0.00  0.00    +0.144 HD
ENDBRANCH   2  27
BRANCH   3  30
ATOM     30  C   UNL     1       0.786   4.268  -2.310  0.00  0.00    +0.163 C 
BRANCH  30  31
ATOM     31  C   UNL     1       2.272   4.522  -2.305  0.00  0.00    -0.028 A 
ATOM     32  C   UNL     1       2.776   5.664  -1.711  0.00  0.00    +0.005 A 
ATOM     33  C   UNL     1       4.138   5.895  -1.702  0.00  0.00    +0.000 A 
ATOM     34  C   UNL     1       4.997   4.989  -2.298  0.00  0.00    +0.000 A 
ATOM     35  C   UNL     1       4.492   3.850  -2.897  0.00  0.00    +0.000 A 
ATOM     36  C   UNL     1       3.130   3.617  -2.900  0.00  0.00    +0.005 A 
ENDBRANCH  30  31
ENDBRANCH   3  30
TORSDOF 7
