REMARK  Name = ZINC39482148
REMARK  10 active torsions:
REMARK  status: ('A' for Active; 'I' for Inactive)
REMARK    1  A    between atoms: C_1  and  C_2
REMARK    2  A    between atoms: C_9  and  C_16
REMARK    3  A    between atoms: C_11  and  O_12
REMARK    4  A    between atoms: C_16  and  O_17
REMARK    5  A    between atoms: O_17  and  C_18
REMARK    6  A    between atoms: C_18  and  C_20
REMARK    7  A    between atoms: C_20  and  C_21
REMARK    8  A    between atoms: C_21  and  C_23
REMARK    9  A    between atoms: C_21  and  N_29
REMARK   10  A    between atoms: C_30  and  C_32
REMARK                            x       y       z     vdW  Elec       q    Type
REMARK                         _______ _______ _______ _____ _____    ______ ____
ROOT
ATOM      1  C   UNL     1      -4.594  -7.380  -0.032  0.00  0.00    +0.310 C 
ATOM      2  O   UNL     1      -4.617  -8.587   0.013  0.00  0.00    -0.251 OA
ENDROOT
BRANCH   1   3
ATOM      3  O   UNL     1      -3.420  -6.730  -0.022  0.00  0.00    -0.460 OA
BRANCH   3   4
ATOM      4  C   UNL     1      -2.237  -7.529   0.042  0.00  0.00    +0.268 C 
BRANCH   4  13
ATOM      5  C   UNL     1       5.144  -6.630  -4.717  0.00  0.00    +0.109 C 
ATOM      6  C   UNL     1       4.118  -6.612  -3.612  0.00  0.00    +0.214 C 
ATOM      7  O   UNL     1       4.387  -6.103  -2.539  0.00  0.00    -0.276 OA
ATOM      8  N   UNL     1       2.929  -7.149  -3.808  0.00  0.00    -0.286 N 
ATOM      9  C   UNL     1       1.960  -7.019  -2.861  0.00  0.00    +0.037 A 
ATOM     10  C   UNL     1       0.840  -7.869  -2.887  0.00  0.00    +0.024 A 
ATOM     11  C   UNL     1      -0.134  -7.750  -1.947  0.00  0.00    +0.014 A 
ATOM     12  C   UNL     1      -0.025  -6.773  -0.942  0.00  0.00    +0.024 A 
ATOM     13  C   UNL     1      -1.025  -6.634   0.043  0.00  0.00    +0.007 A 
ATOM     14  C   UNL     1      -0.869  -5.659   1.008  0.00  0.00    +0.095 A 
ATOM     15  C   UNL     1       0.253  -4.843   0.993  0.00  0.00    +0.285 A 
ATOM     16  O   UNL     1       1.199  -4.978   0.057  0.00  0.00    -0.425 OA
ATOM     17  C   UNL     1       1.097  -5.915  -0.909  0.00  0.00    +0.141 A 
ATOM     18  C   UNL     1       2.086  -6.048  -1.867  0.00  0.00    +0.070 A 
ATOM     19  H   UNL     1       2.746  -7.636  -4.627  0.00  0.00    +0.155 HD
BRANCH  15  20
ATOM     20  O   UNL     1       0.393  -3.896   1.940  0.00  0.00    -0.480 OA
ATOM     21  H   UNL     1       1.202  -3.373   1.856  0.00  0.00    +0.295 HD
ENDBRANCH  15  20
ENDBRANCH   4  13
ENDBRANCH   3   4
ENDBRANCH   1   3
BRANCH   1  22
ATOM     22  C   UNL     1      -5.884  -6.604  -0.098  0.00  0.00    +0.147 C 
BRANCH  22  23
ATOM     23  C   UNL     1      -7.066  -7.576  -0.095  0.00  0.00    +0.114 C 
BRANCH  23  24
ATOM     24  C   UNL     1      -8.356  -6.799  -0.037  0.00  0.00    -0.027 A 
ATOM     25  C   UNL     1      -8.874  -6.234  -1.187  0.00  0.00    +0.005 A 
ATOM     26  C   UNL     1     -10.058  -5.522  -1.134  0.00  0.00    +0.000 A 
ATOM     27  C   UNL     1     -10.723  -5.374   0.069  0.00  0.00    +0.000 A 
ATOM     28  C   UNL     1     -10.204  -5.940   1.219  0.00  0.00    +0.000 A 
ATOM     29  C   UNL     1      -9.023  -6.656   1.165  0.00  0.00    +0.005 A 
ENDBRANCH  23  24
BRANCH  23  30
ATOM     30  N   UNL     1      -7.036  -8.383  -1.317  0.00  0.00    -0.304 N 
ATOM     31  C   UNL     1      -7.618  -9.598  -1.336  0.00  0.00    +0.245 C 
ATOM     32  O   UNL     1      -8.168 -10.025  -0.340  0.00  0.00    -0.270 OA
ATOM     33  H   UNL     1      -6.597  -8.043  -2.113  0.00  0.00    +0.150 HD
BRANCH  31  34
ATOM     34  C   UNL     1      -7.589 -10.413  -2.570  0.00  0.00    +0.037 A 
ATOM     35  C   UNL     1      -6.953  -9.929  -3.714  0.00  0.00    +0.013 A 
ATOM     36  C   UNL     1      -6.929 -10.694  -4.862  0.00  0.00    +0.001 A 
ATOM     37  C   UNL     1      -7.532 -11.939  -4.880  0.00  0.00    +0.000 A 
ATOM     38  C   UNL     1      -8.164 -12.425  -3.749  0.00  0.00    +0.001 A 
ATOM     39  C   UNL     1      -8.191 -11.672  -2.593  0.00  0.00    +0.013 A 
ENDBRANCH  31  34
ENDBRANCH  23  30
ENDBRANCH  22  23
ENDBRANCH   1  22
TORSDOF 9
