REMARK  Name = ZINC57726522
REMARK  7 active torsions:
REMARK  status: ('A' for Active; 'I' for Inactive)
REMARK    1  A    between atoms: C_1  and  C_2
REMARK    2  A    between atoms: C_2  and  N_3
REMARK    3  A    between atoms: C_4  and  C_6
REMARK    4  A    between atoms: C_6  and  C_8
REMARK    5  A    between atoms: C_6  and  N_9
REMARK    6  A    between atoms: C_10  and  C_12
REMARK    7  A    between atoms: C_18  and  C_20
REMARK                            x       y       z     vdW  Elec       q    Type
REMARK                         _______ _______ _______ _____ _____    ______ ____
ROOT
ATOM      1  C   UNL     1      -4.274  -5.438   1.237  0.00  0.00    +0.087 C 
ATOM      2  C   UNL     1      -3.077  -5.937   2.050  0.00  0.00    +0.013 C 
ATOM      3  C   UNL     1      -2.451  -7.144   1.348  0.00  0.00    +0.001 C 
ATOM      4  C   UNL     1      -3.490  -8.261   1.230  0.00  0.00    +0.001 C 
ATOM      5  C   UNL     1      -4.686  -7.762   0.418  0.00  0.00    +0.013 C 
ATOM      6  C   UNL     1      -5.312  -6.555   1.120  0.00  0.00    +0.087 C 
ENDROOT
BRANCH   6   7
ATOM      7  C   UNL     1      -6.491  -6.064   0.319  0.00  0.00    +0.224 C 
ATOM      8  O   UNL     1      -6.320  -5.286  -0.595  0.00  0.00    -0.275 OA
ATOM      9  N   UNL     1      -7.734  -6.489   0.620  0.00  0.00    -0.271 N 
ATOM     10  C   UNL     1      -8.078  -7.336   1.765  0.00  0.00    +0.118 C 
ATOM     11  C   UNL     1      -9.599  -7.540   1.672  0.00  0.00    +0.056 C 
ATOM     12  C   UNL     1     -10.013  -6.767   0.441  0.00  0.00    -0.024 A 
ATOM     13  C   UNL     1      -8.885  -6.181  -0.112  0.00  0.00    +0.039 A 
ATOM     14  C   UNL     1      -9.020  -5.405  -1.264  0.00  0.00    +0.024 A 
ATOM     15  C   UNL     1     -10.260  -5.223  -1.839  0.00  0.00    +0.002 A 
ATOM     16  C   UNL     1     -11.380  -5.808  -1.277  0.00  0.00    +0.000 A 
ATOM     17  C   UNL     1     -11.253  -6.585  -0.141  0.00  0.00    +0.005 A 
ENDBRANCH   6   7
BRANCH   1  19
ATOM     18  N   UNL     1      -4.157  -3.140   2.144  0.00  0.00    -0.304 N 
ATOM     19  C   UNL     1      -4.890  -4.250   1.929  0.00  0.00    +0.217 C 
ATOM     20  O   UNL     1      -6.046  -4.292   2.292  0.00  0.00    -0.275 OA
ATOM     21  H   UNL     1      -3.232  -3.106   1.853  0.00  0.00    +0.149 HD
BRANCH  18  22
ATOM     22  C   UNL     1      -4.756  -1.984   2.816  0.00  0.00    +0.156 C 
ATOM     23  C   UNL     1      -5.492  -1.122   1.789  0.00  0.00    +0.038 C 
BRANCH  22  25
ATOM     24  N   UNL     1      -3.992  -0.050   4.156  0.00  0.00    -0.314 N 
ATOM     25  C   UNL     1      -3.673  -1.168   3.474  0.00  0.00    +0.233 C 
ATOM     26  O   UNL     1      -2.515  -1.517   3.389  0.00  0.00    -0.274 OA
ATOM     27  H   UNL     1      -4.918   0.229   4.224  0.00  0.00    +0.149 HD
BRANCH  24  29
ATOM     28  C   UNL     1      -3.565   1.950   5.497  0.00  0.00    +0.024 C 
ATOM     29  C   UNL     1      -2.939   0.743   4.795  0.00  0.00    +0.101 C 
ENDBRANCH  24  29
ENDBRANCH  22  25
ENDBRANCH  18  22
ENDBRANCH   1  19
TORSDOF 5
