REMARK  Name = ZINC49523767
REMARK  7 active torsions:
REMARK  status: ('A' for Active; 'I' for Inactive)
REMARK    1  A    between atoms: C_1  and  O_2
REMARK    2  A    between atoms: O_2  and  C_3
REMARK    3  A    between atoms: C_8  and  N_9
REMARK    4  A    between atoms: C_15  and  C_18
REMARK    5  A    between atoms: C_18  and  N_19
REMARK    6  A    between atoms: C_20  and  C_22
REMARK    7  A    between atoms: C_22  and  C_25
REMARK                            x       y       z     vdW  Elec       q    Type
REMARK                         _______ _______ _______ _____ _____    ______ ____
ROOT
ATOM      1  N   UNL     1      -2.931  -5.290  -2.137  0.00  0.00    -0.266 N 
ATOM      2  C   UNL     1      -2.735  -6.587  -1.827  0.00  0.00    +0.307 C 
ATOM      3  O   UNL     1      -2.361  -7.367  -2.681  0.00  0.00    -0.252 OA
ATOM      4  N   UNL     1      -2.954  -7.019  -0.569  0.00  0.00    -0.285 N 
ATOM      5  C   UNL     1      -3.536  -6.124   0.440  0.00  0.00    +0.109 C 
ATOM      6  C   UNL     1      -2.622  -6.104   1.669  0.00  0.00    +0.024 C 
ATOM      7  C   UNL     1      -2.397  -7.537   2.156  0.00  0.00    +0.009 C 
ATOM      8  C   UNL     1      -1.710  -8.349   1.056  0.00  0.00    +0.024 C 
ATOM      9  C   UNL     1      -2.619  -8.397  -0.182  0.00  0.00    +0.109 C 
ATOM     10  H   UNL     1      -3.150  -4.652  -1.440  0.00  0.00    +0.156 HD
ENDROOT
BRANCH   1  16
ATOM     11  C   UNL     1      -3.735  -3.957  -3.991  0.00  0.00    +0.141 A 
ATOM     12  C   UNL     1      -3.614  -3.534  -5.304  0.00  0.00    +0.047 A 
ATOM     13  C   UNL     1      -2.587  -4.015  -6.094  0.00  0.00    +0.004 A 
ATOM     14  C   UNL     1      -1.678  -4.920  -5.577  0.00  0.00    +0.002 A 
ATOM     15  C   UNL     1      -1.792  -5.346  -4.267  0.00  0.00    +0.027 A 
ATOM     16  C   UNL     1      -2.816  -4.863  -3.467  0.00  0.00    +0.077 A 
BRANCH  11  18
ATOM     17  C   UNL     1      -5.651  -2.558  -3.817  0.00  0.00    +0.277 C 
ATOM     18  O   UNL     1      -4.746  -3.484  -3.213  0.00  0.00    -0.493 OA
ENDBRANCH  11  18
ENDBRANCH   1  16
BRANCH   7  19
ATOM     19  C   UNL     1      -1.512  -7.518   3.404  0.00  0.00    +0.107 C 
BRANCH  19  20
ATOM     20  N   UNL     1      -1.394  -8.877   3.939  0.00  0.00    -0.314 N 
ATOM     21  C   UNL     1      -0.657  -9.104   5.044  0.00  0.00    +0.224 C 
ATOM     22  O   UNL     1      -0.017  -8.202   5.542  0.00  0.00    -0.275 OA
ATOM     23  H   UNL     1      -1.846  -9.613   3.498  0.00  0.00    +0.149 HD
BRANCH  21  24
ATOM     24  C   UNL     1      -0.628 -10.478   5.662  0.00  0.00    +0.078 C 
ATOM     25  C   UNL     1      -1.022 -10.599   7.135  0.00  0.00    +0.023 C 
ATOM     26  C   UNL     1      -1.969 -11.108   6.046  0.00  0.00    +0.023 C 
BRANCH  24  27
ATOM     27  C   UNL     1       0.452 -11.398   5.152  0.00  0.00    +0.005 A 
ATOM     28  C   UNL     1       1.795 -11.302   5.303  0.00  0.00    +0.012 A 
ATOM     29  C   UNL     1       2.603 -12.274   4.743  0.00  0.00    +0.008 A 
ATOM     30  C   UNL     1       2.029 -13.293   4.059  0.00  0.00    +0.045 A 
ATOM     31  S   UNL     1       0.293 -12.899   4.199  0.00  0.00    -0.101 S 
ENDBRANCH  24  27
ENDBRANCH  21  24
ENDBRANCH  19  20
ENDBRANCH   7  19
TORSDOF 6
