REMARK  Name = ZINC41408879
REMARK  6 active torsions:
REMARK  status: ('A' for Active; 'I' for Inactive)
REMARK    1  A    between atoms: C_1  and  C_2
REMARK    2  A    between atoms: C_6  and  C_7
REMARK    3  A    between atoms: C_7  and  N_8
REMARK    4  A    between atoms: N_11  and  C_12
REMARK    5  A    between atoms: C_12  and  C_13
REMARK    6  A    between atoms: C_13  and  N_18
REMARK                            x       y       z     vdW  Elec       q    Type
REMARK                         _______ _______ _______ _____ _____    ______ ____
ROOT
ATOM      1  N   UNL     1      -1.105  -0.195   3.386  0.00  0.00    -0.295 N 
ATOM      2  C   UNL     1      -1.441   0.307   4.591  0.00  0.00    +0.300 C 
ATOM      3  O   UNL     1      -0.574   0.604   5.390  0.00  0.00    -0.253 OA
ATOM      4  N   UNL     1      -2.739   0.480   4.910  0.00  0.00    -0.301 N 
ATOM      5  H   UNL     1      -1.796  -0.431   2.749  0.00  0.00    +0.151 HD
ATOM      6  H   UNL     1      -3.431   0.243   4.273  0.00  0.00    +0.150 HD
ENDROOT
BRANCH   1   7
ATOM      7  C   UNL     1       0.306  -0.383   3.039  0.00  0.00    +0.148 C 
BRANCH   7  13
ATOM      8  C   UNL     1       0.506   1.206   0.417  0.00  0.00    +0.044 C 
ATOM      9  C   UNL     1       0.500  -0.301   0.463  0.00  0.00    -0.039 A 
ATOM     10  C   UNL     1       0.593  -1.038  -0.702  0.00  0.00    +0.011 A 
ATOM     11  C   UNL     1       0.585  -2.392  -0.626  0.00  0.00    +0.046 A 
ATOM     12  S   UNL     1       0.443  -2.662   1.133  0.00  0.00    -0.100 S 
ATOM     13  C   UNL     1       0.410  -0.953   1.648  0.00  0.00    +0.010 A 
ENDBRANCH   7  13
ENDBRANCH   1   7
BRANCH   4  14
ATOM     14  C   UNL     1      -3.105   1.025   6.220  0.00  0.00    +0.094 C 
BRANCH  14  15
ATOM     15  C   UNL     1      -4.628   1.119   6.326  0.00  0.00    -0.050 C 
ATOM     16  C   UNL     1      -5.030   1.629   7.725  0.00  0.00    -0.010 C 
ATOM     17  C   UNL     1      -5.221   3.154   7.533  0.00  0.00    -0.001 C 
ATOM     18  C   UNL     1      -5.875   3.243   6.132  0.00  0.00    -0.001 C 
ATOM     19  C   UNL     1      -5.165   2.145   5.313  0.00  0.00    -0.010 C 
BRANCH  15  20
ATOM     20  N   UNL     1      -5.231  -0.197   6.077  0.00  0.00    +0.386 N 
ATOM     21  C   UNL     1      -6.689  -0.080   6.152  0.00  0.00    -0.067 C 
ATOM     22  C   UNL     1      -7.345  -1.323   5.539  0.00  0.00    +0.050 C 
ATOM     23  S   UNL     1      -6.843  -2.773   6.518  0.00  0.00    -0.164 S 
ATOM     24  C   UNL     1      -5.035  -2.584   6.612  0.00  0.00    +0.050 C 
ATOM     25  C   UNL     1      -4.725  -1.152   7.065  0.00  0.00    -0.067 C 
ATOM     26  H   UNL     1      -4.973  -0.510   5.153  0.00  0.00    -0.081 HD
ENDBRANCH  15  20
ENDBRANCH  14  15
ENDBRANCH   4  14
TORSDOF 5
