REMARK  Name = ZINC39421121
REMARK  9 active torsions:
REMARK  status: ('A' for Active; 'I' for Inactive)
REMARK    1  A    between atoms: C_1  and  C_2
REMARK    2  A    between atoms: C_2  and  C_3
REMARK    3  A    between atoms: C_2  and  C_4
REMARK    4  A    between atoms: C_2  and  O_30
REMARK    5  A    between atoms: C_5  and  C_6
REMARK    6  A    between atoms: C_9  and  C_11
REMARK    7  A    between atoms: C_11  and  N_12
REMARK    8  A    between atoms: C_16  and  N_19
REMARK    9  A    between atoms: N_19  and  C_20
REMARK                            x       y       z     vdW  Elec       q    Type
REMARK                         _______ _______ _______ _____ _____    ______ ____
ROOT
ATOM      1  N   UNL     1      -7.686  -4.069  -1.324  0.00  0.00    +0.384 N 
ATOM      2  C   UNL     1      -8.199  -2.859  -1.978  0.00  0.00    -0.078 C 
ATOM      3  C   UNL     1      -8.525  -3.164  -3.441  0.00  0.00    -0.017 C 
ATOM      4  C   UNL     1      -9.584  -4.268  -3.503  0.00  0.00    +0.018 C 
ATOM      5  C   UNL     1      -9.067  -5.500  -2.754  0.00  0.00    +0.054 C 
ATOM      6  C   UNL     1      -8.722  -5.108  -1.316  0.00  0.00    -0.056 C 
ATOM      7  H   UNL     1      -6.878  -4.404  -1.828  0.00  0.00    -0.081 HD
ENDROOT
BRANCH   5   8
ATOM      8  N   UNL     1     -10.103  -6.537  -2.744  0.00  0.00    -0.343 N 
ATOM      9  H   UNL     1     -10.703  -6.615  -1.987  0.00  0.00    +0.146 HD
BRANCH   8  10
ATOM     10  C   UNL     1     -10.225  -7.413  -3.828  0.00  0.00    +0.031 A 
ATOM     11  C   UNL     1      -9.362  -7.305  -4.910  0.00  0.00    +0.027 A 
ATOM     12  C   UNL     1      -9.484  -8.170  -5.981  0.00  0.00    +0.051 A 
ATOM     13  C   UNL     1     -10.467  -9.149  -5.978  0.00  0.00    +0.162 A 
ATOM     14  C   UNL     1     -11.331  -9.261  -4.895  0.00  0.00    +0.164 A 
ATOM     15  C   UNL     1     -11.206  -8.395  -3.819  0.00  0.00    +0.072 A 
ATOM     16  O   UNL     1     -12.296 -10.220  -4.871  0.00  0.00    -0.485 OA
ATOM     17  C   UNL     1     -12.628 -10.832  -6.122  0.00  0.00    +0.270 C 
ATOM     18  C   UNL     1     -11.322 -11.194  -6.841  0.00  0.00    +0.270 C 
ATOM     19  O   UNL     1     -10.573  -9.990  -7.044  0.00  0.00    -0.485 OA
ENDBRANCH   8  10
ENDBRANCH   5   8
BRANCH   1  20
ATOM     20  C   UNL     1      -7.301  -3.751   0.058  0.00  0.00    -0.036 C 
BRANCH  20  24
ATOM     21  C   UNL     1      -3.824  -1.416   0.031  0.00  0.00    +0.062 A 
ATOM     22  C   UNL     1      -5.003  -0.716   0.040  0.00  0.00    +0.025 A 
ATOM     23  C   UNL     1      -6.188  -1.417   0.049  0.00  0.00    +0.010 A 
ATOM     24  C   UNL     1      -6.154  -2.775   0.049  0.00  0.00    -0.026 A 
ATOM     25  S   UNL     1      -4.399  -3.106   0.027  0.00  0.00    -0.087 S 
BRANCH  21  27
ATOM     26  C   UNL     1      -1.379  -0.514   0.013  0.00  0.00    -0.062 C 
ATOM     27  C   UNL     1      -2.480  -0.920   0.021  0.00  0.00    -0.056 C 
BRANCH  26  29
ATOM     28  C   UNL     1      -0.019   1.526   0.010  0.00  0.00    +0.055 C 
ATOM     29  C   UNL     1       0.002  -0.004   0.002  0.00  0.00    +0.121 C 
ATOM     30  C   UNL     1       0.742  -0.511   1.242  0.00  0.00    +0.055 C 
BRANCH  29  31
ATOM     31  O   UNL     1       0.671  -0.465  -1.174  0.00  0.00    -0.377 OA
ATOM     32  H   UNL     1       0.256  -0.181  -1.999  0.00  0.00    +0.211 HD
ENDBRANCH  29  31
ENDBRANCH  26  29
ENDBRANCH  21  27
ENDBRANCH  20  24
ENDBRANCH   1  20
TORSDOF 7
