REMARK  Name = ZINC33869204
REMARK  11 active torsions:
REMARK  status: ('A' for Active; 'I' for Inactive)
REMARK    1  A    between atoms: C_1  and  C_2
REMARK    2  A    between atoms: C_2  and  C_3
REMARK    3  A    between atoms: C_7  and  C_40
REMARK    4  A    between atoms: C_8  and  N_9
REMARK    5  A    between atoms: C_14  and  C_33
REMARK    6  A    between atoms: C_17  and  C_22
REMARK    7  A    between atoms: C_17  and  C_30
REMARK    8  A    between atoms: C_22  and  C_23
REMARK    9  A    between atoms: C_26  and  O_29
REMARK   10  A    between atoms: C_38  and  C_39
REMARK   11  A    between atoms: C_40  and  C_41
REMARK                            x       y       z     vdW  Elec       q    Type
REMARK                         _______ _______ _______ _____ _____    ______ ____
ROOT
ATOM      1  N   UNL     1      -1.618  -0.098  -2.727  0.00  0.00    -0.209 N 
ATOM      2  C   UNL     1      -1.330   1.146  -3.231  0.00  0.00    +0.229 C 
ATOM      3  O   UNL     1      -1.538   2.221  -2.710  0.00  0.00    -0.275 OA
ATOM      4  C   UNL     1      -0.726   0.892  -4.515  0.00  0.00    +0.077 C 
ATOM      5  C   UNL     1       0.143   1.543  -5.511  0.00  0.00    -0.026 C 
ATOM      6  N   UNL     1       0.455   0.407  -6.446  0.00  0.00    +0.396 N 
ATOM      7  C   UNL     1       0.268  -0.869  -5.693  0.00  0.00    +0.052 C 
ATOM      8  C   UNL     1       0.076  -0.440  -4.230  0.00  0.00    +0.086 C 
ATOM      9  C   UNL     1      -1.000  -1.103  -3.417  0.00  0.00    +0.229 C 
ATOM     10  O   UNL     1      -1.267  -2.285  -3.383  0.00  0.00    -0.275 OA
ATOM     11  H   UNL     1      -0.171   0.432  -7.236  0.00  0.00    -0.083 HD
ATOM     12  H   UNL     1       1.410   0.479  -6.763  0.00  0.00    -0.083 HD
ENDROOT
BRANCH   5  13
ATOM     13  C   UNL     1      -0.594   2.644  -6.230  0.00  0.00    -0.058 A 
ATOM     14  C   UNL     1      -1.973   2.712  -6.160  0.00  0.00    +0.002 A 
ATOM     15  C   UNL     1      -2.649   3.722  -6.819  0.00  0.00    +0.000 A 
ATOM     16  C   UNL     1      -1.946   4.664  -7.547  0.00  0.00    +0.000 A 
ATOM     17  C   UNL     1      -0.567   4.596  -7.616  0.00  0.00    +0.003 A 
ATOM     18  C   UNL     1       0.109   3.588  -6.953  0.00  0.00    -0.049 A 
ATOM     19  C   UNL     1       1.613   3.517  -7.024  0.00  0.00    +0.044 C 
ENDBRANCH   5  13
BRANCH   1  25
ATOM     20  C   UNL     1      -1.913  -0.340  -0.340  0.00  0.00    -0.026 A 
ATOM     21  C   UNL     1      -2.736  -0.548   0.750  0.00  0.00    +0.005 A 
ATOM     22  C   UNL     1      -4.093  -0.736   0.566  0.00  0.00    +0.001 A 
ATOM     23  C   UNL     1      -4.631  -0.716  -0.708  0.00  0.00    +0.005 A 
ATOM     24  C   UNL     1      -3.813  -0.508  -1.801  0.00  0.00    -0.026 A 
ATOM     25  C   UNL     1      -2.450  -0.315  -1.619  0.00  0.00    +0.050 A 
BRANCH  20  27
ATOM     26  C   UNL     1      -0.129   1.363  -0.078  0.00  0.00    +0.009 C 
ATOM     27  C   UNL     1      -0.433  -0.135  -0.139  0.00  0.00    +0.033 C 
ENDBRANCH  20  27
BRANCH  24  28
ATOM     28  C   UNL     1      -4.399  -0.487  -3.189  0.00  0.00    +0.033 C 
ATOM     29  C   UNL     1      -4.272  -1.877  -3.817  0.00  0.00    +0.009 C 
ENDBRANCH  24  28
ENDBRANCH   1  25
BRANCH   7  30
ATOM     30  C   UNL     1       1.497  -1.732  -5.814  0.00  0.00    +0.347 C 
ATOM     31  O   UNL     1       2.443  -1.354  -6.484  0.00  0.00    -0.248 OA
ATOM     32  O   UNL     1       1.546  -2.808  -5.242  0.00  0.00    -0.248 OA
ENDBRANCH   7  30
BRANCH   7  33
ATOM     33  C   UNL     1      -0.960  -1.617  -6.216  0.00  0.00    +0.035 C 
BRANCH  33  34
ATOM     34  C   UNL     1      -0.783  -1.908  -7.684  0.00  0.00    -0.048 A 
ATOM     35  C   UNL     1      -1.323  -1.053  -8.627  0.00  0.00    +0.007 A 
ATOM     36  C   UNL     1      -1.163  -1.317  -9.973  0.00  0.00    +0.045 A 
ATOM     37  C   UNL     1      -0.458  -2.441 -10.379  0.00  0.00    +0.117 A 
ATOM     38  C   UNL     1       0.083  -3.297  -9.431  0.00  0.00    +0.045 A 
ATOM     39  C   UNL     1      -0.075  -3.026  -8.086  0.00  0.00    +0.007 A 
BRANCH  37  40
ATOM     40  O   UNL     1      -0.300  -2.703 -11.703  0.00  0.00    -0.507 OA
ATOM     41  H   UNL     1       0.494  -2.309 -12.090  0.00  0.00    +0.292 HD
ENDBRANCH  37  40
ENDBRANCH  33  34
ENDBRANCH   7  33
TORSDOF 8
