REMARK  Name = ZINC10419907
REMARK  7 active torsions:
REMARK  status: ('A' for Active; 'I' for Inactive)
REMARK    1  A    between atoms: C_1  and  C_2
REMARK    2  A    between atoms: C_3  and  O_28
REMARK    3  A    between atoms: C_12  and  C_13
REMARK    4  A    between atoms: C_13  and  S_14
REMARK    5  A    between atoms: S_14  and  C_15
REMARK    6  A    between atoms: C_18  and  C_21
REMARK    7  A    between atoms: N_19  and  N_20
REMARK                            x       y       z     vdW  Elec       q    Type
REMARK                         _______ _______ _______ _____ _____    ______ ____
ROOT
ATOM      1  S   UNL     1      -2.143  -1.119   1.705  0.00  0.00    -0.080 S 
ENDROOT
BRANCH   1   2
ATOM      2  C   UNL     1      -2.424  -2.834   1.410  0.00  0.00    +0.209 A 
ATOM      3  N   UNL     1      -2.450  -3.429   0.239  0.00  0.00    -0.121 NA
ATOM      4  N   UNL     1      -2.677  -4.685   0.388  0.00  0.00    -0.127 NA
ATOM      5  C   UNL     1      -2.820  -4.967   1.662  0.00  0.00    +0.184 A 
ATOM      6  N   UNL     1      -2.662  -3.790   2.356  0.00  0.00    -0.224 N 
BRANCH   5   7
ATOM      7  C   UNL     1      -3.097  -6.299   2.241  0.00  0.00    +0.056 A 
ATOM      8  C   UNL     1      -4.087  -6.448   3.214  0.00  0.00    +0.014 A 
ATOM      9  C   UNL     1      -4.341  -7.693   3.751  0.00  0.00    +0.001 A 
ATOM     10  C   UNL     1      -3.618  -8.794   3.327  0.00  0.00    +0.003 A 
ATOM     11  C   UNL     1      -2.636  -8.656   2.363  0.00  0.00    +0.039 A 
ATOM     12  C   UNL     1      -2.374  -7.415   1.813  0.00  0.00    +0.134 A 
ATOM     13  F   UNL     1      -1.418  -7.282   0.867  0.00  0.00    -0.205 F 
ENDBRANCH   5   7
BRANCH   6  14
ATOM     14  N   UNL     1      -2.730  -3.615   3.709  0.00  0.00    -0.295 N 
ATOM     15  H   UNL     1      -3.684  -3.489   4.010  0.00  0.00    +0.163 HD
ATOM     16  H   UNL     1      -2.295  -4.384   4.196  0.00  0.00    +0.163 HD
ENDBRANCH   6  14
ENDBRANCH   1   2
BRANCH   1  17
ATOM     17  C   UNL     1      -1.917  -0.541   0.005  0.00  0.00    +0.113 C 
BRANCH  17  29
ATOM     18  C   UNL     1       1.426   4.854   0.193  0.00  0.00    +0.051 C 
ATOM     19  C   UNL     1       1.196   3.364   0.191  0.00  0.00    +0.034 A 
ATOM     20  C   UNL     1       2.272   2.495   0.269  0.00  0.00    +0.123 A 
ATOM     21  C   UNL     1       2.070   1.116   0.268  0.00  0.00    +0.046 A 
ATOM     22  C   UNL     1       0.808   0.603   0.189  0.00  0.00    +0.015 A 
ATOM     23  C   UNL     1      -0.290   1.466   0.103  0.00  0.00    +0.022 A 
ATOM     24  C   UNL     1      -0.093   2.860   0.110  0.00  0.00    +0.146 A 
ATOM     25  O   UNL     1      -1.155   3.689   0.032  0.00  0.00    -0.422 OA
ATOM     26  C   UNL     1      -2.408   3.216  -0.065  0.00  0.00    +0.338 A 
ATOM     27  O   UNL     1      -3.335   4.003  -0.139  0.00  0.00    -0.245 OA
ATOM     28  C   UNL     1      -2.678   1.833  -0.071  0.00  0.00    +0.097 A 
ATOM     29  C   UNL     1      -1.655   0.943   0.010  0.00  0.00    -0.020 A 
BRANCH  20  30
ATOM     30  O   UNL     1       3.534   2.990   0.348  0.00  0.00    -0.506 OA
ATOM     31  H   UNL     1       3.957   3.126  -0.511  0.00  0.00    +0.292 HD
ENDBRANCH  20  30
ENDBRANCH  17  29
ENDBRANCH   1  17
TORSDOF 6
