REMARK  Name = ZINC64045351
REMARK  6 active torsions:
REMARK  status: ('A' for Active; 'I' for Inactive)
REMARK    1  A    between atoms: C_7  and  C_10
REMARK    2  A    between atoms: C_10  and  C_11
REMARK    3  A    between atoms: C_11  and  N_12
REMARK    4  A    between atoms: C_25  and  N_29
REMARK    5  A    between atoms: N_29  and  C_30
REMARK    6  A    between atoms: C_30  and  C_31
REMARK                            x       y       z     vdW  Elec       q    Type
REMARK                         _______ _______ _______ _____ _____    ______ ____
ROOT
ATOM      1  N   UNL     1      -0.458  -4.798  -1.460  0.00  0.00    -0.262 N 
ATOM      2  C   UNL     1       0.036  -6.084  -1.363  0.00  0.00    +0.186 C 
ATOM      3  N   UNL     1      -0.561  -7.104  -1.922  0.00  0.00    -0.261 NA
ATOM      4  C   UNL     1      -1.789  -6.797  -2.635  0.00  0.00    +0.184 C 
ATOM      5  C   UNL     1      -2.584  -5.865  -1.663  0.00  0.00    +0.137 C 
ATOM      6  C   UNL     1      -1.814  -4.599  -1.549  0.00  0.00    +0.230 C 
ATOM      7  O   UNL     1      -2.330  -3.502  -1.540  0.00  0.00    -0.274 OA
ATOM      8  C   UNL     1      -4.028  -5.885  -1.987  0.00  0.00    -0.046 C 
ATOM      9  C   UNL     1      -4.476  -7.047  -2.497  0.00  0.00    -0.014 C 
ATOM     10  S   UNL     1      -3.031  -8.147  -2.657  0.00  0.00    -0.102 S 
ATOM     11  C   UNL     1      -5.887  -7.381  -2.868  0.00  0.00    +0.026 C 
ATOM     12  C   UNL     1      -6.822  -6.319  -2.274  0.00  0.00    -0.066 C 
ATOM     13  C   UNL     1      -6.247  -4.935  -2.592  0.00  0.00    -0.011 C 
ATOM     14  C   UNL     1      -4.974  -4.711  -1.775  0.00  0.00    +0.031 C 
ENDROOT
BRANCH  12  15
ATOM     15  N   UNL     1      -8.159  -6.451  -2.867  0.00  0.00    +0.384 N 
ATOM     16  H   UNL     1      -8.749  -5.702  -2.537  0.00  0.00    -0.085 HD
ATOM     17  H   UNL     1      -8.087  -6.405  -3.873  0.00  0.00    -0.085 HD
BRANCH  15  18
ATOM     18  C   UNL     1      -8.743  -7.742  -2.477  0.00  0.00    -0.043 C 
BRANCH  18  19
ATOM     19  C   UNL     1     -10.115  -7.877  -3.086  0.00  0.00    -0.026 A 
ATOM     20  C   UNL     1     -11.238  -7.618  -2.323  0.00  0.00    +0.005 A 
ATOM     21  C   UNL     1     -12.497  -7.741  -2.879  0.00  0.00    +0.003 A 
ATOM     22  C   UNL     1     -12.636  -8.124  -4.201  0.00  0.00    +0.041 A 
ATOM     23  C   UNL     1     -11.514  -8.384  -4.967  0.00  0.00    +0.159 A 
ATOM     24  C   UNL     1     -10.250  -8.255  -4.410  0.00  0.00    +0.160 A 
ATOM     25  F   UNL     1      -9.153  -8.503  -5.158  0.00  0.00    -0.202 F 
ATOM     26  F   UNL     1     -11.648  -8.759  -6.258  0.00  0.00    -0.202 F 
ENDBRANCH  18  19
ENDBRANCH  15  18
ENDBRANCH  12  15
BRANCH   1  27
ATOM     27  C   UNL     1       0.457  -3.653  -1.462  0.00  0.00    +0.119 C 
BRANCH  27  28
ATOM     28  C   UNL     1       0.691  -3.186  -0.024  0.00  0.00    +0.052 C 
BRANCH  28  35
ATOM     29  C   UNL     1      -0.016   1.348   0.009  0.00  0.00    +0.001 A 
ATOM     30  C   UNL     1       1.166   2.101   0.002  0.00  0.00    +0.002 A 
ATOM     31  C   UNL     1       2.391   1.535  -0.013  0.00  0.00    +0.026 A 
ATOM     32  C   UNL     1       2.529   0.120  -0.022  0.00  0.00    +0.043 A 
ATOM     33  N   UNL     1       3.587  -0.654  -0.037  0.00  0.00    -0.380 N 
ATOM     34  C   UNL     1       3.143  -2.053  -0.041  0.00  0.00    +0.144 C 
ATOM     35  C   UNL     1       1.631  -2.008  -0.025  0.00  0.00    -0.040 C 
ATOM     36  C   UNL     1       1.295  -0.698  -0.014  0.00  0.00    -0.001 A 
ATOM     37  C   UNL     1       0.002  -0.004   0.002  0.00  0.00    +0.010 A 
ATOM     38  H   UNL     1       4.509  -0.353  -0.045  0.00  0.00    +0.160 HD
ENDBRANCH  28  35
ENDBRANCH  27  28
ENDBRANCH   1  27
TORSDOF 6
