REMARK  Name = ZINC24711614
REMARK  7 active torsions:
REMARK  status: ('A' for Active; 'I' for Inactive)
REMARK    1  A    between atoms: C_1  and  C_2
REMARK    2  A    between atoms: C_2  and  C_3
REMARK    3  A    between atoms: C_2  and  C_4
REMARK    4  A    between atoms: C_7  and  C_10
REMARK    5  A    between atoms: C_10  and  C_32
REMARK    6  A    between atoms: N_13  and  C_17
REMARK    7  A    between atoms: C_17  and  C_18
REMARK                            x       y       z     vdW  Elec       q    Type
REMARK                         _______ _______ _______ _____ _____    ______ ____
ROOT
ATOM      1  C   UNL     1       1.419  -0.406  -0.014  0.00  0.00    +0.135 C 
ATOM      2  C   UNL     1       2.164   0.914  -0.014  0.00  0.00    +0.251 C 
ATOM      3  O   UNL     1       3.365   1.077  -0.025  0.00  0.00    -0.272 OA
ATOM      4  N   UNL     1       1.213   1.869   0.001  0.00  0.00    -0.218 N 
ATOM      5  C   UNL     1      -0.016   1.341   0.009  0.00  0.00    +0.310 C 
ATOM      6  O   UNL     1      -1.036   2.003   0.018  0.00  0.00    -0.252 OA
ATOM      7  N   UNL     1       0.002  -0.004   0.002  0.00  0.00    -0.281 N 
ATOM      8  C   UNL     1       1.761  -1.221   1.235  0.00  0.00    +0.047 C 
ATOM      9  H   UNL     1      -0.787  -0.770   0.005  0.00  0.00    +0.152 HD
ENDROOT
BRANCH   1  13
ATOM     10  C   UNL     1       2.310  -2.634  -3.548  0.00  0.00    -0.045 A 
ATOM     11  C   UNL     1       1.049  -2.706  -2.985  0.00  0.00    +0.004 A 
ATOM     12  C   UNL     1       0.761  -1.985  -1.841  0.00  0.00    +0.006 A 
ATOM     13  C   UNL     1       1.734  -1.192  -1.260  0.00  0.00    -0.015 A 
ATOM     14  C   UNL     1       2.992  -1.116  -1.826  0.00  0.00    +0.006 A 
ATOM     15  C   UNL     1       3.282  -1.841  -2.967  0.00  0.00    +0.004 A 
BRANCH  10  17
ATOM     16  C   UNL     1       3.034  -2.459  -5.913  0.00  0.00    +0.012 C 
ATOM     17  C   UNL     1       2.624  -3.419  -4.795  0.00  0.00    +0.013 C 
ATOM     18  C   UNL     1       3.771  -4.391  -4.511  0.00  0.00    +0.012 C 
ENDBRANCH  10  17
ENDBRANCH   1  13
BRANCH   4  19
ATOM     19  C   UNL     1       1.491   3.307   0.005  0.00  0.00    +0.173 C 
BRANCH  19  20
ATOM     20  C   UNL     1       1.600   3.794   1.427  0.00  0.00    +0.067 A 
ATOM     21  C   UNL     1       2.797   4.276   1.913  0.00  0.00    +0.095 A 
ATOM     22  C   UNL     1       2.877   4.727   3.231  0.00  0.00    +0.259 A 
ATOM     23  O   UNL     1       3.933   5.159   3.667  0.00  0.00    -0.267 OA
ATOM     24  N   UNL     1       1.773   4.678   4.036  0.00  0.00    -0.259 N 
ATOM     25  C   UNL     1       1.722   5.089   5.361  0.00  0.00    +0.039 A 
ATOM     26  C   UNL     1       0.559   4.978   6.016  0.00  0.00    +0.013 A 
ATOM     27  S   UNL     1      -0.542   4.285   4.810  0.00  0.00    -0.054 S 
ATOM     28  C   UNL     1       0.631   4.181   3.474  0.00  0.00    +0.181 A 
ATOM     29  N   UNL     1       0.545   3.760   2.237  0.00  0.00    -0.226 NA
ATOM     30  C   UNL     1       0.263   5.351   7.433  0.00  0.00    +0.044 C 
ATOM     31  C   UNL     1       1.595   5.557   8.169  0.00  0.00    +0.006 C 
ATOM     32  C   UNL     1       2.501   6.435   7.300  0.00  0.00    +0.006 C 
ATOM     33  C   UNL     1       2.953   5.655   6.065  0.00  0.00    +0.055 C 
ENDBRANCH  19  20
ENDBRANCH   4  19
TORSDOF 4
