REMARK  Name = ZINC39297145
REMARK  5 active torsions:
REMARK  status: ('A' for Active; 'I' for Inactive)
REMARK    1  A    between atoms: C_4  and  C_7
REMARK    2  A    between atoms: C_9  and  N_20
REMARK    3  A    between atoms: N_23  and  C_26
REMARK    4  A    between atoms: C_26  and  C_27
REMARK    5  A    between atoms: C_26  and  C_33
REMARK                            x       y       z     vdW  Elec       q    Type
REMARK                         _______ _______ _______ _____ _____    ______ ____
ROOT
ATOM      1  N   UNL     1       5.228  -1.799   1.554  0.00  0.00    -0.297 NA
ATOM      2  C   UNL     1       6.037  -2.426   0.500  0.00  0.00    +0.066 C 
ATOM      3  C   UNL     1       7.503  -2.462   0.939  0.00  0.00    -0.062 C 
ATOM      4  N   UNL     1       7.621  -3.224   2.189  0.00  0.00    +0.389 N 
ATOM      5  C   UNL     1       6.827  -2.572   3.239  0.00  0.00    -0.062 C 
ATOM      6  C   UNL     1       5.356  -2.537   2.819  0.00  0.00    +0.066 C 
ATOM      7  H   UNL     1       7.280  -4.163   2.044  0.00  0.00    -0.080 HD
ENDROOT
BRANCH   1   9
ATOM      8  C   UNL     1       3.064  -0.813   2.165  0.00  0.00    +0.187 C 
ATOM      9  C   UNL     1       3.821  -1.695   1.146  0.00  0.00    +0.118 C 
ATOM     10  C   UNL     1       3.756  -1.119  -0.248  0.00  0.00    -0.003 A 
ATOM     11  C   UNL     1       3.966  -1.814  -1.444  0.00  0.00    +0.007 A 
ATOM     12  C   UNL     1       3.897  -1.175  -2.659  0.00  0.00    +0.000 A 
ATOM     13  C   UNL     1       3.616   0.177  -2.729  0.00  0.00    +0.002 A 
ATOM     14  C   UNL     1       3.398   0.878  -1.557  0.00  0.00    +0.027 A 
ATOM     15  C   UNL     1       3.461   0.231  -0.345  0.00  0.00    +0.094 A 
ATOM     16  S   UNL     1       3.198   0.815   1.317  0.00  0.00    +0.006 S 
ATOM     17  O   UNL     1       4.395   1.487   1.687  0.00  0.00    -0.169 OA
ATOM     18  O   UNL     1       1.946   1.486   1.300  0.00  0.00    -0.169 OA
BRANCH   8  22
ATOM     19  C   UNL     1      -1.010  -2.032   2.563  0.00  0.00    +0.000 A 
ATOM     20  C   UNL     1      -0.196  -1.968   3.678  0.00  0.00    +0.000 A 
ATOM     21  C   UNL     1       1.123  -1.573   3.549  0.00  0.00    +0.005 A 
ATOM     22  C   UNL     1       1.627  -1.244   2.305  0.00  0.00    -0.021 A 
ATOM     23  C   UNL     1       0.813  -1.308   1.190  0.00  0.00    +0.005 A 
ATOM     24  C   UNL     1      -0.506  -1.701   1.319  0.00  0.00    +0.000 A 
ENDBRANCH   8  22
ENDBRANCH   1   9
BRANCH   4  25
ATOM     25  C   UNL     1       9.030  -3.273   2.600  0.00  0.00    -0.007 C 
BRANCH  25  26
ATOM     26  C   UNL     1       9.152  -4.055   3.883  0.00  0.00    -0.057 A 
ATOM     27  C   UNL     1       8.400  -5.200   4.068  0.00  0.00    +0.002 A 
ATOM     28  C   UNL     1       8.512  -5.917   5.245  0.00  0.00    +0.000 A 
ATOM     29  C   UNL     1       9.376  -5.489   6.236  0.00  0.00    +0.000 A 
ATOM     30  C   UNL     1      10.128  -4.345   6.050  0.00  0.00    +0.000 A 
ATOM     31  C   UNL     1      10.020  -3.630   4.871  0.00  0.00    +0.002 A 
ENDBRANCH  25  26
BRANCH  25  32
ATOM     32  C   UNL     1       9.845  -3.944   1.524  0.00  0.00    -0.057 A 
ATOM     33  C   UNL     1       9.336  -5.043   0.856  0.00  0.00    +0.002 A 
ATOM     34  C   UNL     1      10.083  -5.658  -0.131  0.00  0.00    +0.000 A 
ATOM     35  C   UNL     1      11.338  -5.174  -0.451  0.00  0.00    +0.000 A 
ATOM     36  C   UNL     1      11.846  -4.075   0.216  0.00  0.00    +0.000 A 
ATOM     37  C   UNL     1      11.097  -3.458   1.200  0.00  0.00    +0.002 A 
ENDBRANCH  25  32
ENDBRANCH   4  25
TORSDOF 5
