REMARK  Name = ZINC39596525
REMARK  7 active torsions:
REMARK  status: ('A' for Active; 'I' for Inactive)
REMARK    1  A    between atoms: C_1  and  C_2
REMARK    2  A    between atoms: C_2  and  C_4
REMARK    3  A    between atoms: C_2  and  O_31
REMARK    4  A    between atoms: C_4  and  N_5
REMARK    5  A    between atoms: C_6  and  C_8
REMARK    6  A    between atoms: C_19  and  C_21
REMARK    7  A    between atoms: O_31  and  C_32
REMARK                            x       y       z     vdW  Elec       q    Type
REMARK                         _______ _______ _______ _____ _____    ______ ____
ROOT
ATOM      1  C   UNL     1       1.878  -5.301   4.080  0.00  0.00    +0.100 C 
ATOM      2  C   UNL     1       0.643  -6.132   4.492  0.00  0.00    +0.121 C 
ATOM      3  N   UNL     1       1.077  -6.876   5.698  0.00  0.00    -0.295 N 
ATOM      4  C   UNL     1       1.904  -5.904   6.453  0.00  0.00    +0.115 C 
ATOM      5  C   UNL     1       2.703  -5.153   5.369  0.00  0.00    -0.004 C 
ATOM      6  C   UNL     1       4.079  -5.788   5.192  0.00  0.00    -0.010 C 
ATOM      7  C   UNL     1       4.900  -5.579   6.468  0.00  0.00    -0.082 C 
ATOM      8  N   UNL     1       5.034  -4.142   6.735  0.00  0.00    +0.379 N 
ATOM      9  C   UNL     1       3.713  -3.556   6.995  0.00  0.00    -0.082 C 
ATOM     10  C   UNL     1       2.842  -3.680   5.743  0.00  0.00    -0.010 C 
ATOM     11  C   UNL     1       0.787  -8.149   6.032  0.00  0.00    +0.265 C 
ATOM     12  O   UNL     1       1.155  -8.595   7.101  0.00  0.00    -0.268 OA
ATOM     13  H   UNL     1       5.626  -4.005   7.540  0.00  0.00    -0.086 HD
ATOM     14  H   UNL     1       5.449  -3.689   5.934  0.00  0.00    -0.086 HD
ENDROOT
BRANCH  11  15
ATOM     15  C   UNL     1       0.018  -9.004   5.096  0.00  0.00    +0.126 A 
ATOM     16  C   UNL     1      -0.167 -10.361   5.403  0.00  0.00    +0.033 A 
ATOM     17  C   UNL     1      -0.873 -11.159   4.550  0.00  0.00    +0.012 A 
ATOM     18  C   UNL     1      -1.396 -10.582   3.377  0.00  0.00    +0.000 A 
ATOM     19  C   UNL     1      -2.132 -11.345   2.456  0.00  0.00    +0.010 A 
ATOM     20  C   UNL     1      -2.623 -10.753   1.332  0.00  0.00    +0.001 A 
ATOM     21  C   UNL     1      -2.405  -9.399   1.082  0.00  0.00    +0.002 A 
ATOM     22  C   UNL     1      -1.697  -8.629   1.952  0.00  0.00    +0.028 A 
ATOM     23  C   UNL     1      -1.172  -9.204   3.126  0.00  0.00    +0.072 A 
ATOM     24  N   UNL     1      -0.479  -8.472   3.998  0.00  0.00    -0.242 NA
ENDBRANCH  11  15
BRANCH   1  26
ATOM     25  N   UNL     1       2.206  -3.307   2.653  0.00  0.00    -0.312 N 
ATOM     26  C   UNL     1       1.454  -3.947   3.570  0.00  0.00    +0.218 C 
ATOM     27  O   UNL     1       0.436  -3.435   3.985  0.00  0.00    -0.275 OA
ATOM     28  H   UNL     1       3.020  -3.716   2.321  0.00  0.00    +0.149 HD
BRANCH  25  29
ATOM     29  C   UNL     1       1.793  -1.991   2.158  0.00  0.00    +0.148 C 
BRANCH  29  31
ATOM     30  C   UNL     1       2.382  -0.115   0.617  0.00  0.00    +0.053 C 
ATOM     31  C   UNL     1       2.813  -1.489   1.134  0.00  0.00    +0.187 C 
BRANCH  31  32
ATOM     32  O   UNL     1       4.097  -1.384   1.752  0.00  0.00    -0.488 OA
BRANCH  32  33
ATOM     33  C   UNL     1       5.183  -1.468   0.939  0.00  0.00    +0.121 A 
ATOM     34  C   UNL     1       6.458  -1.493   1.484  0.00  0.00    +0.048 A 
ATOM     35  C   UNL     1       7.561  -1.579   0.655  0.00  0.00    +0.042 A 
ATOM     36  C   UNL     1       7.393  -1.640  -0.718  0.00  0.00    +0.124 A 
ATOM     37  C   UNL     1       6.120  -1.616  -1.263  0.00  0.00    +0.042 A 
ATOM     38  C   UNL     1       5.016  -1.536  -0.437  0.00  0.00    +0.048 A 
ATOM     39  F   UNL     1       8.472  -1.724  -1.526  0.00  0.00    -0.205 F 
ENDBRANCH  32  33
ENDBRANCH  31  32
ENDBRANCH  29  31
ENDBRANCH  25  29
ENDBRANCH   1  26
TORSDOF 6
