REMARK  Name = ZINC39530872
REMARK  7 active torsions:
REMARK  status: ('A' for Active; 'I' for Inactive)
REMARK    1  A    between atoms: C_1  and  O_2
REMARK    2  A    between atoms: O_2  and  C_3
REMARK    3  A    between atoms: C_6  and  C_9
REMARK    4  A    between atoms: C_13  and  C_15
REMARK    5  A    between atoms: C_15  and  N_16
REMARK    6  A    between atoms: C_19  and  N_25
REMARK    7  A    between atoms: C_21  and  O_24
REMARK                            x       y       z     vdW  Elec       q    Type
REMARK                         _______ _______ _______ _____ _____    ______ ____
ROOT
ATOM      1  N   UNL     1      -4.703  -6.215   1.140  0.00  0.00    -0.299 NA
ATOM      2  C   UNL     1      -6.126  -6.538   0.975  0.00  0.00    +0.083 C 
ATOM      3  C   UNL     1      -6.277  -8.019   0.622  0.00  0.00    +0.003 C 
ATOM      4  C   UNL     1      -5.668  -8.870   1.740  0.00  0.00    -0.037 C 
ATOM      5  C   UNL     1      -4.198  -8.480   1.925  0.00  0.00    +0.115 C 
ATOM      6  C   UNL     1      -4.108  -6.986   2.240  0.00  0.00    +0.114 C 
ENDROOT
BRANCH   4   7
ATOM      7  N   UNL     1      -5.758 -10.291   1.380  0.00  0.00    +0.383 N 
ATOM      8  C   UNL     1      -5.396 -11.102   2.559  0.00  0.00    -0.078 C 
ATOM      9  C   UNL     1      -6.043 -12.457   2.419  0.00  0.00    -0.019 C 
ATOM     10  C   UNL     1      -5.070 -13.485   1.811  0.00  0.00    -0.002 C 
ATOM     11  C   UNL     1      -4.233 -12.875   0.669  0.00  0.00    -0.002 C 
ATOM     12  C   UNL     1      -5.050 -11.981  -0.228  0.00  0.00    -0.019 C 
ATOM     13  C   UNL     1      -4.940 -10.527   0.275  0.00  0.00    -0.078 C 
ATOM     14  H   UNL     1      -6.713 -10.500   1.127  0.00  0.00    -0.081 HD
ENDBRANCH   4   7
BRANCH   5  15
ATOM     15  O   UNL     1      -3.638  -9.231   3.004  0.00  0.00    -0.392 OA
ATOM     16  H   UNL     1      -2.707  -9.035   3.177  0.00  0.00    +0.210 HD
ENDBRANCH   5  15
BRANCH   1  17
ATOM     17  C   UNL     1      -4.510  -4.773   1.343  0.00  0.00    +0.100 C 
BRANCH  17  22
ATOM     18  C   UNL     1      -2.812  -2.933   1.296  0.00  0.00    +0.080 C 
ATOM     19  N   UNL     1      -2.484  -2.399   0.151  0.00  0.00    -0.153 NA
ATOM     20  N   UNL     1      -2.488  -3.330  -0.883  0.00  0.00    -0.161 NA
ATOM     21  C   UNL     1      -2.816  -4.515  -0.481  0.00  0.00    +0.118 C 
ATOM     22  C   UNL     1      -3.064  -4.400   1.010  0.00  0.00    +0.097 C 
BRANCH  18  26
ATOM     23  C   UNL     1      -3.096  -0.970   5.046  0.00  0.00    +0.120 A 
ATOM     24  C   UNL     1      -2.737  -0.250   3.913  0.00  0.00    +0.046 A 
ATOM     25  C   UNL     1      -2.643  -0.882   2.693  0.00  0.00    +0.013 A 
ATOM     26  C   UNL     1      -2.910  -2.253   2.595  0.00  0.00    -0.001 A 
ATOM     27  C   UNL     1      -3.271  -2.973   3.740  0.00  0.00    +0.013 A 
ATOM     28  C   UNL     1      -3.357  -2.333   4.955  0.00  0.00    +0.046 A 
BRANCH  23  30
ATOM     29  C   UNL     1      -2.907   1.059   6.268  0.00  0.00    +0.277 C 
ATOM     30  O   UNL     1      -3.188  -0.342   6.246  0.00  0.00    -0.495 OA
ENDBRANCH  23  30
ENDBRANCH  18  26
ENDBRANCH  17  22
ENDBRANCH   1  17
TORSDOF 6
