REMARK  Name = ZINC15947283
REMARK  8 active torsions:
REMARK  status: ('A' for Active; 'I' for Inactive)
REMARK    1  A    between atoms: C_1  and  C_2
REMARK    2  A    between atoms: C_2  and  N_3
REMARK    3  A    between atoms: C_11  and  O_27
REMARK    4  A    between atoms: C_13  and  C_16
REMARK    5  A    between atoms: C_18  and  O_25
REMARK    6  A    between atoms: C_19  and  O_23
REMARK    7  A    between atoms: O_23  and  C_24
REMARK    8  A    between atoms: O_25  and  C_26
REMARK                            x       y       z     vdW  Elec       q    Type
REMARK                         _______ _______ _______ _____ _____    ______ ____
ROOT
ATOM      1  N   UNL     1      -1.376  -0.512   0.012  0.00  0.00    +0.383 N 
ATOM      2  C   UNL     1      -1.356  -1.976   0.128  0.00  0.00    -0.074 C 
ATOM      3  C   UNL     1      -2.759  -2.500   0.454  0.00  0.00    +0.018 C 
ATOM      4  C   UNL     1      -3.726  -1.917  -0.567  0.00  0.00    -0.027 A 
ATOM      5  C   UNL     1      -3.361  -0.845  -1.310  0.00  0.00    -0.021 A 
ATOM      6  S   UNL     1      -4.760  -0.516  -2.343  0.00  0.00    -0.080 S 
ATOM      7  C   UNL     1      -5.774  -1.720  -1.823  0.00  0.00    +0.080 A 
ATOM      8  C   UNL     1      -5.058  -2.417  -0.841  0.00  0.00    +0.067 A 
ATOM      9  C   UNL     1      -5.727  -3.578  -0.200  0.00  0.00    +0.220 C 
ATOM     10  N   UNL     1      -7.008  -3.726  -0.401  0.00  0.00    -0.223 NA
ATOM     11  C   UNL     1      -7.839  -2.798  -1.157  0.00  0.00    +0.224 C 
ATOM     12  N   UNL     1      -7.057  -2.075  -2.176  0.00  0.00    -0.313 N 
ATOM     13  C   UNL     1      -2.052  -0.124  -1.239  0.00  0.00    -0.035 C 
ATOM     14  H   UNL     1      -7.425  -1.861  -3.048  0.00  0.00    +0.149 HD
ATOM     15  H   UNL     1      -1.873  -0.120   0.798  0.00  0.00    -0.081 HD
ENDROOT
BRANCH  11  16
ATOM     16  C   UNL     1      -8.449  -1.799  -0.208  0.00  0.00    -0.001 A 
ATOM     17  C   UNL     1      -8.715  -2.163   1.099  0.00  0.00    +0.056 A 
ATOM     18  C   UNL     1      -9.276  -1.246   1.974  0.00  0.00    +0.163 A 
ATOM     19  C   UNL     1      -9.570   0.041   1.533  0.00  0.00    +0.175 A 
ATOM     20  C   UNL     1      -9.301   0.400   0.222  0.00  0.00    +0.059 A 
ATOM     21  C   UNL     1      -8.737  -0.519  -0.645  0.00  0.00    +0.025 A 
ATOM     22  I   UNL     1      -9.743   2.335  -0.447  0.00  0.00    -0.040 I 
BRANCH  19  23
ATOM     23  O   UNL     1     -10.121   0.945   2.387  0.00  0.00    -0.490 OA
ATOM     24  C   UNL     1      -9.220   1.760   3.139  0.00  0.00    +0.277 C 
ENDBRANCH  19  23
BRANCH  18  25
ATOM     25  O   UNL     1      -9.538  -1.602   3.259  0.00  0.00    -0.491 OA
ATOM     26  C   UNL     1      -9.210  -2.940   3.641  0.00  0.00    +0.277 C 
ENDBRANCH  18  25
ENDBRANCH  11  16
BRANCH   1  28
ATOM     27  C   UNL     1      -0.019   1.526   0.010  0.00  0.00    -0.017 C 
ATOM     28  C   UNL     1       0.002  -0.004   0.002  0.00  0.00    -0.082 C 
ENDBRANCH   1  28
BRANCH   9  29
ATOM     29  O   UNL     1      -5.033  -4.452   0.565  0.00  0.00    -0.492 OA
ATOM     30  H   UNL     1      -5.570  -5.168   0.931  0.00  0.00    +0.294 HD
ENDBRANCH   9  29
TORSDOF 5
