REMARK  Name = ZINC35576835
REMARK  7 active torsions:
REMARK  status: ('A' for Active; 'I' for Inactive)
REMARK    1  A    between atoms: C_4  and  C_7
REMARK    2  A    between atoms: C_9  and  N_34
REMARK    3  A    between atoms: N_10  and  C_24
REMARK    4  A    between atoms: N_16  and  C_17
REMARK    5  A    between atoms: C_17  and  C_18
REMARK    6  A    between atoms: C_18  and  C_19
REMARK    7  A    between atoms: C_27  and  C_30
REMARK                            x       y       z     vdW  Elec       q    Type
REMARK                         _______ _______ _______ _____ _____    ______ ____
ROOT
ATOM      1  C   UNL     1       3.779  -0.554   0.168  0.00  0.00    +0.089 A 
ATOM      2  C   UNL     1       3.921  -1.799   0.820  0.00  0.00    +0.086 A 
ATOM      3  C   UNL     1       3.107  -2.614   1.597  0.00  0.00    +0.131 A 
ATOM      4  N   UNL     1       3.828  -3.701   1.937  0.00  0.00    -0.216 N 
ATOM      5  N   UNL     1       5.113  -3.610   1.390  0.00  0.00    -0.144 NA
ATOM      6  C   UNL     1       5.220  -2.488   0.712  0.00  0.00    +0.189 A 
ATOM      7  N   UNL     1       6.193  -1.890  -0.002  0.00  0.00    -0.193 NA
ATOM      8  C   UNL     1       5.974  -0.726  -0.579  0.00  0.00    +0.218 A 
ATOM      9  N   UNL     1       4.816  -0.076  -0.508  0.00  0.00    -0.214 NA
ATOM     10  N   UNL     1       7.004  -0.151  -1.301  0.00  0.00    -0.313 N 
ATOM     11  H   UNL     1       6.872   0.706  -1.736  0.00  0.00    +0.149 HD
ENDROOT
BRANCH   1  15
ATOM     12  C   UNL     1       0.121   1.600   0.353  0.00  0.00    +0.000 A 
ATOM     13  C   UNL     1       0.658   1.055   1.505  0.00  0.00    +0.001 A 
ATOM     14  C   UNL     1       1.846   0.355   1.452  0.00  0.00    +0.010 A 
ATOM     15  C   UNL     1       2.505   0.196   0.232  0.00  0.00    +0.001 A 
ATOM     16  C   UNL     1       1.957   0.748  -0.926  0.00  0.00    +0.010 A 
ATOM     17  C   UNL     1       0.769   1.446  -0.860  0.00  0.00    +0.001 A 
ENDBRANCH   1  15
BRANCH   4  18
ATOM     18  C   UNL     1       3.361  -4.763   2.720  0.00  0.00    +0.068 A 
ATOM     19  C   UNL     1       2.469  -4.523   3.757  0.00  0.00    +0.028 A 
ATOM     20  C   UNL     1       2.009  -5.573   4.528  0.00  0.00    +0.014 A 
ATOM     21  C   UNL     1       2.436  -6.862   4.268  0.00  0.00    +0.055 A 
ATOM     22  C   UNL     1       3.325  -7.105   3.236  0.00  0.00    +0.014 A 
ATOM     23  C   UNL     1       3.783  -6.060   2.458  0.00  0.00    +0.028 A 
BRANCH  21  24
ATOM     24  C   UNL     1       1.933  -8.006   5.110  0.00  0.00    +0.417 C 
ATOM     25  F   UNL     1       0.766  -8.526   4.541  0.00  0.00    -0.166 F 
ATOM     26  F   UNL     1       2.909  -9.006   5.170  0.00  0.00    -0.166 F 
ATOM     27  F   UNL     1       1.656  -7.546   6.402  0.00  0.00    -0.166 F 
ENDBRANCH  21  24
ENDBRANCH   4  18
BRANCH   3  28
ATOM     28  N   UNL     1       1.798  -2.357   1.956  0.00  0.00    -0.342 N 
ATOM     29  H   UNL     1       1.314  -1.629   1.537  0.00  0.00    +0.144 HD
ATOM     30  H   UNL     1       1.362  -2.905   2.627  0.00  0.00    +0.144 HD
ENDBRANCH   3  28
BRANCH  10  31
ATOM     31  C   UNL     1       8.295  -0.835  -1.409  0.00  0.00    +0.109 C 
BRANCH  31  32
ATOM     32  C   UNL     1       9.251   0.009  -2.255  0.00  0.00    +0.061 C 
BRANCH  32  33
ATOM     33  C   UNL     1      10.578  -0.695  -2.366  0.00  0.00    -0.009 A 
ATOM     34  C   UNL     1      10.999  -1.582  -3.300  0.00  0.00    +0.011 A 
ATOM     35  C   UNL     1      12.274  -2.106  -3.201  0.00  0.00    +0.008 A 
ATOM     36  C   UNL     1      13.067  -1.716  -2.173  0.00  0.00    +0.045 A 
ATOM     37  S   UNL     1      12.009  -0.570  -1.305  0.00  0.00    -0.102 S 
ENDBRANCH  32  33
ENDBRANCH  31  32
ENDBRANCH  10  31
TORSDOF 7
