REMARK  Name = ZINC05018016
REMARK  6 active torsions:
REMARK  status: ('A' for Active; 'I' for Inactive)
REMARK    1  A    between atoms: C_1  and  N_2
REMARK    2  A    between atoms: C_6  and  C_7
REMARK    3  A    between atoms: C_10  and  O_15
REMARK    4  A    between atoms: C_11  and  O_13
REMARK    5  A    between atoms: O_13  and  C_14
REMARK    6  A    between atoms: O_15  and  C_16
REMARK                            x       y       z     vdW  Elec       q    Type
REMARK                         _______ _______ _______ _____ _____    ______ ____
ROOT
ATOM      1  C   UNL     1      -1.368  -0.535  -1.028  0.00  0.00    +0.140 C 
ATOM      2  N   UNL     1      -0.098   0.193  -0.971  0.00  0.00    -0.250 N 
ATOM      3  C   UNL     1      -0.066   1.417  -0.474  0.00  0.00    +0.259 C 
ATOM      4  O   UNL     1      -1.074   1.963  -0.063  0.00  0.00    -0.269 OA
ATOM      5  C   UNL     1       1.244   2.095  -0.444  0.00  0.00    +0.078 C 
ATOM      6  C   UNL     1       1.562   3.335   0.005  0.00  0.00    +0.028 C 
ATOM      7  S   UNL     1       2.300   0.843  -1.160  0.00  0.00    -0.049 S 
ATOM      8  C   UNL     1       1.055  -0.406  -1.437  0.00  0.00    +0.160 C 
ATOM      9  N   UNL     1       1.200  -1.595  -1.953  0.00  0.00    -0.279 NA
ATOM     10  H   UNL     1       2.076  -1.895  -2.243  0.00  0.00    +0.189 HD
ENDROOT
BRANCH   6  11
ATOM     11  C   UNL     1       2.970   3.746   0.091  0.00  0.00    -0.020 A 
ATOM     12  C   UNL     1       3.985   2.783   0.069  0.00  0.00    +0.012 A 
ATOM     13  C   UNL     1       5.304   3.172   0.149  0.00  0.00    +0.050 A 
ATOM     14  C   UNL     1       5.630   4.518   0.252  0.00  0.00    +0.162 A 
ATOM     15  C   UNL     1       4.625   5.483   0.275  0.00  0.00    +0.162 A 
ATOM     16  C   UNL     1       3.300   5.103   0.190  0.00  0.00    +0.057 A 
BRANCH  15  17
ATOM     17  O   UNL     1       4.949   6.800   0.376  0.00  0.00    -0.491 OA
ATOM     18  C   UNL     1       3.868   7.735   0.393  0.00  0.00    +0.277 C 
ENDBRANCH  15  17
BRANCH  14  19
ATOM     19  O   UNL     1       6.933   4.895   0.331  0.00  0.00    -0.491 OA
ATOM     20  C   UNL     1       7.913   3.855   0.302  0.00  0.00    +0.277 C 
ENDBRANCH  14  19
ENDBRANCH   6  11
TORSDOF 3
