REMARK  Name = ZINC35802361
REMARK  6 active torsions:
REMARK  status: ('A' for Active; 'I' for Inactive)
REMARK    1  A    between atoms: C_4  and  N_7
REMARK    2  A    between atoms: N_10  and  C_13
REMARK    3  A    between atoms: C_13  and  N_15
REMARK    4  A    between atoms: N_15  and  N_16
REMARK    5  A    between atoms: C_17  and  C_18
REMARK    6  A    between atoms: C_22  and  N_24
REMARK                            x       y       z     vdW  Elec       q    Type
REMARK                         _______ _______ _______ _____ _____    ______ ____
ROOT
ATOM      1  N   UNL     1       5.721  -4.489   0.998  0.00  0.00    -0.291 N 
ATOM      2  C   UNL     1       5.746  -5.787   0.887  0.00  0.00    +0.134 C 
ATOM      3  N   UNL     1       6.964  -6.461   0.868  0.00  0.00    -0.342 N 
ATOM      4  H   UNL     1       7.794  -5.964   0.937  0.00  0.00    +0.144 HD
ATOM      5  H   UNL     1       6.982  -7.427   0.786  0.00  0.00    +0.144 HD
ATOM      6  H   UNL     1       4.872  -4.020   1.011  0.00  0.00    +0.186 HD
ENDROOT
BRANCH   2   7
ATOM      7  C   UNL     1       4.481  -6.544   0.783  0.00  0.00    +0.123 A 
ATOM      8  C   UNL     1       3.259  -5.870   0.796  0.00  0.00    +0.142 A 
ATOM      9  N   UNL     1       2.130  -6.548   0.702  0.00  0.00    -0.258 NA
ATOM     10  C   UNL     1       2.151  -7.864   0.595  0.00  0.00    +0.154 A 
ATOM     11  C   UNL     1       3.367  -8.545   0.581  0.00  0.00    +0.140 A 
ATOM     12  N   UNL     1       4.504  -7.872   0.670  0.00  0.00    -0.226 NA
BRANCH  11  13
ATOM     13  N   UNL     1       3.386  -9.931   0.469  0.00  0.00    -0.314 N 
ATOM     14  C   UNL     1       4.631 -10.682   0.681  0.00  0.00    +0.112 C 
ATOM     15  C   UNL     1       4.885 -11.570  -0.541  0.00  0.00    +0.084 C 
ATOM     16  C   UNL     1       3.655 -12.443  -0.797  0.00  0.00    +0.173 C 
ATOM     17  C   UNL     1       2.439 -11.560  -1.081  0.00  0.00    +0.084 C 
ATOM     18  C   UNL     1       2.160 -10.672   0.142  0.00  0.00    +0.112 C 
ATOM     19  O   UNL     1       3.900 -13.300  -1.920  0.00  0.00    -0.346 OA
ATOM     20  C   UNL     1       3.777 -14.660  -1.455  0.00  0.00    +0.191 C 
ATOM     21  C   UNL     1       2.921 -14.516  -0.172  0.00  0.00    +0.191 C 
ATOM     22  O   UNL     1       3.397 -13.256   0.359  0.00  0.00    -0.346 OA
ENDBRANCH  11  13
ENDBRANCH   2   7
BRANCH   1  23
ATOM     23  N   UNL     1       6.920  -3.771   1.097  0.00  0.00    -0.240 N 
ATOM     24  H   UNL     1       7.765  -4.244   1.158  0.00  0.00    +0.174 HD
BRANCH  23  25
ATOM     25  C   UNL     1       6.900  -2.424   1.109  0.00  0.00    +0.151 C 
ATOM     26  S   UNL     1       5.404  -1.590   1.137  0.00  0.00    -0.017 S 
BRANCH  25  30
ATOM     27  N   UNL     1      10.241  -0.577   2.265  0.00  0.00    -0.327 N 
ATOM     28  C   UNL     1       8.955   0.119   2.408  0.00  0.00    +0.124 C 
ATOM     29  C   UNL     1       8.054  -0.269   1.229  0.00  0.00    +0.125 C 
ATOM     30  N   UNL     1       8.056  -1.732   1.098  0.00  0.00    -0.308 N 
ATOM     31  C   UNL     1       9.343  -2.429   0.955  0.00  0.00    +0.125 C 
ATOM     32  C   UNL     1      10.243  -2.040   2.129  0.00  0.00    +0.124 C 
BRANCH  27  36
ATOM     33  C   UNL     1      13.815   1.559   2.231  0.00  0.00    +0.000 A 
ATOM     34  C   UNL     1      13.838   0.176   2.218  0.00  0.00    +0.002 A 
ATOM     35  C   UNL     1      12.654  -0.535   2.230  0.00  0.00    +0.023 A 
ATOM     36  C   UNL     1      11.440   0.140   2.254  0.00  0.00    +0.030 A 
ATOM     37  C   UNL     1      11.421   1.528   2.267  0.00  0.00    +0.023 A 
ATOM     38  C   UNL     1      12.608   2.234   2.256  0.00  0.00    +0.002 A 
ENDBRANCH  27  36
ENDBRANCH  25  30
ENDBRANCH  23  25
ENDBRANCH   1  23
TORSDOF 6
