REMARK  Name = ZINC66985171
REMARK  10 active torsions:
REMARK  status: ('A' for Active; 'I' for Inactive)
REMARK    1  A    between atoms: C_1  and  C_2
REMARK    2  A    between atoms: C_2  and  C_3
REMARK    3  A    between atoms: C_2  and  C_4
REMARK    4  A    between atoms: C_4  and  C_5
REMARK    5  A    between atoms: C_5  and  C_7
REMARK    6  A    between atoms: C_5  and  N_11
REMARK    7  A    between atoms: C_7  and  N_8
REMARK    8  A    between atoms: N_8  and  C_9
REMARK    9  A    between atoms: N_8  and  C_10
REMARK   10  A    between atoms: C_20  and  C_22
REMARK                            x       y       z     vdW  Elec       q    Type
REMARK                         _______ _______ _______ _____ _____    ______ ____
ROOT
ATOM      1  N   UNL     1      -0.772  -0.506  -2.934  0.00  0.00    -0.298 N 
ATOM      2  C   UNL     1      -1.173   0.007  -4.113  0.00  0.00    +0.302 C 
ATOM      3  O   UNL     1      -1.478   1.181  -4.193  0.00  0.00    -0.253 OA
ATOM      4  N   UNL     1      -1.236  -0.781  -5.205  0.00  0.00    -0.283 N 
ATOM      5  C   UNL     1      -0.980  -2.224  -5.101  0.00  0.00    +0.128 C 
ATOM      6  C   UNL     1      -2.185  -2.978  -5.676  0.00  0.00    +0.127 C 
ATOM      7  N   UNL     1      -2.512  -2.410  -6.991  0.00  0.00    -0.298 N 
ATOM      8  C   UNL     1      -2.768  -0.966  -7.095  0.00  0.00    +0.127 C 
ATOM      9  C   UNL     1      -1.568  -0.213  -6.519  0.00  0.00    +0.128 C 
ATOM     10  C   UNL     1      -2.574  -3.198  -8.083  0.00  0.00    +0.219 C 
ATOM     11  O   UNL     1      -2.462  -4.400  -7.970  0.00  0.00    -0.275 OA
ATOM     12  H   UNL     1      -0.460  -1.423  -2.885  0.00  0.00    +0.150 HD
ENDROOT
BRANCH  10  13
ATOM     13  C   UNL     1      -2.785  -2.585  -9.443  0.00  0.00    +0.075 C 
ATOM     14  C   UNL     1      -4.191  -1.988  -9.522  0.00  0.00    +0.013 C 
ATOM     15  C   UNL     1      -4.405  -1.365 -10.903  0.00  0.00    +0.001 C 
ATOM     16  C   UNL     1      -4.248  -2.443 -11.978  0.00  0.00    +0.000 C 
ATOM     17  C   UNL     1      -2.841  -3.041 -11.899  0.00  0.00    +0.001 C 
ATOM     18  C   UNL     1      -2.628  -3.663 -10.518  0.00  0.00    +0.013 C 
ENDBRANCH  10  13
BRANCH   1  19
ATOM     19  C   UNL     1      -0.807   0.320  -1.725  0.00  0.00    +0.058 C 
BRANCH  19  20
ATOM     20  C   UNL     1       0.289  -0.138  -0.761  0.00  0.00    +0.023 C 
BRANCH  20  22
ATOM     21  C   UNL     1       1.870   1.627  -1.552  0.00  0.00    +0.007 C 
ATOM     22  C   UNL     1       1.660   0.120  -1.388  0.00  0.00    -0.016 C 
ATOM     23  C   UNL     1       2.752  -0.451  -0.481  0.00  0.00    +0.007 C 
ENDBRANCH  20  22
ENDBRANCH  19  20
BRANCH  19  24
ATOM     24  C   UNL     1      -2.173   0.178  -1.049  0.00  0.00    -0.057 C 
BRANCH  24  25
ATOM     25  N   UNL     1      -2.234   1.062   0.122  0.00  0.00    +0.377 N 
ATOM     26  C   UNL     1      -2.150   2.462  -0.315  0.00  0.00    -0.097 C 
ATOM     27  C   UNL     1      -3.501   0.846   0.833  0.00  0.00    -0.097 C 
ATOM     28  H   UNL     1      -1.463   0.856   0.740  0.00  0.00    -0.083 HD
ENDBRANCH  24  25
ENDBRANCH  19  24
ENDBRANCH   1  19
TORSDOF 6
