REMARK  Name = ZINC33570945
REMARK  11 active torsions:
REMARK  status: ('A' for Active; 'I' for Inactive)
REMARK    1  A    between atoms: C_1  and  C_2
REMARK    2  A    between atoms: C_2  and  C_4
REMARK    3  A    between atoms: C_2  and  N_15
REMARK    4  A    between atoms: N_6  and  N_7
REMARK    5  A    between atoms: C_8  and  C_9
REMARK    6  A    between atoms: N_18  and  C_35
REMARK    7  A    between atoms: C_19  and  N_24
REMARK    8  A    between atoms: C_21  and  C_22
REMARK    9  A    between atoms: C_21  and  C_23
REMARK   10  A    between atoms: N_24  and  O_34
REMARK   11  A    between atoms: N_27  and  C_28
REMARK                            x       y       z     vdW  Elec       q    Type
REMARK                         _______ _______ _______ _____ _____    ______ ____
ROOT
ATOM      1  N   UNL     1       6.178   5.910  -0.623  0.00  0.00    -0.265 N 
ATOM      2  C   UNL     1       7.437   5.606  -0.283  0.00  0.00    +0.312 C 
ATOM      3  O   UNL     1       7.716   4.726   0.508  0.00  0.00    -0.252 OA
ATOM      4  N   UNL     1       8.362   6.356  -0.896  0.00  0.00    -0.232 N 
ATOM      5  C   UNL     1       7.692   7.324  -1.777  0.00  0.00    +0.224 C 
ATOM      6  C   UNL     1       6.193   7.019  -1.590  0.00  0.00    +0.072 C 
ATOM      7  C   UNL     1       5.564   6.584  -2.915  0.00  0.00    +0.035 C 
ATOM      8  C   UNL     1       5.463   8.237  -1.021  0.00  0.00    +0.035 C 
ENDROOT
BRANCH   4   9
ATOM      9  C   UNL     1       9.745   6.241  -0.722  0.00  0.00    +0.040 A 
ATOM     10  C   UNL     1      10.463   7.279  -0.143  0.00  0.00    +0.023 A 
ATOM     11  C   UNL     1      11.828   7.160   0.032  0.00  0.00    +0.002 A 
ATOM     12  C   UNL     1      12.482   6.013  -0.379  0.00  0.00    +0.000 A 
ATOM     13  C   UNL     1      11.771   4.979  -0.961  0.00  0.00    +0.002 A 
ATOM     14  C   UNL     1      10.405   5.090  -1.134  0.00  0.00    +0.023 A 
ENDBRANCH   4   9
BRANCH   5  15
ATOM     15  N   UNL     1       8.089   7.113  -3.171  0.00  0.00    -0.144 N 
ATOM     16  C   UNL     1       8.830   8.040  -3.809  0.00  0.00    +0.331 C 
ATOM     17  O   UNL     1       9.247   9.008  -3.202  0.00  0.00    -0.250 OA
ATOM     18  N   UNL     1       9.108   7.896  -5.120  0.00  0.00    -0.268 N 
ATOM     19  H   UNL     1       8.671   7.060  -5.686  0.00  0.00    +0.156 HD
BRANCH  18  20
ATOM     20  C   UNL     1       9.952   8.810  -5.761  0.00  0.00    +0.035 A 
ATOM     21  C   UNL     1      10.013  10.126  -5.324  0.00  0.00    +0.023 A 
ATOM     22  C   UNL     1      10.851  11.024  -5.955  0.00  0.00    +0.002 A 
ATOM     23  C   UNL     1      11.621  10.616  -7.029  0.00  0.00    +0.000 A 
ATOM     24  C   UNL     1      11.558   9.307  -7.471  0.00  0.00    +0.002 A 
ATOM     25  C   UNL     1      10.726   8.403  -6.840  0.00  0.00    +0.023 A 
ENDBRANCH  18  20
BRANCH  15  26
ATOM     26  O   UNL     1       7.696   5.933  -3.848  0.00  0.00    -0.289 OA
ATOM     27  H   UNL     1       7.994   5.774  -4.895  0.00  0.00    +0.242 HD
ENDBRANCH  15  26
ENDBRANCH   5  15
BRANCH   1  29
ATOM     28  C   UNL     1       4.919   5.404   1.412  0.00  0.00    +0.038 C 
ATOM     29  C   UNL     1       4.976   5.249  -0.109  0.00  0.00    +0.163 C 
BRANCH  29  30
ATOM     30  C   UNL     1       5.018   3.784  -0.464  0.00  0.00    +0.253 C 
ATOM     31  O   UNL     1       5.960   3.338  -1.084  0.00  0.00    -0.272 OA
ATOM     32  N   UNL     1       4.010   2.971  -0.091  0.00  0.00    -0.205 N 
ATOM     33  H   UNL     1       3.156   3.377   0.472  0.00  0.00    +0.177 HD
BRANCH  32  34
ATOM     34  N   UNL     1       4.050   1.610  -0.420  0.00  0.00    -0.188 NA
ATOM     35  C   UNL     1       3.030   0.850  -0.161  0.00  0.00    +0.138 C 
BRANCH  35  36
ATOM     36  C   UNL     1       1.673   1.425  -0.121  0.00  0.00    -0.005 A 
ATOM     37  C   UNL     1       1.452   2.734  -0.558  0.00  0.00    +0.009 A 
ATOM     38  C   UNL     1       0.181   3.267  -0.513  0.00  0.00    +0.001 A 
ATOM     39  C   UNL     1      -0.876   2.505  -0.047  0.00  0.00    +0.000 A 
ATOM     40  C   UNL     1      -0.665   1.209   0.388  0.00  0.00    +0.001 A 
ATOM     41  C   UNL     1       0.602   0.664   0.354  0.00  0.00    +0.009 A 
ENDBRANCH  35  36
ENDBRANCH  32  34
ENDBRANCH  29  30
ENDBRANCH   1  29
TORSDOF 8
