REMARK  Name = ZINC10273640
REMARK  10 active torsions:
REMARK  status: ('A' for Active; 'I' for Inactive)
REMARK    1  A    between atoms: C_1  and  O_2
REMARK    2  A    between atoms: O_2  and  C_3
REMARK    3  A    between atoms: C_5  and  C_10
REMARK    4  A    between atoms: C_8  and  O_9
REMARK    5  A    between atoms: C_12  and  C_27
REMARK    6  A    between atoms: C_13  and  C_18
REMARK    7  A    between atoms: C_18  and  S_19
REMARK    8  A    between atoms: S_19  and  C_22
REMARK    9  A    between atoms: C_27  and  O_29
REMARK   10  A    between atoms: O_29  and  C_30
REMARK                            x       y       z     vdW  Elec       q    Type
REMARK                         _______ _______ _______ _____ _____    ______ ____
ROOT
ATOM      1  C   UNL     1      -1.059  -0.773   0.175  0.00  0.00    +0.144 C 
ATOM      2  C   UNL     1      -1.469  -1.190   1.573  0.00  0.00    +0.080 C 
ATOM      3  C   UNL     1      -1.855  -2.470   1.758  0.00  0.00    +0.045 C 
ATOM      4  N   UNL     1      -1.876  -3.358   0.721  0.00  0.00    -0.271 N 
ATOM      5  C   UNL     1      -1.524  -3.044  -0.532  0.00  0.00    +0.304 C 
ATOM      6  O   UNL     1      -1.575  -3.903  -1.390  0.00  0.00    -0.252 OA
ATOM      7  N   UNL     1      -1.117  -1.805  -0.874  0.00  0.00    -0.288 N 
ATOM      8  H   UNL     1      -2.161  -4.268   0.902  0.00  0.00    +0.156 HD
ATOM      9  H   UNL     1      -0.866  -1.599  -1.788  0.00  0.00    +0.151 HD
ENDROOT
BRANCH   1  12
ATOM     10  C   UNL     1       1.886   1.574   0.483  0.00  0.00    +0.162 A 
ATOM     11  C   UNL     1       0.586   1.096   0.422  0.00  0.00    +0.055 A 
ATOM     12  C   UNL     1       0.354  -0.255   0.240  0.00  0.00    -0.019 A 
ATOM     13  C   UNL     1       1.416  -1.131   0.118  0.00  0.00    +0.009 A 
ATOM     14  C   UNL     1       2.715  -0.661   0.178  0.00  0.00    +0.049 A 
ATOM     15  C   UNL     1       2.955   0.691   0.360  0.00  0.00    +0.158 A 
BRANCH  10  17
ATOM     16  C   UNL     1       0.970   3.749   0.779  0.00  0.00    +0.277 C 
ATOM     17  O   UNL     1       2.116   2.902   0.661  0.00  0.00    -0.491 OA
ENDBRANCH  10  17
BRANCH  15  18
ATOM     18  O   UNL     1       4.232   1.155   0.418  0.00  0.00    -0.503 OA
ATOM     19  H   UNL     1       4.598   1.408  -0.441  0.00  0.00    +0.292 HD
ENDBRANCH  15  18
ENDBRANCH   1  12
BRANCH   2  20
ATOM     20  C   UNL     1      -1.448  -0.269   2.646  0.00  0.00    +0.339 C 
ATOM     21  O   UNL     1      -1.639  -0.657   3.784  0.00  0.00    -0.245 OA
BRANCH  20  22
ATOM     22  O   UNL     1      -1.216   1.039   2.409  0.00  0.00    -0.465 OA
ATOM     23  C   UNL     1      -1.209   1.912   3.540  0.00  0.00    +0.280 C 
ENDBRANCH  20  22
ENDBRANCH   2  20
BRANCH   3  24
ATOM     24  C   UNL     1      -2.270  -2.928   3.133  0.00  0.00    +0.223 C 
BRANCH  24  25
ATOM     25  S   UNL     1      -0.892  -3.805   3.921  0.00  0.00    +0.008 S 
ATOM     26  O   UNL     1      -0.642  -5.030   3.245  0.00  0.00    -0.169 OA
ATOM     27  O   UNL     1       0.169  -2.901   4.198  0.00  0.00    -0.169 OA
BRANCH  25  28
ATOM     28  C   UNL     1      -1.502  -4.280   5.503  0.00  0.00    +0.126 A 
ATOM     29  C   UNL     1      -2.144  -5.418   5.864  0.00  0.00    +0.035 A 
ATOM     30  C   UNL     1      -2.536  -5.579   7.180  0.00  0.00    +0.009 A 
ATOM     31  C   UNL     1      -2.268  -4.593   8.070  0.00  0.00    +0.047 A 
ATOM     32  S   UNL     1      -1.430  -3.391   7.050  0.00  0.00    -0.078 S 
ENDBRANCH  25  28
ENDBRANCH  24  25
ENDBRANCH   3  24
TORSDOF 8
