REMARK  Name = ZINC08749356
REMARK  11 active torsions:
REMARK  status: ('A' for Active; 'I' for Inactive)
REMARK    1  A    between atoms: C_1  and  C_2
REMARK    2  A    between atoms: C_3  and  C_12
REMARK    3  A    between atoms: C_14  and  C_19
REMARK    4  A    between atoms: C_16  and  C_17
REMARK    5  A    between atoms: C_16  and  C_18
REMARK    6  A    between atoms: C_19  and  C_20
REMARK    7  A    between atoms: N_22  and  C_23
REMARK    8  A    between atoms: N_22  and  C_29
REMARK    9  A    between atoms: C_23  and  C_24
REMARK   10  A    between atoms: C_29  and  C_35
REMARK   11  A    between atoms: N_37  and  C_38
REMARK                            x       y       z     vdW  Elec       q    Type
REMARK                         _______ _______ _______ _____ _____    ______ ____
ROOT
ATOM      1  C   UNL     1       5.128  -2.911  -4.359  0.00  0.00    +0.217 C 
ATOM      2  O   UNL     1       5.119  -4.097  -4.611  0.00  0.00    -0.276 OA
ATOM      3  N   UNL     1       3.969  -2.225  -4.302  0.00  0.00    -0.280 N 
ENDROOT
BRANCH   3   4
ATOM      4  C   UNL     1       2.692  -2.938  -4.377  0.00  0.00    +0.114 C 
ATOM      5  C   UNL     1       1.544  -1.927  -4.402  0.00  0.00    +0.035 C 
ATOM      6  C   UNL     1       1.693  -1.016  -5.623  0.00  0.00    +0.003 C 
ATOM      7  C   UNL     1       1.655  -1.862  -6.897  0.00  0.00    +0.000 C 
ATOM      8  C   UNL     1       2.803  -2.873  -6.872  0.00  0.00    +0.003 C 
ATOM      9  C   UNL     1       2.654  -3.784  -5.652  0.00  0.00    +0.035 C 
BRANCH   4  10
ATOM     10  C   UNL     1       2.545  -3.835  -3.175  0.00  0.00    +0.237 C 
ATOM     11  O   UNL     1       2.175  -4.981  -3.315  0.00  0.00    -0.273 OA
ATOM     12  N   UNL     1       2.825  -3.363  -1.944  0.00  0.00    -0.308 N 
ATOM     13  H   UNL     1       3.025  -2.422  -1.819  0.00  0.00    +0.149 HD
BRANCH  12  14
ATOM     14  C   UNL     1       2.829  -4.271  -0.795  0.00  0.00    +0.035 C 
ATOM     15  C   UNL     1       1.451  -4.921  -0.654  0.00  0.00    +0.029 C 
ATOM     16  C   UNL     1       1.454  -5.870   0.546  0.00  0.00    -0.008 C 
ATOM     17  C   UNL     1       1.778  -5.083   1.817  0.00  0.00    +0.007 C 
ATOM     18  C   UNL     1       3.156  -4.433   1.677  0.00  0.00    -0.008 C 
ATOM     19  C   UNL     1       3.153  -3.484   0.476  0.00  0.00    +0.029 C 
ATOM     20  C   UNL     1       4.213  -5.518   1.466  0.00  0.00    +0.007 C 
ATOM     21  C   UNL     1       3.889  -6.306   0.195  0.00  0.00    -0.008 C 
ATOM     22  C   UNL     1       2.511  -6.956   0.335  0.00  0.00    +0.007 C 
ATOM     23  C   UNL     1       3.886  -5.357  -1.006  0.00  0.00    +0.029 C 
ENDBRANCH  12  14
ENDBRANCH   4  10
ENDBRANCH   3   4
BRANCH   1  24
ATOM     24  C   UNL     1       6.435  -2.203  -4.109  0.00  0.00    +0.100 C 
BRANCH  24  26
ATOM     25  C   UNL     1       8.617  -3.173  -3.041  0.00  0.00    +0.031 C 
ATOM     26  C   UNL     1       7.581  -3.215  -4.166  0.00  0.00    +0.012 C 
ATOM     27  C   UNL     1       8.987  -2.676  -4.440  0.00  0.00    -0.024 C 
ATOM     28  C   UNL     1       9.928  -3.548  -5.274  0.00  0.00    +0.012 C 
ATOM     29  C   UNL     1       9.138  -1.166  -4.637  0.00  0.00    +0.012 C 
BRANCH  25  32
ATOM     30  C   UNL     1       6.119  -2.854  -1.227  0.00  0.00    +0.063 C 
ATOM     31  C   UNL     1       7.354  -1.993  -1.173  0.00  0.00    +0.017 A 
ATOM     32  C   UNL     1       8.431  -2.138  -1.962  0.00  0.00    -0.016 A 
ATOM     33  C   UNL     1       9.386  -1.096  -1.579  0.00  0.00    +0.003 A 
ATOM     34  C   UNL     1      10.659  -0.735  -2.025  0.00  0.00    +0.010 A 
ATOM     35  C   UNL     1      11.308   0.318  -1.445  0.00  0.00    +0.001 A 
ATOM     36  C   UNL     1      10.712   1.032  -0.414  0.00  0.00    +0.002 A 
ATOM     37  C   UNL     1       9.458   0.693   0.042  0.00  0.00    +0.026 A 
ATOM     38  C   UNL     1       8.778  -0.376  -0.534  0.00  0.00    +0.047 A 
ATOM     39  N   UNL     1       7.546  -0.948  -0.310  0.00  0.00    -0.358 N 
ATOM     40  H   UNL     1       6.908  -0.653   0.358  0.00  0.00    +0.166 HD
ENDBRANCH  25  32
ENDBRANCH  24  26
ENDBRANCH   1  24
BRANCH   3  41
ATOM     41  C   UNL     1       3.987  -0.766  -4.164  0.00  0.00    +0.183 C 
BRANCH  41  42
ATOM     42  C   UNL     1       4.737  -0.162  -5.323  0.00  0.00    +0.122 A 
ATOM     43  C   UNL     1       4.211   0.160  -6.518  0.00  0.00    +0.046 A 
ATOM     44  C   UNL     1       5.262   0.697  -7.297  0.00  0.00    +0.041 A 
ATOM     45  C   UNL     1       6.369   0.663  -6.534  0.00  0.00    +0.195 A 
ATOM     46  O   UNL     1       6.045   0.142  -5.339  0.00  0.00    -0.466 OA
ENDBRANCH  41  42
ENDBRANCH   3  41
TORSDOF 8
