REMARK  Name = ZINC08933551
REMARK  8 active torsions:
REMARK  status: ('A' for Active; 'I' for Inactive)
REMARK    1  A    between atoms: C_1  and  C_2
REMARK    2  A    between atoms: C_2  and  C_3
REMARK    3  A    between atoms: C_2  and  C_4
REMARK    4  A    between atoms: C_14  and  C_16
REMARK    5  A    between atoms: N_19  and  S_22
REMARK    6  A    between atoms: S_22  and  C_25
REMARK    7  A    between atoms: C_29  and  S_31
REMARK    8  A    between atoms: S_31  and  C_34
REMARK                            x       y       z     vdW  Elec       q    Type
REMARK                         _______ _______ _______ _____ _____    ______ ____
ROOT
ATOM      1  C   UNL     1       3.327  -2.176   9.633  0.00  0.00    +0.078 C 
ATOM      2  C   UNL     1       2.450  -1.672  10.782  0.00  0.00    +0.030 C 
ATOM      3  C   UNL     1       2.879  -2.356  12.084  0.00  0.00    +0.110 C 
ATOM      4  N   UNL     1       4.318  -2.136  12.282  0.00  0.00    -0.177 NA
ATOM      5  C   UNL     1       5.244  -2.502  11.201  0.00  0.00    +0.110 C 
ATOM      6  C   UNL     1       4.789  -1.817   9.909  0.00  0.00    +0.030 C 
ENDROOT
BRANCH   1  17
ATOM      7  C   UNL     1       0.000   1.080   2.488  0.00  0.00    -0.044 A 
ATOM      8  C   UNL     1       1.326   1.428   2.704  0.00  0.00    +0.006 A 
ATOM      9  C   UNL     1       2.011   0.988   3.805  0.00  0.00    +0.029 A 
ATOM     10  C   UNL     1       1.383   0.159   4.764  0.00  0.00    +0.080 A 
ATOM     11  C   UNL     1       0.033  -0.174   4.512  0.00  0.00    +0.041 A 
ATOM     12  C   UNL     1      -0.647   0.276   3.407  0.00  0.00    +0.021 A 
ATOM     13  S   UNL     1      -0.372  -1.194   5.909  0.00  0.00    -0.052 S 
ATOM     14  C   UNL     1       1.222  -1.116   6.713  0.00  0.00    +0.165 A 
ATOM     15  N   UNL     1       1.911  -0.355   5.896  0.00  0.00    -0.225 NA
ATOM     16  N   UNL     1       1.627  -1.710   7.898  0.00  0.00    -0.264 N 
ATOM     17  C   UNL     1       2.886  -1.531   8.345  0.00  0.00    +0.222 C 
ATOM     18  O   UNL     1       3.664  -0.851   7.710  0.00  0.00    -0.275 OA
ATOM     19  H   UNL     1       1.005  -2.253   8.406  0.00  0.00    +0.157 HD
BRANCH   7  21
ATOM     20  C   UNL     1      -0.013   1.086   0.008  0.00  0.00    +0.012 C 
ATOM     21  C   UNL     1      -0.729   1.579   1.267  0.00  0.00    +0.013 C 
ATOM     22  C   UNL     1      -0.750   3.109   1.275  0.00  0.00    +0.012 C 
ENDBRANCH   7  21
ENDBRANCH   1  17
BRANCH   4  23
ATOM     23  S   UNL     1       4.886  -1.488  13.696  0.00  0.00    +0.061 S 
ATOM     24  O   UNL     1       3.908  -1.763  14.690  0.00  0.00    -0.153 OA
ATOM     25  O   UNL     1       6.238  -1.907  13.821  0.00  0.00    -0.153 OA
BRANCH  23  26
ATOM     26  C   UNL     1       4.917   0.262  13.492  0.00  0.00    +0.107 A 
ATOM     27  C   UNL     1       6.052   0.880  12.999  0.00  0.00    +0.028 A 
ATOM     28  C   UNL     1       6.075   2.252  12.833  0.00  0.00    +0.004 A 
ATOM     29  C   UNL     1       4.967   3.007  13.172  0.00  0.00    +0.027 A 
ATOM     30  C   UNL     1       3.835   2.390  13.669  0.00  0.00    +0.090 A 
ATOM     31  C   UNL     1       3.810   1.017  13.829  0.00  0.00    +0.055 A 
BRANCH  30  32
ATOM     32  S   UNL     1       2.424   3.353  14.100  0.00  0.00    -0.006 S 
ATOM     33  O   UNL     1       2.517   4.516  13.289  0.00  0.00    -0.170 OA
ATOM     34  O   UNL     1       1.324   2.464  13.968  0.00  0.00    -0.170 OA
ATOM     35  C   UNL     1       2.671   3.787  15.844  0.00  0.00    +0.200 C 
ENDBRANCH  30  32
ENDBRANCH  23  26
ENDBRANCH   4  23
TORSDOF 5
