REMARK  Name = ZINC67271765
REMARK  2 active torsions:
REMARK  status: ('A' for Active; 'I' for Inactive)
REMARK    1  A    between atoms: C_1  and  C_2
REMARK    2  A    between atoms: C_10  and  C_12
REMARK                            x       y       z     vdW  Elec       q    Type
REMARK                         _______ _______ _______ _____ _____    ______ ____
ROOT
ATOM      1  C   UNL     1       3.724  -3.496  -0.293  0.00  0.00    +0.075 C 
ATOM      2  C   UNL     1       3.921  -2.619  -1.531  0.00  0.00    +0.015 C 
ATOM      3  C   UNL     1       4.854  -3.329  -2.515  0.00  0.00    +0.036 C 
ATOM      4  C   UNL     1       6.197  -3.597  -1.843  0.00  0.00    +0.112 C 
ATOM      5  C   UNL     1       6.014  -4.450  -0.593  0.00  0.00    +0.036 C 
ATOM      6  C   UNL     1       5.076  -3.735   0.384  0.00  0.00    +0.015 C 
ATOM      7  C   UNL     1       6.884  -2.296  -1.499  0.00  0.00    +0.244 C 
ATOM      8  O   UNL     1       6.484  -1.429  -0.752  0.00  0.00    -0.273 OA
ATOM      9  N   UNL     1       8.038  -2.302  -2.199  0.00  0.00    -0.238 N 
ATOM     10  C   UNL     1       8.167  -3.417  -2.927  0.00  0.00    +0.307 C 
ATOM     11  O   UNL     1       9.123  -3.652  -3.640  0.00  0.00    -0.252 OA
ATOM     12  N   UNL     1       7.119  -4.250  -2.781  0.00  0.00    -0.285 N 
ATOM     13  H   UNL     1       8.693  -1.586  -2.177  0.00  0.00    +0.159 HD
ATOM     14  H   UNL     1       6.997  -5.112  -3.210  0.00  0.00    +0.151 HD
ENDROOT
BRANCH   1  23
ATOM     15  C   UNL     1      -1.312   0.244  -0.298  0.00  0.00    +0.007 C 
ATOM     16  C   UNL     1      -0.810  -1.157   0.058  0.00  0.00    -0.013 C 
ATOM     17  C   UNL     1      -0.251  -1.806  -1.205  0.00  0.00    +0.005 C 
ATOM     18  C   UNL     1      -0.352  -3.306  -1.082  0.00  0.00    +0.019 C 
ATOM     19  C   UNL     1       0.945  -3.876  -0.481  0.00  0.00    +0.108 C 
ATOM     20  N   UNL     1       1.469  -3.034   0.612  0.00  0.00    -0.301 N 
ATOM     21  C   UNL     1       0.618  -2.445   1.621  0.00  0.00    +0.108 C 
ATOM     22  C   UNL     1       0.161  -1.040   1.157  0.00  0.00    +0.022 C 
ATOM     23  C   UNL     1       2.796  -2.804   0.671  0.00  0.00    +0.219 C 
ATOM     24  O   UNL     1       3.243  -2.040   1.501  0.00  0.00    -0.275 OA
ENDBRANCH   1  23
TORSDOF 1
