REMARK  Name = ZINC35851729
REMARK  5 active torsions:
REMARK  status: ('A' for Active; 'I' for Inactive)
REMARK    1  A    between atoms: C_1  and  O_2
REMARK    2  A    between atoms: O_2  and  C_3
REMARK    3  A    between atoms: C_8  and  N_9
REMARK    4  A    between atoms: C_14  and  C_31
REMARK    5  A    between atoms: C_31  and  C_32
REMARK                            x       y       z     vdW  Elec       q    Type
REMARK                         _______ _______ _______ _____ _____    ______ ____
ROOT
ATOM      1  N   UNL     1       0.094  -2.778  -0.110  0.00  0.00    -0.206 N 
ATOM      2  C   UNL     1      -1.201  -3.214  -0.124  0.00  0.00    +0.232 C 
ATOM      3  O   UNL     1      -1.950  -3.253  -1.076  0.00  0.00    -0.274 OA
ATOM      4  C   UNL     1      -1.504  -3.636   1.288  0.00  0.00    +0.108 C 
ATOM      5  C   UNL     1      -2.280  -4.937   1.530  0.00  0.00    +0.076 C 
ATOM      6  N   UNL     1      -1.668  -5.455   2.798  0.00  0.00    -0.295 NA
ATOM      7  C   UNL     1      -0.267  -4.933   2.862  0.00  0.00    +0.136 C 
ATOM      8  C   UNL     1      -0.060  -4.201   1.601  0.00  0.00    +0.123 C 
ATOM      9  C   UNL     1       0.781  -3.190   1.004  0.00  0.00    +0.233 C 
ATOM     10  O   UNL     1       1.856  -2.793   1.401  0.00  0.00    -0.274 OA
ATOM     11  C   UNL     1      -0.111  -4.068   4.086  0.00  0.00    +0.003 A 
ATOM     12  C   UNL     1      -0.692  -2.886   4.486  0.00  0.00    +0.008 A 
ATOM     13  C   UNL     1      -0.336  -2.313   5.694  0.00  0.00    +0.000 A 
ATOM     14  C   UNL     1       0.604  -2.933   6.498  0.00  0.00    +0.002 A 
ATOM     15  C   UNL     1       1.187  -4.118   6.102  0.00  0.00    +0.023 A 
ATOM     16  C   UNL     1       0.834  -4.700   4.886  0.00  0.00    +0.039 A 
ATOM     17  N   UNL     1       1.276  -5.875   4.276  0.00  0.00    -0.283 N 
ATOM     18  C   UNL     1       0.681  -6.086   3.088  0.00  0.00    +0.243 C 
ATOM     19  O   UNL     1       0.869  -7.023   2.342  0.00  0.00    -0.273 OA
ATOM     20  H   UNL     1      -2.200  -5.162   3.603  0.00  0.00    +0.124 HD
ATOM     21  H   UNL     1       1.936  -6.471   4.664  0.00  0.00    +0.155 HD
ENDROOT
BRANCH   1  27
ATOM     22  C   UNL     1       0.606  -0.607  -1.056  0.00  0.00    +0.142 A 
ATOM     23  C   UNL     1       1.173   0.159  -2.062  0.00  0.00    +0.049 A 
ATOM     24  C   UNL     1       1.787  -0.455  -3.137  0.00  0.00    +0.024 A 
ATOM     25  C   UNL     1       1.837  -1.836  -3.213  0.00  0.00    +0.043 A 
ATOM     26  C   UNL     1       1.274  -2.607  -2.213  0.00  0.00    +0.047 A 
ATOM     27  C   UNL     1       0.662  -1.997  -1.129  0.00  0.00    +0.087 A 
ATOM     28 CL   UNL     1       2.609  -2.601  -4.567  0.00  0.00    -0.083 Cl
BRANCH  22  30
ATOM     29  C   UNL     1      -0.017   1.425   0.010  0.00  0.00    +0.277 C 
ATOM     30  O   UNL     1       0.002  -0.004   0.002  0.00  0.00    -0.493 OA
ENDBRANCH  22  30
ENDBRANCH   1  27
BRANCH   5  31
ATOM     31  C   UNL     1      -3.771  -4.651   1.720  0.00  0.00    +0.115 C 
BRANCH  31  32
ATOM     32  C   UNL     1      -4.521  -5.953   1.833  0.00  0.00    +0.212 C 
ATOM     33  O   UNL     1      -3.923  -7.006   1.767  0.00  0.00    -0.276 OA
ATOM     34  N   UNL     1      -5.858  -5.948   2.006  0.00  0.00    -0.329 N 
ATOM     35  H   UNL     1      -6.337  -5.106   2.059  0.00  0.00    +0.145 HD
ATOM     36  H   UNL     1      -6.341  -6.786   2.079  0.00  0.00    +0.145 HD
ENDBRANCH  31  32
ENDBRANCH   5  31
TORSDOF 4
