REMARK  Name = ZINC36586848
REMARK  17 active torsions:
REMARK  status: ('A' for Active; 'I' for Inactive)
REMARK    1  A    between atoms: C_1  and  C_2
REMARK    2  A    between atoms: C_2  and  C_3
REMARK    3  A    between atoms: C_2  and  C_4
REMARK    4  A    between atoms: C_2  and  N_5
REMARK    5  A    between atoms: C_6  and  C_8
REMARK    6  A    between atoms: C_8  and  C_10
REMARK    7  A    between atoms: C_8  and  N_19
REMARK    8  A    between atoms: C_13  and  O_18
REMARK    9  A    between atoms: C_14  and  O_16
REMARK   10  A    between atoms: O_16  and  C_17
REMARK   11  A    between atoms: N_19  and  C_30
REMARK   12  A    between atoms: C_20  and  C_22
REMARK   13  A    between atoms: C_23  and  O_29
REMARK   14  A    between atoms: C_27  and  O_28
REMARK   15  A    between atoms: C_30  and  C_31
REMARK   16  A    between atoms: C_30  and  C_32
REMARK   17  A    between atoms: C_30  and  C_33
REMARK                            x       y       z     vdW  Elec       q    Type
REMARK                         _______ _______ _______ _____ _____    ______ ____
ROOT
ATOM      1  C   UNL     1       2.202   0.161  -3.828  0.00  0.00    +0.193 C 
ENDROOT
BRANCH   1   2
ATOM      2  C   UNL     1       2.488  -1.209  -4.389  0.00  0.00    -0.014 A 
ATOM      3  C   UNL     1       3.212  -2.122  -3.644  0.00  0.00    +0.010 A 
ATOM      4  C   UNL     1       3.477  -3.379  -4.154  0.00  0.00    +0.049 A 
ATOM      5  C   UNL     1       3.016  -3.727  -5.413  0.00  0.00    +0.158 A 
ATOM      6  C   UNL     1       2.288  -2.808  -6.163  0.00  0.00    +0.162 A 
ATOM      7  C   UNL     1       2.022  -1.551  -5.644  0.00  0.00    +0.055 A 
BRANCH   6   8
ATOM      8  O   UNL     1       1.834  -3.145  -7.400  0.00  0.00    -0.491 OA
ATOM      9  C   UNL     1       1.093  -2.152  -8.112  0.00  0.00    +0.277 C 
ENDBRANCH   6   8
BRANCH   5  10
ATOM     10  O   UNL     1       3.277  -4.963  -5.917  0.00  0.00    -0.503 OA
ATOM     11  H   UNL     1       2.603  -5.624  -5.705  0.00  0.00    +0.292 HD
ENDBRANCH   5  10
ENDBRANCH   1   2
BRANCH   1  13
ATOM     12  N   UNL     1      -0.221  -0.334  -3.785  0.00  0.00    -0.309 N 
ATOM     13  C   UNL     1       0.860   0.153  -3.143  0.00  0.00    +0.239 C 
ATOM     14  O   UNL     1       0.752   0.584  -2.015  0.00  0.00    -0.273 OA
ATOM     15  H   UNL     1      -0.135  -0.679  -4.687  0.00  0.00    +0.149 HD
BRANCH  12  17
ATOM     16  C   UNL     1      -1.924   1.091  -2.760  0.00  0.00    +0.031 C 
ATOM     17  C   UNL     1      -1.526  -0.342  -3.119  0.00  0.00    +0.026 C 
ATOM     18  C   UNL     1      -1.443  -1.183  -1.844  0.00  0.00    +0.031 C 
ATOM     19  C   UNL     1      -2.574  -0.941  -4.059  0.00  0.00    +0.031 C 
ENDBRANCH  12  17
ENDBRANCH   1  13
BRANCH   1  20
ATOM     20  N   UNL     1       3.242   0.519  -2.860  0.00  0.00    -0.277 N 
ATOM     21  C   UNL     1       3.281  -0.088  -1.658  0.00  0.00    +0.255 C 
ATOM     22  O   UNL     1       2.422  -0.894  -1.355  0.00  0.00    -0.270 OA
BRANCH  21  23
ATOM     23  C   UNL     1       4.365   0.223  -0.711  0.00  0.00    +0.119 A 
ATOM     24  C   UNL     1       4.220   1.271   0.209  0.00  0.00    +0.133 A 
ATOM     25  C   UNL     1       5.246   1.555   1.095  0.00  0.00    +0.046 A 
ATOM     26  C   UNL     1       6.410   0.809   1.076  0.00  0.00    +0.007 A 
ATOM     27  C   UNL     1       6.564  -0.226   0.173  0.00  0.00    +0.046 A 
ATOM     28  C   UNL     1       5.548  -0.531  -0.719  0.00  0.00    +0.133 A 
BRANCH  28  29
ATOM     29  O   UNL     1       5.699  -1.551  -1.600  0.00  0.00    -0.506 OA
ATOM     30  H   UNL     1       6.095  -1.289  -2.442  0.00  0.00    +0.292 HD
ENDBRANCH  28  29
BRANCH  24  31
ATOM     31  O   UNL     1       3.079   2.005   0.230  0.00  0.00    -0.506 OA
ATOM     32  H   UNL     1       2.398   1.656   0.821  0.00  0.00    +0.292 HD
ENDBRANCH  24  31
ENDBRANCH  21  23
BRANCH  20  33
ATOM     33  C   UNL     1       4.239   1.538  -3.199  0.00  0.00    +0.030 C 
ATOM     34  C   UNL     1       3.902   2.147  -4.562  0.00  0.00    +0.031 C 
ATOM     35  C   UNL     1       4.229   2.636  -2.134  0.00  0.00    +0.031 C 
ATOM     36  C   UNL     1       5.626   0.895  -3.257  0.00  0.00    +0.031 C 
ENDBRANCH  20  33
ENDBRANCH   1  20
TORSDOF 10
