REMARK  Name = ZINC37036648
REMARK  5 active torsions:
REMARK  status: ('A' for Active; 'I' for Inactive)
REMARK    1  A    between atoms: C_1  and  C_2
REMARK    2  A    between atoms: C_3  and  S_8
REMARK    3  A    between atoms: S_8  and  C_9
REMARK    4  A    between atoms: C_9  and  C_10
REMARK    5  A    between atoms: C_13  and  C_15
REMARK                            x       y       z     vdW  Elec       q    Type
REMARK                         _______ _______ _______ _____ _____    ______ ____
ROOT
ATOM      1  C   UNL     1      -0.010  -1.173  -5.311  0.00  0.00    +0.090 A 
ATOM      2  C   UNL     1      -1.104  -0.978  -6.069  0.00  0.00    +0.221 A 
ATOM      3  O   UNL     1      -0.681  -0.644  -7.304  0.00  0.00    -0.443 OA
ATOM      4  C   UNL     1       0.664  -0.638  -7.288  0.00  0.00    +0.227 A 
ATOM      5  N   UNL     1       1.068  -0.953  -6.080  0.00  0.00    -0.213 NA
ENDROOT
BRANCH   4   6
ATOM      6  C   UNL     1       1.540  -0.325  -8.437  0.00  0.00    +0.037 A 
ATOM      7  C   UNL     1       2.927  -0.360  -8.290  0.00  0.00    +0.014 A 
ATOM      8  C   UNL     1       3.739  -0.067  -9.365  0.00  0.00    +0.021 A 
ATOM      9  C   UNL     1       3.181   0.262 -10.589  0.00  0.00    +0.041 A 
ATOM     10  C   UNL     1       1.805   0.300 -10.740  0.00  0.00    +0.021 A 
ATOM     11  C   UNL     1       0.982   0.003  -9.674  0.00  0.00    +0.014 A 
ATOM     12 CL   UNL     1       4.209   0.630 -11.938  0.00  0.00    -0.084 Cl
ENDBRANCH   4   6
BRANCH   1  13
ATOM     13  C   UNL     1       0.003  -1.562  -3.855  0.00  0.00    +0.133 C 
BRANCH  13  14
ATOM     14  S   UNL     1      -0.012  -0.066  -2.829  0.00  0.00    -0.110 S 
BRANCH  14  17
ATOM     15  C   UNL     1      -0.018   1.503   0.010  0.00  0.00    +0.067 C 
ATOM     16  C   UNL     1       0.002  -0.004   0.002  0.00  0.00    +0.061 A 
ATOM     17  C   UNL     1       0.005  -0.682  -1.178  0.00  0.00    +0.070 A 
ATOM     18  S   UNL     1       0.031  -2.370  -0.589  0.00  0.00    -0.046 S 
ATOM     19  C   UNL     1       0.035  -1.995   1.158  0.00  0.00    +0.157 A 
ATOM     20  N   UNL     1       0.022  -0.675   1.141  0.00  0.00    -0.229 NA
ATOM     21  N   UNL     1       0.052  -2.861   2.245  0.00  0.00    -0.337 N 
ATOM     22  H   UNL     1       0.065  -3.820   2.100  0.00  0.00    +0.144 HD
ATOM     23  H   UNL     1       0.052  -2.507   3.148  0.00  0.00    +0.144 HD
ENDBRANCH  14  17
ENDBRANCH  13  14
ENDBRANCH   1  13
TORSDOF 4
