REMARK  Name = ZINC07053650
REMARK  8 active torsions:
REMARK  status: ('A' for Active; 'I' for Inactive)
REMARK    1  A    between atoms: C_1  and  C_2
REMARK    2  A    between atoms: C_2  and  C_3
REMARK    3  A    between atoms: C_2  and  C_4
REMARK    4  A    between atoms: C_7  and  S_10
REMARK    5  A    between atoms: S_10  and  N_13
REMARK    6  A    between atoms: N_13  and  C_14
REMARK    7  A    between atoms: C_18  and  S_20
REMARK    8  A    between atoms: S_20  and  N_23
REMARK                            x       y       z     vdW  Elec       q    Type
REMARK                         _______ _______ _______ _____ _____    ______ ____
ROOT
ATOM      1  N   UNL     1      -0.020   1.652   0.011  0.00  0.00    -0.216 N 
ATOM      2  H   UNL     1      -0.867   2.125   0.018  0.00  0.00    +0.174 HD
ENDROOT
BRANCH   1   3
ATOM      3  C   UNL     1       1.180   2.366   0.004  0.00  0.00    +0.050 A 
ATOM      4  C   UNL     1       2.205   1.997  -0.859  0.00  0.00    +0.024 A 
ATOM      5  C   UNL     1       3.389   2.706  -0.864  0.00  0.00    +0.004 A 
ATOM      6  C   UNL     1       3.556   3.783  -0.013  0.00  0.00    +0.028 A 
ATOM      7  C   UNL     1       2.538   4.154   0.847  0.00  0.00    +0.107 A 
ATOM      8  C   UNL     1       1.349   3.452   0.854  0.00  0.00    +0.053 A 
BRANCH   7   9
ATOM      9  S   UNL     1       2.756   5.527   1.929  0.00  0.00    +0.056 S 
ATOM     10  O   UNL     1       1.862   5.333   3.016  0.00  0.00    -0.153 OA
ATOM     11  O   UNL     1       4.157   5.682   2.112  0.00  0.00    -0.153 OA
BRANCH   9  12
ATOM     12  N   UNL     1       2.233   6.875   1.121  0.00  0.00    -0.204 NA
ATOM     13  H   UNL     1       1.889   6.796   0.218  0.00  0.00    +0.144 HD
ATOM     14  H   UNL     1       2.271   7.743   1.552  0.00  0.00    +0.144 HD
ENDBRANCH   9  12
ENDBRANCH   7   9
ENDBRANCH   1   3
BRANCH   1  15
ATOM     15  S   UNL     1       0.002  -0.004   0.002  0.00  0.00    +0.072 S 
ATOM     16  O   UNL     1      -1.353  -0.429   0.040  0.00  0.00    -0.150 OA
ATOM     17  O   UNL     1       0.893  -0.392  -1.034  0.00  0.00    -0.150 OA
BRANCH  15  21
ATOM     18  C   UNL     1       1.885  -1.339   3.896  0.00  0.00    -0.045 A 
ATOM     19  C   UNL     1       0.517  -1.152   3.818  0.00  0.00    +0.006 A 
ATOM     20  C   UNL     1      -0.058  -0.745   2.629  0.00  0.00    +0.029 A 
ATOM     21  C   UNL     1       0.735  -0.523   1.518  0.00  0.00    +0.109 A 
ATOM     22  C   UNL     1       2.102  -0.715   1.595  0.00  0.00    +0.029 A 
ATOM     23  C   UNL     1       2.677  -1.119   2.785  0.00  0.00    +0.006 A 
BRANCH  18  25
ATOM     24  C   UNL     1       3.231  -3.116   4.982  0.00  0.00    +0.012 C 
ATOM     25  C   UNL     1       2.512  -1.782   5.193  0.00  0.00    +0.013 C 
ATOM     26  C   UNL     1       3.518  -0.728   5.659  0.00  0.00    +0.012 C 
ENDBRANCH  18  25
ENDBRANCH  15  21
ENDBRANCH   1  15
TORSDOF 6
