REMARK  Name = ZINC33810522
REMARK  11 active torsions:
REMARK  status: ('A' for Active; 'I' for Inactive)
REMARK    1  A    between atoms: C_1  and  C_2
REMARK    2  A    between atoms: C_2  and  C_3
REMARK    3  A    between atoms: C_3  and  S_4
REMARK    4  A    between atoms: S_4  and  C_5
REMARK    5  A    between atoms: C_12  and  C_24
REMARK    6  A    between atoms: C_18  and  C_22
REMARK    7  A    between atoms: C_18  and  C_23
REMARK    8  A    between atoms: C_27  and  O_33
REMARK    9  A    between atoms: C_28  and  O_30
REMARK   10  A    between atoms: O_30  and  C_31
REMARK   11  A    between atoms: C_31  and  C_32
REMARK                            x       y       z     vdW  Elec       q    Type
REMARK                         _______ _______ _______ _____ _____    ______ ____
ROOT
ATOM      1  C   UNL     1       4.585   3.025   3.529  0.00  0.00    +0.171 A 
ATOM      2  N   UNL     1       4.970   2.458   2.351  0.00  0.00    -0.208 NA
ATOM      3  C   UNL     1       4.291   2.746   1.196  0.00  0.00    +0.135 A 
ATOM      4  C   UNL     1       3.232   3.598   1.241  0.00  0.00    +0.069 A 
ATOM      5  C   UNL     1       2.868   4.168   2.480  0.00  0.00    +0.258 A 
ATOM      6  O   UNL     1       1.923   4.941   2.547  0.00  0.00    -0.267 OA
ATOM      7  N   UNL     1       3.564   3.855   3.584  0.00  0.00    -0.302 N 
ATOM      8  C   UNL     1       2.458   3.932   0.000  0.00  0.00    +0.093 C 
ATOM      9  C   UNL     1       3.233   3.576  -1.243  0.00  0.00    +0.024 C 
ATOM     10  C   UNL     1       4.282   2.728  -1.188  0.00  0.00    +0.017 C 
ATOM     11  N   UNL     1       4.675   2.179   0.003  0.00  0.00    -0.302 N 
ATOM     12  C   UNL     1       5.046   2.354  -2.435  0.00  0.00    +0.058 C 
ATOM     13  C   UNL     1       5.020   3.523  -3.423  0.00  0.00    -0.023 C 
ATOM     14  C   UNL     1       3.559   3.856  -3.742  0.00  0.00    +0.086 C 
ATOM     15  C   UNL     1       2.833   4.155  -2.460  0.00  0.00    +0.162 C 
ATOM     16  O   UNL     1       1.882   4.911  -2.475  0.00  0.00    -0.292 OA
ATOM     17  C   UNL     1       5.700   4.741  -2.796  0.00  0.00    +0.011 C 
ATOM     18  C   UNL     1       5.754   3.127  -4.706  0.00  0.00    +0.011 C 
ATOM     19  H   UNL     1       5.303   1.277  -0.001  0.00  0.00    +0.153 HD
ATOM     20  H   UNL     1       3.270   4.302   4.545  0.00  0.00    +0.171 HD
ENDROOT
BRANCH   8  21
ATOM     21  C   UNL     1       1.160   3.166   0.008  0.00  0.00    -0.032 A 
ATOM     22  C   UNL     1       1.175   1.783   0.000  0.00  0.00    +0.008 A 
ATOM     23  C   UNL     1      -0.013   1.076   0.008  0.00  0.00    +0.049 A 
ATOM     24  C   UNL     1      -1.222   1.752   0.017  0.00  0.00    +0.158 A 
ATOM     25  C   UNL     1      -1.237   3.144   0.030  0.00  0.00    +0.162 A 
ATOM     26  C   UNL     1      -0.043   3.847   0.023  0.00  0.00    +0.054 A 
BRANCH  24  27
ATOM     27  O   UNL     1      -2.391   1.058   0.020  0.00  0.00    -0.503 OA
ATOM     28  H   UNL     1      -3.350   1.596   0.027  0.00  0.00    +0.292 HD
ENDBRANCH  24  27
BRANCH  25  29
ATOM     29  O   UNL     1      -2.421   3.812   0.045  0.00  0.00    -0.489 OA
BRANCH  29  30
ATOM     30  C   UNL     1      -2.361   5.240   0.053  0.00  0.00    +0.226 C 
ATOM     31  C   UNL     1      -3.780   5.811   0.069  0.00  0.00    +0.048 C 
ENDBRANCH  29  30
ENDBRANCH  25  29
ENDBRANCH   8  21
BRANCH   1  32
ATOM     32  S   UNL     1       5.469   2.642   5.004  0.00  0.00    -0.088 S 
BRANCH  32  33
ATOM     33  C   UNL     1       4.544   3.644   6.194  0.00  0.00    +0.077 C 
BRANCH  33  35
ATOM     34  C   UNL     1       4.367   4.313   8.595  0.00  0.00    +0.004 C 
ATOM     35  C   UNL     1       5.148   3.466   7.588  0.00  0.00    +0.008 C 
ENDBRANCH  33  35
ENDBRANCH  32  33
ENDBRANCH   1  32
TORSDOF 7
