REMARK  Name = ZINC11923578
REMARK  7 active torsions:
REMARK  status: ('A' for Active; 'I' for Inactive)
REMARK    1  A    between atoms: C_1  and  C_2
REMARK    2  A    between atoms: C_3  and  N_15
REMARK    3  A    between atoms: N_6  and  C_9
REMARK    4  A    between atoms: N_7  and  C_8
REMARK    5  A    between atoms: C_16  and  C_18
REMARK    6  A    between atoms: N_20  and  C_28
REMARK    7  A    between atoms: C_22  and  C_23
REMARK                            x       y       z     vdW  Elec       q    Type
REMARK                         _______ _______ _______ _____ _____    ______ ____
ROOT
ATOM      1  N   UNL     1       4.269  -0.898  -0.260  0.00  0.00    -0.276 N 
ATOM      2  C   UNL     1       3.422   0.138  -0.418  0.00  0.00    +0.252 C 
ATOM      3  O   UNL     1       3.853   1.274  -0.466  0.00  0.00    -0.270 OA
ATOM      4  H   UNL     1       3.921  -1.797  -0.149  0.00  0.00    +0.155 HD
ENDROOT
BRANCH   1   7
ATOM      5  C   UNL     1       6.157  -1.683   2.027  0.00  0.00    +0.067 C 
ATOM      6  C   UNL     1       6.522  -1.008   0.731  0.00  0.00    +0.059 A 
ATOM      7  C   UNL     1       5.660  -0.677  -0.257  0.00  0.00    +0.121 A 
ATOM      8  C   UNL     1       6.442  -0.051  -1.324  0.00  0.00    +0.293 A 
ATOM      9  O   UNL     1       6.014   0.377  -2.381  0.00  0.00    -0.264 OA
ATOM     10  N   UNL     1       7.727  -0.035  -0.912  0.00  0.00    -0.216 N 
ATOM     11  N   UNL     1       7.784  -0.628   0.355  0.00  0.00    -0.282 N 
ATOM     12  C   UNL     1       8.999  -0.812   1.152  0.00  0.00    +0.171 C 
BRANCH  10  13
ATOM     13  C   UNL     1       8.812   0.478  -1.628  0.00  0.00    +0.067 A 
ATOM     14  C   UNL     1       9.716   1.330  -1.006  0.00  0.00    +0.028 A 
ATOM     15  C   UNL     1      10.791   1.831  -1.714  0.00  0.00    +0.002 A 
ATOM     16  C   UNL     1      10.960   1.495  -3.045  0.00  0.00    +0.000 A 
ATOM     17  C   UNL     1      10.059   0.652  -3.669  0.00  0.00    +0.002 A 
ATOM     18  C   UNL     1       8.986   0.143  -2.964  0.00  0.00    +0.028 A 
ENDBRANCH  10  13
ENDBRANCH   1   7
BRANCH   2  19
ATOM     19  C   UNL     1       1.974  -0.105  -0.534  0.00  0.00    +0.083 A 
ATOM     20  C   UNL     1       1.337  -1.328  -0.499  0.00  0.00    +0.128 A 
ATOM     21  N   UNL     1       0.017  -1.110  -0.638  0.00  0.00    -0.239 N 
ATOM     22  N   UNL     1      -0.222   0.261  -0.766  0.00  0.00    -0.165 NA
ATOM     23  C   UNL     1       0.924   0.905  -0.709  0.00  0.00    +0.112 A 
BRANCH  21  24
ATOM     24  C   UNL     1      -0.968  -2.106  -0.653  0.00  0.00    +0.065 A 
ATOM     25  C   UNL     1      -0.609  -3.441  -0.523  0.00  0.00    +0.028 A 
ATOM     26  C   UNL     1      -1.583  -4.420  -0.532  0.00  0.00    +0.002 A 
ATOM     27  C   UNL     1      -2.913  -4.073  -0.682  0.00  0.00    +0.000 A 
ATOM     28  C   UNL     1      -3.273  -2.745  -0.818  0.00  0.00    +0.002 A 
ATOM     29  C   UNL     1      -2.304  -1.760  -0.804  0.00  0.00    +0.028 A 
ENDBRANCH  21  24
BRANCH  23  30
ATOM     30  C   UNL     1       1.117   2.366  -0.805  0.00  0.00    +0.040 A 
ATOM     31  C   UNL     1       0.426   3.281  -1.554  0.00  0.00    +0.018 A 
ATOM     32  C   UNL     1       0.790   4.607  -1.480  0.00  0.00    +0.008 A 
ATOM     33  C   UNL     1       1.818   4.967  -0.670  0.00  0.00    +0.046 A 
ATOM     34  S   UNL     1       2.307   3.400   0.033  0.00  0.00    -0.095 S 
ENDBRANCH  23  30
ENDBRANCH   2  19
TORSDOF 5
