REMARK  Name = ZINC37332213
REMARK  3 active torsions:
REMARK  status: ('A' for Active; 'I' for Inactive)
REMARK    1  A    between atoms: C_5  and  C_7
REMARK    2  A    between atoms: C_7  and  C_9
REMARK    3  A    between atoms: C_7  and  N_20
REMARK                            x       y       z     vdW  Elec       q    Type
REMARK                         _______ _______ _______ _____ _____    ______ ____
ROOT
ATOM      1  C   UNL     1       1.229  -2.186  -0.022  0.00  0.00    -0.011 C 
ENDROOT
BRANCH   1   2
ATOM      2  C   UNL     1       1.442  -2.791  -1.385  0.00  0.00    -0.036 A 
ATOM      3  C   UNL     1       0.355  -3.104  -2.180  0.00  0.00    +0.053 A 
ATOM      4  C   UNL     1       0.549  -3.659  -3.436  0.00  0.00    +0.162 A 
ATOM      5  C   UNL     1       1.839  -3.900  -3.894  0.00  0.00    +0.163 A 
ATOM      6  C   UNL     1       2.926  -3.586  -3.092  0.00  0.00    +0.069 A 
ATOM      7  C   UNL     1       2.726  -3.027  -1.843  0.00  0.00    +0.047 A 
ATOM      8 CL   UNL     1       4.089  -2.628  -0.844  0.00  0.00    -0.083 Cl
ATOM      9  O   UNL     1       2.051  -4.437  -5.127  0.00  0.00    -0.485 OA
ATOM     10  C   UNL     1       0.934  -5.082  -5.748  0.00  0.00    +0.270 C 
ATOM     11  C   UNL     1      -0.291  -4.169  -5.601  0.00  0.00    +0.270 C 
ATOM     12  O   UNL     1      -0.532  -3.965  -4.205  0.00  0.00    -0.485 OA
ENDBRANCH   1   2
BRANCH   1  17
ATOM     13  C   UNL     1      -2.470  -1.944   0.694  0.00  0.00    +0.000 A 
ATOM     14  C   UNL     1      -2.754  -0.665   0.252  0.00  0.00    +0.001 A 
ATOM     15  C   UNL     1      -1.750   0.122  -0.280  0.00  0.00    +0.015 A 
ATOM     16  C   UNL     1      -0.460  -0.370  -0.368  0.00  0.00    +0.020 A 
ATOM     17  C   UNL     1      -0.176  -1.649   0.075  0.00  0.00    -0.044 A 
ATOM     18  C   UNL     1      -1.182  -2.436   0.606  0.00  0.00    +0.003 A 
ATOM     19 BR   UNL     1       0.915   0.706  -1.095  0.00  0.00    -0.050 Br
ENDBRANCH   1  17
BRANCH   1  20
ATOM     20  N   UNL     1       1.432  -3.214   1.007  0.00  0.00    +0.385 N 
ATOM     21  H   UNL     1       0.774  -3.966   0.866  0.00  0.00    -0.089 HD
ATOM     22  H   UNL     1       2.373  -3.574   0.943  0.00  0.00    -0.089 HD
ATOM     23  H   UNL     1       1.289  -2.809   1.920  0.00  0.00    -0.089 HD
ENDBRANCH   1  20
TORSDOF 3
