REMARK  Name = ZINC17180307
REMARK  10 active torsions:
REMARK  status: ('A' for Active; 'I' for Inactive)
REMARK    1  A    between atoms: C_1  and  C_2
REMARK    2  A    between atoms: C_13  and  O_15
REMARK    3  A    between atoms: N_21  and  O_22
REMARK    4  A    between atoms: O_22  and  C_23
REMARK    5  A    between atoms: C_23  and  C_24
REMARK    6  A    between atoms: N_26  and  C_27
REMARK    7  A    between atoms: C_27  and  C_28
REMARK    8  A    between atoms: C_28  and  C_29
REMARK    9  A    between atoms: C_32  and  O_35
REMARK   10  A    between atoms: C_38  and  C_39
REMARK                            x       y       z     vdW  Elec       q    Type
REMARK                         _______ _______ _______ _____ _____    ______ ____
ROOT
ATOM      1  C   UNL     1       1.120   3.415   2.128  0.00  0.00    +0.014 C 
ATOM      2  C   UNL     1       1.352   1.932   2.425  0.00  0.00    -0.003 C 
ATOM      3  C   UNL     1       2.165   1.301   1.308  0.00  0.00    +0.010 C 
ATOM      4  C   UNL     1       1.425   1.601  -0.003  0.00  0.00    +0.005 C 
ATOM      5  C   UNL     1      -0.013   1.086   0.008  0.00  0.00    +0.002 C 
ATOM      6  C   UNL     1      -0.797   1.565   1.230  0.00  0.00    -0.003 C 
ATOM      7  C   UNL     1       0.004   1.167   2.475  0.00  0.00    +0.001 C 
ATOM      8  C   UNL     1      -0.577   1.643   3.811  0.00  0.00    +0.007 C 
ATOM      9  C   UNL     1       0.660   1.633   4.751  0.00  0.00    +0.032 C 
ATOM     10  C   UNL     1       1.904   1.764   3.837  0.00  0.00    +0.121 C 
ATOM     11  C   UNL     1      -2.182   0.933   1.309  0.00  0.00    +0.008 C 
ATOM     12  C   UNL     1      -2.784   0.680  -0.067  0.00  0.00    +0.031 C 
ATOM     13  C   UNL     1      -2.176   1.638  -1.061  0.00  0.00    -0.062 C 
ATOM     14  C   UNL     1      -2.936   2.498  -1.721  0.00  0.00    +0.026 C 
ATOM     15  C   UNL     1      -2.351   3.442  -2.682  0.00  0.00    +0.080 C 
ATOM     16  N   UNL     1      -3.115   4.258  -3.337  0.00  0.00    -0.089 NA
ATOM     17  C   UNL     1      -0.859   3.459  -2.905  0.00  0.00    +0.059 C 
ATOM     18  C   UNL     1      -0.162   2.974  -1.629  0.00  0.00    +0.017 C 
ATOM     19  C   UNL     1      -0.701   1.581  -1.270  0.00  0.00    -0.007 C 
ATOM     20  C   UNL     1      -0.388   0.623  -2.421  0.00  0.00    +0.016 C 
ENDROOT
BRANCH  10  21
ATOM     21  O   UNL     1       2.706   0.584   3.918  0.00  0.00    -0.391 OA
ATOM     22  H   UNL     1       3.084   0.425   4.794  0.00  0.00    +0.210 HD
ENDBRANCH  10  21
BRANCH  16  23
ATOM     23  O   UNL     1      -4.515   4.240  -3.127  0.00  0.00    -0.384 OA
BRANCH  23  24
ATOM     24  C   UNL     1      -5.233   5.191  -3.915  0.00  0.00    +0.358 C 
BRANCH  24  25
ATOM     25  C   UNL     1      -6.705   5.085  -3.613  0.00  0.00    +0.253 C 
ATOM     26  O   UNL     1      -7.101   4.274  -2.802  0.00  0.00    -0.272 OA
ATOM     27  N   UNL     1      -7.583   5.891  -4.243  0.00  0.00    -0.312 N 
ATOM     28  H   UNL     1      -7.266   6.540  -4.891  0.00  0.00    +0.149 HD
BRANCH  27  29
ATOM     29  C   UNL     1      -9.014   5.788  -3.949  0.00  0.00    +0.109 C 
BRANCH  29  30
ATOM     30  C   UNL     1      -9.783   6.807  -4.793  0.00  0.00    +0.054 C 
BRANCH  30  31
ATOM     31  C   UNL     1     -11.255   6.700  -4.490  0.00  0.00    -0.046 A 
ATOM     32  C   UNL     1     -12.051   5.843  -5.227  0.00  0.00    +0.007 A 
ATOM     33  C   UNL     1     -13.400   5.739  -4.948  0.00  0.00    +0.045 A 
ATOM     34  C   UNL     1     -13.959   6.505  -3.935  0.00  0.00    +0.117 A 
ATOM     35  C   UNL     1     -13.159   7.369  -3.200  0.00  0.00    +0.045 A 
ATOM     36  C   UNL     1     -11.809   7.465  -3.480  0.00  0.00    +0.007 A 
BRANCH  34  37
ATOM     37  O   UNL     1     -15.286   6.409  -3.662  0.00  0.00    -0.507 OA
ATOM     38  H   UNL     1     -15.837   7.027  -4.162  0.00  0.00    +0.292 HD
ENDBRANCH  34  37
ENDBRANCH  30  31
ENDBRANCH  29  30
ENDBRANCH  27  29
ENDBRANCH  24  25
ENDBRANCH  23  24
ENDBRANCH  16  23
TORSDOF 8
