REMARK  Name = ZINC50770849
REMARK  6 active torsions:
REMARK  status: ('A' for Active; 'I' for Inactive)
REMARK    1  A    between atoms: C_1  and  C_2
REMARK    2  A    between atoms: C_8  and  C_10
REMARK    3  A    between atoms: C_11  and  C_13
REMARK    4  A    between atoms: C_16  and  N_22
REMARK    5  A    between atoms: C_17  and  N_19
REMARK    6  A    between atoms: N_22  and  C_23
REMARK                            x       y       z     vdW  Elec       q    Type
REMARK                         _______ _______ _______ _____ _____    ______ ____
ROOT
ATOM      1  C   UNL     1       0.556  -4.291   2.303  0.00  0.00    +0.039 A 
ATOM      2  C   UNL     1       1.459  -4.749   1.339  0.00  0.00    +0.015 A 
ATOM      3  C   UNL     1       1.404  -6.056   0.913  0.00  0.00    +0.026 A 
ATOM      4  C   UNL     1       0.450  -6.922   1.440  0.00  0.00    +0.058 A 
ATOM      5  C   UNL     1      -0.451  -6.469   2.400  0.00  0.00    +0.148 A 
ATOM      6  C   UNL     1      -0.396  -5.164   2.835  0.00  0.00    +0.047 A 
ENDROOT
BRANCH   1  15
ATOM      7  C   UNL     1      -0.371   1.736   1.840  0.00  0.00    +0.009 C 
ATOM      8  C   UNL     1      -0.404   0.245   1.499  0.00  0.00    +0.006 C 
ATOM      9  C   UNL     1      -0.141   0.057   0.003  0.00  0.00    +0.006 C 
ATOM     10  C   UNL     1      -0.207  -1.431  -0.346  0.00  0.00    +0.019 C 
ATOM     11  C   UNL     1       0.877  -2.183   0.434  0.00  0.00    +0.108 C 
ATOM     12  N   UNL     1       0.719  -1.890   1.865  0.00  0.00    -0.294 N 
ATOM     13  C   UNL     1       0.677  -0.487   2.300  0.00  0.00    +0.076 C 
ATOM     14  C   UNL     1       2.036   0.168   2.046  0.00  0.00    +0.028 C 
ATOM     15  C   UNL     1       0.613  -2.890   2.763  0.00  0.00    +0.247 C 
ATOM     16  O   UNL     1       0.565  -2.638   3.951  0.00  0.00    -0.270 OA
ENDBRANCH   1  15
BRANCH   5  17
ATOM     17  N   UNL     1      -1.464  -7.393   2.958  0.00  0.00    +0.058 N 
ATOM     18  O   UNL     1      -2.578  -6.991   3.204  0.00  0.00    -0.126 OA
ATOM     19  O   UNL     1      -1.178  -8.548   3.167  0.00  0.00    -0.126 OA
ENDBRANCH   5  17
BRANCH   4  20
ATOM     20  N   UNL     1       0.396  -8.242   1.007  0.00  0.00    -0.345 N 
ATOM     21  C   UNL     1       1.423  -8.757   0.098  0.00  0.00    +0.125 C 
ATOM     22  H   UNL     1      -0.321  -8.822   1.308  0.00  0.00    +0.146 HD
ENDBRANCH   4  20
TORSDOF 3
