REMARK  Name = ZINC41085425
REMARK  4 active torsions:
REMARK  status: ('A' for Active; 'I' for Inactive)
REMARK    1  A    between atoms: C_6  and  C_7
REMARK    2  A    between atoms: C_8  and  C_9
REMARK    3  A    between atoms: C_15  and  S_17
REMARK    4  A    between atoms: S_17  and  N_20
REMARK                            x       y       z     vdW  Elec       q    Type
REMARK                         _______ _______ _______ _____ _____    ______ ____
ROOT
ATOM      1  C   UNL     1      -2.493  -2.861   0.011  0.00  0.00    +0.243 C 
ATOM      2  O   UNL     1      -3.557  -2.270   0.025  0.00  0.00    -0.270 OA
ATOM      3  N   UNL     1      -2.471  -4.209   0.004  0.00  0.00    -0.260 N 
ATOM      4  C   UNL     1      -3.663  -4.923   0.012  0.00  0.00    +0.190 A 
ATOM      5  N   UNL     1      -4.916  -4.491   0.021  0.00  0.00    -0.124 NA
ATOM      6  N   UNL     1      -5.894  -5.287   0.027  0.00  0.00    -0.119 NA
ATOM      7  C   UNL     1      -5.734  -6.596   0.026  0.00  0.00    +0.256 A 
ATOM      8  S   UNL     1      -3.946  -6.691   0.005  0.00  0.00    -0.011 S 
ATOM      9  H   UNL     1      -1.623  -4.680  -0.007  0.00  0.00    +0.157 HD
ENDROOT
BRANCH   7  10
ATOM     10  S   UNL     1      -6.937  -7.884   0.034  0.00  0.00    +0.086 S 
ATOM     11  O   UNL     1      -7.330  -8.081  -1.317  0.00  0.00    -0.151 OA
ATOM     12  O   UNL     1      -6.404  -8.931   0.834  0.00  0.00    -0.151 OA
BRANCH  10  13
ATOM     13  N   UNL     1      -8.267  -7.307   0.835  0.00  0.00    -0.175 NA
ATOM     14  C   UNL     1      -8.349  -7.493   2.266  0.00  0.00    +0.109 C 
ATOM     15  C   UNL     1      -9.039  -8.845   2.576  0.00  0.00    +0.017 C 
ATOM     16  C   UNL     1     -10.472  -8.771   2.255  0.00  0.00    +0.001 C 
ATOM     17  C   UNL     1     -10.774  -8.522   0.780  0.00  0.00    +0.001 C 
ATOM     18  C   UNL     1     -10.732  -7.039   0.505  0.00  0.00    +0.017 C 
ATOM     19  C   UNL     1      -9.316  -6.618   0.059  0.00  0.00    +0.109 C 
ENDBRANCH  10  13
ENDBRANCH   7  10
BRANCH   1  21
ATOM     20  C   UNL     1      -1.260  -0.760   0.011  0.00  0.00    +0.013 C 
ATOM     21  C   UNL     1      -1.238  -2.109   0.003  0.00  0.00    +0.068 C 
BRANCH  20  27
ATOM     22  C   UNL     1      -0.017   1.395   0.010  0.00  0.00    +0.009 A 
ATOM     23  C   UNL     1       1.169   2.096   0.002  0.00  0.00    +0.020 A 
ATOM     24  C   UNL     1       2.378   1.420  -0.013  0.00  0.00    +0.041 A 
ATOM     25  C   UNL     1       2.405   0.035  -0.022  0.00  0.00    +0.020 A 
ATOM     26  C   UNL     1       1.226  -0.680  -0.014  0.00  0.00    +0.009 A 
ATOM     27  C   UNL     1       0.002  -0.004   0.002  0.00  0.00    -0.025 A 
ATOM     28 CL   UNL     1       3.867   2.313  -0.024  0.00  0.00    -0.084 Cl
ENDBRANCH  20  27
ENDBRANCH   1  21
TORSDOF 4
