REMARK  Name = ZINC62942712
REMARK  3 active torsions:
REMARK  status: ('A' for Active; 'I' for Inactive)
REMARK    1  A    between atoms: C_1  and  C_2
REMARK    2  A    between atoms: C_2  and  C_3
REMARK    3  A    between atoms: C_4  and  C_19
REMARK                            x       y       z     vdW  Elec       q    Type
REMARK                         _______ _______ _______ _____ _____    ______ ____
ROOT
ATOM      1  C   UNL     1       0.707  -0.490  -1.238  0.00  0.00    +0.064 A 
ATOM      2  C   UNL     1       0.023  -0.733  -2.425  0.00  0.00    +0.125 A 
ATOM      3  S   UNL     1       1.365  -1.266  -3.475  0.00  0.00    -0.045 S 
ATOM      4  C   UNL     1       2.609  -1.134  -2.350  0.00  0.00    +0.162 A 
ATOM      5  N   UNL     1       1.997  -0.702  -1.259  0.00  0.00    -0.229 NA
ATOM      6  N   UNL     1       3.947  -1.405  -2.524  0.00  0.00    -0.311 N 
ATOM      7  C   UNL     1       4.870  -1.230  -1.407  0.00  0.00    +0.105 C 
ATOM      8  C   UNL     1       5.901  -2.354  -1.286  0.00  0.00    +0.000 C 
ATOM      9  C   UNL     1       5.214  -3.707  -1.548  0.00  0.00    -0.077 C 
ATOM     10  N   UNL     1       5.299  -4.004  -2.948  0.00  0.00    +0.383 N 
ATOM     11  C   UNL     1       5.446  -5.406  -3.341  0.00  0.00    -0.078 C 
ATOM     12  C   UNL     1       5.114  -5.448  -4.854  0.00  0.00    -0.020 C 
ATOM     13  C   UNL     1       4.747  -3.985  -5.228  0.00  0.00    -0.016 C 
ATOM     14  C   UNL     1       4.376  -3.384  -3.856  0.00  0.00    -0.051 C 
ATOM     15  C   UNL     1       4.429  -1.874  -3.833  0.00  0.00    +0.092 C 
ATOM     16  H   UNL     1       6.187  -3.611  -3.223  0.00  0.00    -0.081 HD
ENDROOT
BRANCH   2  17
ATOM     17  C   UNL     1      -1.353  -0.595  -2.717  0.00  0.00    +0.395 C 
ATOM     18  O   UNL     1      -2.128  -0.209  -1.850  0.00  0.00    -0.240 OA
ATOM     19  O   UNL     1      -1.770  -0.862  -3.838  0.00  0.00    -0.240 OA
ENDBRANCH   2  17
BRANCH   1  21
ATOM     20  C   UNL     1      -0.019   1.526   0.010  0.00  0.00    +0.010 C 
ATOM     21  C   UNL     1       0.002  -0.004   0.002  0.00  0.00    +0.053 C 
ENDBRANCH   1  21
TORSDOF 2
