REMARK  Name = ZINC67512301
REMARK  5 active torsions:
REMARK  status: ('A' for Active; 'I' for Inactive)
REMARK    1  A    between atoms: C_1  and  C_2
REMARK    2  A    between atoms: N_11  and  C_15
REMARK    3  A    between atoms: C_15  and  C_16
REMARK    4  A    between atoms: N_18  and  C_19
REMARK    5  A    between atoms: C_22  and  C_24
REMARK                            x       y       z     vdW  Elec       q    Type
REMARK                         _______ _______ _______ _____ _____    ______ ____
ROOT
ATOM      1  C   UNL     1      -0.019   1.526   0.010  0.00  0.00    +0.010 C 
ATOM      2  C   UNL     1       0.002  -0.004   0.002  0.00  0.00    +0.018 C 
ATOM      3  C   UNL     1      -1.434  -0.534   0.012  0.00  0.00    +0.006 C 
ATOM      4  C   UNL     1      -1.412  -2.064   0.024  0.00  0.00    +0.000 C 
ATOM      5  C   UNL     1      -0.687  -2.556   1.279  0.00  0.00    +0.003 C 
ATOM      6  C   UNL     1       0.752  -2.033   1.273  0.00  0.00    +0.035 C 
ATOM      7  C   UNL     1       0.740  -0.509   1.237  0.00  0.00    +0.115 C 
ATOM      8  C   UNL     1       2.151   0.030   1.266  0.00  0.00    +0.247 C 
ATOM      9  O   UNL     1       3.026  -0.158   0.448  0.00  0.00    -0.273 OA
ATOM     10  N   UNL     1       2.233   0.767   2.394  0.00  0.00    -0.215 N 
ATOM     11  C   UNL     1       1.077   0.763   3.069  0.00  0.00    +0.310 C 
ATOM     12  O   UNL     1       0.904   1.356   4.116  0.00  0.00    -0.252 OA
ATOM     13  N   UNL     1       0.127   0.030   2.458  0.00  0.00    -0.285 N 
ATOM     14  H   UNL     1      -0.782  -0.114   2.764  0.00  0.00    +0.151 HD
ENDROOT
BRANCH  10  15
ATOM     15  C   UNL     1       3.436   1.482   2.825  0.00  0.00    +0.213 C 
BRANCH  15  16
ATOM     16  C   UNL     1       3.425   2.876   2.253  0.00  0.00    +0.231 C 
ATOM     17  O   UNL     1       2.503   3.237   1.554  0.00  0.00    -0.274 OA
ATOM     18  N   UNL     1       4.441   3.721   2.519  0.00  0.00    -0.311 N 
ATOM     19  H   UNL     1       5.178   3.433   3.078  0.00  0.00    +0.149 HD
BRANCH  18  20
ATOM     20  C   UNL     1       4.430   5.077   1.963  0.00  0.00    +0.081 C 
ATOM     21  C   UNL     1       5.737   5.609   1.373  0.00  0.00    +0.033 C 
ATOM     22  C   UNL     1       5.223   6.152   2.708  0.00  0.00    +0.041 C 
BRANCH  22  23
ATOM     23  C   UNL     1       5.955   5.736   3.957  0.00  0.00    -0.042 A 
ATOM     24  C   UNL     1       6.935   4.764   3.893  0.00  0.00    +0.004 A 
ATOM     25  C   UNL     1       7.607   4.382   5.039  0.00  0.00    +0.000 A 
ATOM     26  C   UNL     1       7.300   4.974   6.250  0.00  0.00    +0.000 A 
ATOM     27  C   UNL     1       6.320   5.947   6.314  0.00  0.00    +0.000 A 
ATOM     28  C   UNL     1       5.651   6.332   5.167  0.00  0.00    +0.004 A 
ENDBRANCH  22  23
ENDBRANCH  18  20
ENDBRANCH  15  16
ENDBRANCH  10  15
TORSDOF 4
