REMARK  Name = ZINC03831146
REMARK  9 active torsions:
REMARK  status: ('A' for Active; 'I' for Inactive)
REMARK    1  A    between atoms: C_1  and  C_2
REMARK    2  A    between atoms: C_17  and  C_39
REMARK    3  A    between atoms: C_19  and  O_37
REMARK    4  A    between atoms: C_22  and  C_36
REMARK    5  A    between atoms: C_23  and  C_24
REMARK    6  A    between atoms: C_23  and  O_28
REMARK    7  A    between atoms: C_24  and  C_26
REMARK    8  A    between atoms: O_28  and  C_29
REMARK    9  A    between atoms: C_29  and  C_31
REMARK                            x       y       z     vdW  Elec       q    Type
REMARK                         _______ _______ _______ _____ _____    ______ ____
ROOT
ATOM      1  C   UNL     1      -5.162  -2.524   1.639  0.00  0.00    +0.012 C 
ATOM      2  C   UNL     1      -4.370  -1.954   0.462  0.00  0.00    +0.038 C 
ATOM      3  C   UNL     1      -3.160  -1.136   0.978  0.00  0.00    +0.012 C 
ATOM      4  C   UNL     1      -3.061   0.020  -0.029  0.00  0.00    +0.005 C 
ATOM      5  C   UNL     1      -2.212   1.176   0.410  0.00  0.00    +0.018 C 
ATOM      6  C   UNL     1      -0.751   0.806   0.635  0.00  0.00    +0.010 C 
ATOM      7  C   UNL     1      -0.586  -0.125   1.822  0.00  0.00    +0.032 C 
ATOM      8  C   UNL     1      -1.566   0.143   2.926  0.00  0.00    -0.055 C 
ATOM      9  C   UNL     1      -1.503  -0.688   3.992  0.00  0.00    +0.051 C 
ATOM     10  C   UNL     1      -2.447  -0.430   5.105  0.00  0.00    +0.179 C 
ATOM     11  O   UNL     1      -2.141  -0.616   6.273  0.00  0.00    -0.288 OA
ATOM     12  C   UNL     1      -3.789   0.065   4.712  0.00  0.00    +0.047 C 
ATOM     13  C   UNL     1      -3.841   0.871   3.629  0.00  0.00    -0.011 C 
ATOM     14  C   UNL     1      -2.581   1.234   2.914  0.00  0.00    +0.029 C 
ATOM     15  C   UNL     1      -2.758   1.946   1.604  0.00  0.00    +0.086 C 
ATOM     16  C   UNL     1      -4.190   2.365   1.293  0.00  0.00    +0.137 C 
ATOM     17  C   UNL     1      -5.065   1.161   0.965  0.00  0.00    +0.044 C 
ATOM     18  C   UNL     1      -4.542   0.408  -0.257  0.00  0.00    +0.021 C 
ATOM     19  C   UNL     1      -5.240  -0.972  -0.344  0.00  0.00    +0.180 C 
ATOM     20  C   UNL     1      -4.722   1.208  -1.550  0.00  0.00    +0.016 C 
ATOM     21 CL   UNL     1      -1.785   3.474   1.720  0.00  0.00    -0.114 Cl
ATOM     22  C   UNL     1      -1.951   2.317   3.809  0.00  0.00    +0.022 C 
ENDROOT
BRANCH  19  23
ATOM     23  C   UNL     1      -6.638  -0.935   0.208  0.00  0.00    +0.192 C 
ATOM     24  O   UNL     1      -6.820  -0.692   1.376  0.00  0.00    -0.292 OA
BRANCH  23  25
ATOM     25  C   UNL     1      -7.813  -1.203  -0.698  0.00  0.00    +0.187 C 
ATOM     26 CL   UNL     1      -9.346  -0.919   0.207  0.00  0.00    -0.117 Cl
ENDBRANCH  23  25
ENDBRANCH  19  23
BRANCH  16  27
ATOM     27  O   UNL     1      -4.750   3.127   2.360  0.00  0.00    -0.390 OA
ATOM     28  H   UNL     1      -5.661   3.413   2.203  0.00  0.00    +0.210 HD
ENDBRANCH  16  27
BRANCH  19  29
ATOM     29  O   UNL     1      -5.284  -1.404  -1.737  0.00  0.00    -0.444 OA
BRANCH  29  30
ATOM     30  C   UNL     1      -5.757  -2.644  -1.979  0.00  0.00    +0.376 C 
ATOM     31  O   UNL     1      -6.032  -3.382  -1.052  0.00  0.00    -0.241 OA
BRANCH  30  32
ATOM     32  C   UNL     1      -5.940  -3.102  -3.358  0.00  0.00    +0.211 A 
ATOM     33  C   UNL     1      -6.408  -4.326  -3.743  0.00  0.00    +0.056 A 
ATOM     34  C   UNL     1      -6.419  -4.332  -5.146  0.00  0.00    +0.042 A 
ATOM     35  C   UNL     1      -5.963  -3.126  -5.552  0.00  0.00    +0.196 A 
ATOM     36  O   UNL     1      -5.681  -2.386  -4.472  0.00  0.00    -0.456 OA
ENDBRANCH  30  32
ENDBRANCH  29  30
ENDBRANCH  19  29
TORSDOF 6
