REMARK  Name = ZINC59022355
REMARK  11 active torsions:
REMARK  status: ('A' for Active; 'I' for Inactive)
REMARK    1  A    between atoms: C_1  and  C_2
REMARK    2  A    between atoms: C_2  and  C_3
REMARK    3  A    between atoms: C_2  and  C_4
REMARK    4  A    between atoms: C_4  and  S_5
REMARK    5  A    between atoms: S_5  and  C_6
REMARK    6  A    between atoms: C_12  and  C_14
REMARK    7  A    between atoms: C_14  and  S_15
REMARK    8  A    between atoms: S_15  and  C_16
REMARK    9  A    between atoms: N_21  and  N_22
REMARK   10  A    between atoms: C_23  and  C_24
REMARK   11  A    between atoms: C_23  and  C_25
REMARK                            x       y       z     vdW  Elec       q    Type
REMARK                         _______ _______ _______ _____ _____    ______ ____
ROOT
ATOM      1  C   UNL     1       6.435  -7.044  -9.992  0.00  0.00    +0.211 A 
ATOM      2  N   UNL     1       6.124  -6.954 -11.289  0.00  0.00    -0.186 NA
ATOM      3  C   UNL     1       7.208  -6.686 -11.987  0.00  0.00    +0.232 A 
ATOM      4  N   UNL     1       8.246  -6.600 -11.129  0.00  0.00    -0.245 N 
ATOM      5  N   UNL     1       7.721  -6.829  -9.846  0.00  0.00    -0.144 NA
ATOM      6  N   UNL     1       7.271  -6.524 -13.359  0.00  0.00    -0.205 N 
ATOM      7  H   UNL     1       8.121  -6.328 -13.785  0.00  0.00    +0.177 HD
ATOM      8  H   UNL     1       9.171  -6.413 -11.353  0.00  0.00    +0.192 HD
ENDROOT
BRANCH   6   9
ATOM      9  N   UNL     1       6.110  -6.642 -14.133  0.00  0.00    -0.184 NA
ATOM     10  C   UNL     1       6.186  -6.603 -15.429  0.00  0.00    +0.063 C 
ATOM     11  C   UNL     1       4.929  -6.543 -16.257  0.00  0.00    +0.068 C 
BRANCH  10  12
ATOM     12  C   UNL     1       7.504  -6.618 -16.090  0.00  0.00    -0.002 A 
ATOM     13  C   UNL     1       8.545  -7.400 -15.556  0.00  0.00    +0.010 A 
ATOM     14  C   UNL     1       9.766  -7.430 -16.146  0.00  0.00    +0.009 A 
ATOM     15  C   UNL     1      10.005  -6.673 -17.308  0.00  0.00    -0.018 A 
ATOM     16  C   UNL     1      11.261  -6.688 -17.937  0.00  0.00    +0.008 A 
ATOM     17  C   UNL     1      11.463  -5.945 -19.060  0.00  0.00    +0.001 A 
ATOM     18  C   UNL     1      10.441  -5.166 -19.599  0.00  0.00    +0.001 A 
ATOM     19  C   UNL     1       9.211  -5.126 -19.018  0.00  0.00    +0.008 A 
ATOM     20  C   UNL     1       8.965  -5.880 -17.857  0.00  0.00    -0.017 A 
ATOM     21  C   UNL     1       7.707  -5.865 -17.236  0.00  0.00    +0.018 A 
ENDBRANCH  10  12
ENDBRANCH   6   9
BRANCH   1  22
ATOM     22  S   UNL     1       5.301  -7.387  -8.688  0.00  0.00    -0.075 S 
BRANCH  22  23
ATOM     23  C   UNL     1       6.329  -7.364  -7.194  0.00  0.00    +0.173 C 
BRANCH  23  30
ATOM     24  C   UNL     1       4.026  -8.409  -1.317  0.00  0.00    +0.160 A 
ATOM     25  N   UNL     1       3.360  -8.405  -2.462  0.00  0.00    -0.133 NA
ATOM     26  N   UNL     1       3.931  -8.184  -3.564  0.00  0.00    -0.125 NA
ATOM     27  C   UNL     1       5.229  -7.942  -3.646  0.00  0.00    +0.189 A 
ATOM     28  S   UNL     1       5.673  -8.042  -1.914  0.00  0.00    -0.024 S 
ATOM     29  N   UNL     1       6.023  -7.681  -4.760  0.00  0.00    -0.263 N 
ATOM     30  C   UNL     1       5.470  -7.647  -5.989  0.00  0.00    +0.229 C 
ATOM     31  O   UNL     1       4.281  -7.845  -6.124  0.00  0.00    -0.275 OA
ATOM     32  H   UNL     1       6.974  -7.522  -4.652  0.00  0.00    +0.157 HD
BRANCH  24  33
ATOM     33  S   UNL     1       3.453  -8.689   0.326  0.00  0.00    -0.097 S 
BRANCH  33  34
ATOM     34  C   UNL     1       1.677  -8.996   0.125  0.00  0.00    +0.079 C 
BRANCH  34  36
ATOM     35  C   UNL     1       1.144  -7.993   2.350  0.00  0.00    +0.008 C 
ATOM     36  C   UNL     1       1.046  -9.257   1.494  0.00  0.00    -0.007 C 
ATOM     37  C   UNL     1      -0.425  -9.638   1.313  0.00  0.00    +0.008 C 
ENDBRANCH  34  36
ENDBRANCH  33  34
ENDBRANCH  24  33
ENDBRANCH  23  30
ENDBRANCH  22  23
ENDBRANCH   1  22
TORSDOF 8
