REMARK  Name = ZINC36126568
REMARK  7 active torsions:
REMARK  status: ('A' for Active; 'I' for Inactive)
REMARK    1  A    between atoms: C_1  and  C_2
REMARK    2  A    between atoms: C_4  and  O_24
REMARK    3  A    between atoms: C_5  and  C_23
REMARK    4  A    between atoms: C_7  and  S_8
REMARK    5  A    between atoms: S_8  and  N_11
REMARK    6  A    between atoms: N_11  and  C_12
REMARK    7  A    between atoms: O_24  and  C_25
REMARK                            x       y       z     vdW  Elec       q    Type
REMARK                         _______ _______ _______ _____ _____    ______ ____
ROOT
ATOM      1  N   UNL     1       1.176   1.032   2.914  0.00  0.00    -0.213 N 
ATOM      2  H   UNL     1       1.870   0.868   3.572  0.00  0.00    +0.174 HD
ENDROOT
BRANCH   1   3
ATOM      3  C   UNL     1       1.215   2.192   2.131  0.00  0.00    +0.091 A 
ATOM      4  C   UNL     1       0.035   2.830   1.772  0.00  0.00    +0.028 A 
ATOM      5  C   UNL     1       0.072   3.976   0.999  0.00  0.00    +0.004 A 
ATOM      6  C   UNL     1       1.283   4.493   0.578  0.00  0.00    +0.027 A 
ATOM      7  C   UNL     1       2.466   3.862   0.932  0.00  0.00    +0.078 A 
ATOM      8  C   UNL     1       2.434   2.711   1.714  0.00  0.00    +0.164 A 
ATOM      9  O   UNL     1       3.602   2.102   2.057  0.00  0.00    -0.479 OA
ATOM     10  C   UNL     1       4.670   2.180   1.110  0.00  0.00    +0.325 C 
ATOM     11  C   UNL     1       4.801   3.597   0.610  0.00  0.00    +0.255 C 
ATOM     12  O   UNL     1       5.886   4.031   0.287  0.00  0.00    -0.272 OA
ATOM     13  N   UNL     1       3.703   4.373   0.514  0.00  0.00    -0.280 N 
ATOM     14  H   UNL     1       3.771   5.278   0.171  0.00  0.00    +0.155 HD
ENDBRANCH   1   3
BRANCH   1  15
ATOM     15  S   UNL     1      -0.054  -0.059   2.718  0.00  0.00    +0.073 S 
ATOM     16  O   UNL     1      -1.267   0.669   2.851  0.00  0.00    -0.150 OA
ATOM     17  O   UNL     1       0.259  -1.175   3.539  0.00  0.00    -0.150 OA
BRANCH  15  24
ATOM     18  C   UNL     1       2.250  -1.631   1.552  0.00  0.00    +0.046 C 
ATOM     19  C   UNL     1       1.112  -1.339   0.608  0.00  0.00    -0.020 A 
ATOM     20  C   UNL     1       1.164  -1.789  -0.697  0.00  0.00    +0.051 A 
ATOM     21  C   UNL     1       0.116  -1.520  -1.565  0.00  0.00    +0.123 A 
ATOM     22  C   UNL     1      -0.983  -0.799  -1.119  0.00  0.00    -0.007 A 
ATOM     23  C   UNL     1      -1.031  -0.351   0.186  0.00  0.00    +0.036 A 
ATOM     24  C   UNL     1       0.013  -0.625   1.051  0.00  0.00    +0.112 A 
ATOM     25  C   UNL     1      -2.123  -0.505  -2.060  0.00  0.00    +0.047 C 
BRANCH  21  26
ATOM     26  O   UNL     1       0.165  -1.962  -2.849  0.00  0.00    -0.495 OA
ATOM     27  C   UNL     1       1.327  -2.696  -3.238  0.00  0.00    +0.277 C 
ENDBRANCH  21  26
ENDBRANCH  15  24
ENDBRANCH   1  15
TORSDOF 4
