REMARK  Name = ZINC19848420
REMARK  8 active torsions:
REMARK  status: ('A' for Active; 'I' for Inactive)
REMARK    1  A    between atoms: C_1  and  C_2
REMARK    2  A    between atoms: C_5  and  N_8
REMARK    3  A    between atoms: C_9  and  C_13
REMARK    4  A    between atoms: C_13  and  N_19
REMARK    5  A    between atoms: N_19  and  C_20
REMARK    6  A    between atoms: C_20  and  C_21
REMARK    7  A    between atoms: C_21  and  C_22
REMARK    8  A    between atoms: C_23  and  C_34
REMARK                            x       y       z     vdW  Elec       q    Type
REMARK                         _______ _______ _______ _____ _____    ______ ____
ROOT
ATOM      1  C   UNL     1       1.511  -4.550   2.067  0.00  0.00    +0.081 C 
ATOM      2  C   UNL     1       0.552  -3.916   3.076  0.00  0.00    +0.030 C 
ATOM      3  C   UNL     1       1.343  -3.415   4.286  0.00  0.00    +0.002 C 
ATOM      4  C   UNL     1       2.070  -4.591   4.942  0.00  0.00    +0.000 C 
ATOM      5  C   UNL     1       3.029  -5.226   3.933  0.00  0.00    +0.002 C 
ATOM      6  C   UNL     1       2.237  -5.726   2.723  0.00  0.00    +0.030 C 
ENDROOT
BRANCH   1   8
ATOM      7  N   UNL     1       1.201  -5.828  -0.120  0.00  0.00    -0.195 N 
ATOM      8  C   UNL     1       0.732  -5.043   0.875  0.00  0.00    +0.176 A 
ATOM      9  N   UNL     1      -0.523  -4.791   0.611  0.00  0.00    -0.111 NA
ATOM     10  N   UNL     1      -0.880  -5.363  -0.482  0.00  0.00    -0.023 NA
ATOM     11  N   UNL     1       0.113  -6.008  -0.992  0.00  0.00    -0.039 NA
BRANCH   7  16
ATOM     12  C   UNL     1       6.446  -7.928  -0.672  0.00  0.00    +0.044 C 
ATOM     13  C   UNL     1       5.053  -7.370  -0.526  0.00  0.00    -0.050 A 
ATOM     14  C   UNL     1       3.958  -8.196  -0.699  0.00  0.00    +0.005 A 
ATOM     15  C   UNL     1       2.680  -7.688  -0.564  0.00  0.00    +0.028 A 
ATOM     16  C   UNL     1       2.497  -6.347  -0.256  0.00  0.00    +0.069 A 
ATOM     17  C   UNL     1       3.599  -5.520  -0.083  0.00  0.00    +0.028 A 
ATOM     18  C   UNL     1       4.874  -6.035  -0.213  0.00  0.00    +0.005 A 
ENDBRANCH   7  16
ENDBRANCH   1   8
BRANCH   1  19
ATOM     19  N   UNL     1       2.494  -3.550   1.629  0.00  0.00    -0.304 NA
ATOM     20  H   UNL     1       3.059  -3.236   2.404  0.00  0.00    +0.123 HD
BRANCH  19  21
ATOM     21  C   UNL     1       1.834  -2.418   0.966  0.00  0.00    +0.086 C 
BRANCH  21  22
ATOM     22  C   UNL     1       2.894  -1.460   0.418  0.00  0.00    +0.052 C 
BRANCH  22  23
ATOM     23  C   UNL     1       2.219  -0.241  -0.157  0.00  0.00    -0.018 A 
ATOM     24  C   UNL     1       1.725  -0.113  -1.399  0.00  0.00    +0.017 A 
ATOM     25  N   UNL     1       1.188   1.135  -1.561  0.00  0.00    -0.357 N 
ATOM     26  H   UNL     1       0.771   1.461  -2.374  0.00  0.00    +0.166 HD
ATOM     27  C   UNL     1       1.326   1.859  -0.397  0.00  0.00    +0.067 A 
ATOM     28  C   UNL     1       1.972   1.027   0.535  0.00  0.00    +0.005 A 
ATOM     29  C   UNL     1       2.243   1.499   1.821  0.00  0.00    +0.012 A 
ATOM     30  C   UNL     1       1.876   2.768   2.170  0.00  0.00    +0.022 A 
ATOM     31  C   UNL     1       1.234   3.593   1.255  0.00  0.00    +0.061 A 
ATOM     32  C   UNL     1       0.964   3.149  -0.023  0.00  0.00    +0.083 A 
ATOM     33 CL   UNL     1       0.159   4.191  -1.155  0.00  0.00    -0.080 Cl
ATOM     34 CL   UNL     1       0.777   5.201   1.722  0.00  0.00    -0.082 Cl
ATOM     35  C   UNL     1       1.759  -1.185  -2.458  0.00  0.00    +0.063 C 
ENDBRANCH  22  23
ENDBRANCH  21  22
ENDBRANCH  19  21
ENDBRANCH   1  19
TORSDOF 6
