REMARK  Name = ZINC08789670
REMARK  4 active torsions:
REMARK  status: ('A' for Active; 'I' for Inactive)
REMARK    1  A    between atoms: C_12  and  C_14
REMARK    2  A    between atoms: C_14  and  C_15
REMARK    3  A    between atoms: C_15  and  C_16
REMARK    4  A    between atoms: N_21  and  C_24
REMARK                            x       y       z     vdW  Elec       q    Type
REMARK                         _______ _______ _______ _____ _____    ______ ____
ROOT
ATOM      1  C   UNL     1      -1.740  12.100   0.773  0.00  0.00    +0.000 A 
ATOM      2  C   UNL     1      -3.073  12.209   1.124  0.00  0.00    +0.002 A 
ATOM      3  C   UNL     1      -3.786  11.092   1.507  0.00  0.00    +0.023 A 
ATOM      4  C   UNL     1      -3.168   9.844   1.544  0.00  0.00    +0.036 A 
ATOM      5  C   UNL     1      -1.826   9.747   1.188  0.00  0.00    -0.028 A 
ATOM      6  C   UNL     1      -1.118  10.864   0.806  0.00  0.00    +0.004 A 
ATOM      7  C   UNL     1      -1.469   8.294   1.331  0.00  0.00    +0.050 C 
ATOM      8  C   UNL     1      -0.970   7.705   0.006  0.00  0.00    +0.088 C 
ATOM      9  C   UNL     1       0.580   7.747   0.119  0.00  0.00    +0.073 C 
ATOM     10  C   UNL     1       0.859   8.367   1.505  0.00  0.00    -0.057 C 
ATOM     11  C   UNL     1       0.969   6.287   0.137  0.00  0.00    +0.228 C 
ATOM     12  O   UNL     1       2.102   5.865   0.223  0.00  0.00    -0.275 OA
ATOM     13  N   UNL     1      -0.132   5.532   0.044  0.00  0.00    -0.210 N 
ATOM     14  C   UNL     1      -1.274   6.224  -0.042  0.00  0.00    +0.229 C 
ATOM     15  O   UNL     1      -2.381   5.739  -0.141  0.00  0.00    -0.275 OA
ATOM     16  C   UNL     1      -2.733   7.624   1.792  0.00  0.00    +0.211 C 
ATOM     17  O   UNL     1      -2.882   6.443   2.030  0.00  0.00    -0.277 OA
ATOM     18  N   UNL     1      -3.669   8.588   1.891  0.00  0.00    -0.286 N 
ATOM     19  H   UNL     1      -4.584   8.427   2.171  0.00  0.00    +0.155 HD
ATOM     20  N   UNL     1      -0.368   8.111   2.261  0.00  0.00    +0.394 N 
ATOM     21  H   UNL     1      -0.368   7.151   2.626  0.00  0.00    -0.083 HD
ATOM     22  H   UNL     1      -0.449   8.773   3.042  0.00  0.00    -0.083 HD
ENDROOT
BRANCH  13  23
ATOM     23  C   UNL     1      -0.092   4.130   0.032  0.00  0.00    +0.048 A 
ATOM     24  C   UNL     1      -0.449   3.435  -1.116  0.00  0.00    +0.028 A 
ATOM     25  C   UNL     1      -0.415   2.054  -1.127  0.00  0.00    +0.051 A 
ATOM     26  C   UNL     1      -0.016   1.358   0.005  0.00  0.00    +0.162 A 
ATOM     27  C   UNL     1       0.344   2.051   1.155  0.00  0.00    +0.164 A 
ATOM     28  C   UNL     1       0.304   3.437   1.166  0.00  0.00    +0.073 A 
ATOM     29  O   UNL     1       0.738   1.386   2.275  0.00  0.00    -0.485 OA
ATOM     30  C   UNL     1       0.408  -0.006   2.346  0.00  0.00    +0.270 C 
ATOM     31  C   UNL     1       0.768  -0.654   1.003  0.00  0.00    +0.270 C 
ATOM     32  O   UNL     1       0.013  -0.004  -0.025  0.00  0.00    -0.485 OA
ENDBRANCH  13  23
BRANCH  10  33
ATOM     33  C   UNL     1       2.069   7.692   2.155  0.00  0.00    -0.006 C 
BRANCH  33  34
ATOM     34  C   UNL     1       2.405   8.402   3.468  0.00  0.00    +0.094 C 
BRANCH  34  35
ATOM     35  C   UNL     1       3.596   7.738   4.108  0.00  0.00    +0.210 C 
ATOM     36  O   UNL     1       4.125   6.790   3.567  0.00  0.00    -0.276 OA
ATOM     37  N   UNL     1       4.074   8.197   5.282  0.00  0.00    -0.329 N 
ATOM     38  H   UNL     1       3.651   8.955   5.714  0.00  0.00    +0.145 HD
ATOM     39  H   UNL     1       4.841   7.770   5.694  0.00  0.00    +0.145 HD
ENDBRANCH  34  35
ENDBRANCH  33  34
ENDBRANCH  10  33
TORSDOF 4
