REMARK  Name = ZINC14650283
REMARK  10 active torsions:
REMARK  status: ('A' for Active; 'I' for Inactive)
REMARK    1  A    between atoms: C_1  and  C_2
REMARK    2  A    between atoms: C_2  and  C_3
REMARK    3  A    between atoms: C_3  and  C_4
REMARK    4  A    between atoms: C_4  and  O_5
REMARK    5  A    between atoms: O_5  and  C_6
REMARK    6  A    between atoms: C_11  and  C_12
REMARK    7  A    between atoms: N_14  and  C_15
REMARK    8  A    between atoms: C_15  and  N_17
REMARK    9  A    between atoms: N_17  and  N_18
REMARK   10  A    between atoms: C_19  and  C_21
REMARK                            x       y       z     vdW  Elec       q    Type
REMARK                         _______ _______ _______ _____ _____    ______ ____
ROOT
ATOM      1  C   UNL     1       4.664   3.944  -0.021  0.00  0.00    +0.253 C 
ATOM      2  O   UNL     1       5.724   3.351  -0.035  0.00  0.00    -0.270 OA
ATOM      3  N   UNL     1       3.506   3.255  -0.014  0.00  0.00    -0.263 N 
ATOM      4  H   UNL     1       2.659   3.728  -0.003  0.00  0.00    +0.157 HD
ENDROOT
BRANCH   1  10
ATOM      5  C   UNL     1       5.846   6.140  -0.021  0.00  0.00    +0.133 A 
ATOM      6  C   UNL     1       5.815   7.527  -0.013  0.00  0.00    +0.047 A 
ATOM      7  C   UNL     1       4.606   8.193   0.002  0.00  0.00    +0.019 A 
ATOM      8  C   UNL     1       3.415   7.483   0.009  0.00  0.00    +0.019 A 
ATOM      9  C   UNL     1       3.426   6.105  -0.004  0.00  0.00    +0.032 A 
ATOM     10  C   UNL     1       4.644   5.419  -0.013  0.00  0.00    +0.080 A 
ATOM     11 BR   UNL     1       1.767   8.411   0.029  0.00  0.00    -0.050 Br
BRANCH   5  12
ATOM     12  O   UNL     1       7.033   5.485  -0.035  0.00  0.00    -0.491 OA
BRANCH  12  13
ATOM     13  C   UNL     1       8.216   6.286  -0.042  0.00  0.00    +0.229 C 
BRANCH  13  14
ATOM     14  C   UNL     1       9.447   5.378  -0.058  0.00  0.00    +0.041 C 
BRANCH  14  16
ATOM     15  C   UNL     1      11.945   5.328  -0.082  0.00  0.00    +0.004 C 
ATOM     16  C   UNL     1      10.714   6.236  -0.066  0.00  0.00    -0.000 C 
ENDBRANCH  14  16
ENDBRANCH  13  14
ENDBRANCH  12  13
ENDBRANCH   5  12
ENDBRANCH   1  10
BRANCH   3  17
ATOM     17  C   UNL     1       3.524   1.907  -0.021  0.00  0.00    +0.153 C 
ATOM     18  S   UNL     1       5.018   1.071  -0.040  0.00  0.00    -0.017 S 
BRANCH  17  19
ATOM     19  N   UNL     1       2.366   1.217  -0.014  0.00  0.00    -0.245 N 
ATOM     20  H   UNL     1       2.379   0.247  -0.019  0.00  0.00    +0.172 HD
BRANCH  19  21
ATOM     21  N   UNL     1       1.143   1.901   0.001  0.00  0.00    -0.231 N 
ATOM     22  C   UNL     1      -0.014   1.211   0.009  0.00  0.00    +0.260 C 
ATOM     23  O   UNL     1       0.002  -0.004   0.002  0.00  0.00    -0.269 OA
ATOM     24  H   UNL     1       1.130   2.871   0.007  0.00  0.00    +0.173 HD
BRANCH  22  25
ATOM     25  C   UNL     1      -1.304   1.933   0.019  0.00  0.00    +0.038 A 
ATOM     26  C   UNL     1      -1.326   3.329   0.032  0.00  0.00    +0.014 A 
ATOM     27  C   UNL     1      -2.533   3.996   0.035  0.00  0.00    +0.021 A 
ATOM     28  C   UNL     1      -3.721   3.285   0.037  0.00  0.00    +0.041 A 
ATOM     29  C   UNL     1      -3.706   1.900   0.030  0.00  0.00    +0.021 A 
ATOM     30  C   UNL     1      -2.505   1.221   0.021  0.00  0.00    +0.014 A 
ATOM     31 CL   UNL     1      -5.236   4.132   0.048  0.00  0.00    -0.084 Cl
ENDBRANCH  22  25
ENDBRANCH  19  21
ENDBRANCH  17  19
ENDBRANCH   3  17
TORSDOF 9
