REMARK  Name = ZINC67250985
REMARK  7 active torsions:
REMARK  status: ('A' for Active; 'I' for Inactive)
REMARK    1  A    between atoms: C_1  and  C_2
REMARK    2  A    between atoms: C_2  and  C_4
REMARK    3  A    between atoms: C_2  and  N_15
REMARK    4  A    between atoms: C_8  and  S_10
REMARK    5  A    between atoms: S_10  and  N_13
REMARK    6  A    between atoms: N_13  and  C_14
REMARK    7  A    between atoms: N_18  and  C_19
REMARK                            x       y       z     vdW  Elec       q    Type
REMARK                         _______ _______ _______ _____ _____    ______ ____
ROOT
ATOM      1  N   UNL     1       0.684  -0.493  -1.199  0.00  0.00    -0.293 N 
ATOM      2  C   UNL     1       0.005  -0.612  -2.357  0.00  0.00    +0.304 C 
ATOM      3  O   UNL     1      -1.177  -0.332  -2.401  0.00  0.00    -0.252 OA
ATOM      4  N   UNL     1       0.637  -1.043  -3.467  0.00  0.00    -0.267 N 
ATOM      5  H   UNL     1       1.628  -0.717  -1.165  0.00  0.00    +0.151 HD
ATOM      6  H   UNL     1       1.596  -1.188  -3.454  0.00  0.00    +0.156 HD
ENDROOT
BRANCH   4   7
ATOM      7  C   UNL     1      -0.092  -1.280  -4.641  0.00  0.00    +0.073 A 
ATOM      8  C   UNL     1      -1.446  -1.579  -4.570  0.00  0.00    +0.029 A 
ATOM      9  C   UNL     1      -2.163  -1.812  -5.727  0.00  0.00    +0.043 A 
ATOM     10  C   UNL     1      -1.535  -1.750  -6.959  0.00  0.00    +0.161 A 
ATOM     11  C   UNL     1      -0.183  -1.451  -7.035  0.00  0.00    +0.195 A 
ATOM     12  C   UNL     1       0.538  -1.210  -5.878  0.00  0.00    +0.182 A 
ATOM     13  F   UNL     1       1.854  -0.914  -5.950  0.00  0.00    -0.200 F 
ATOM     14  F   UNL     1       0.429  -1.390  -8.238  0.00  0.00    -0.199 F 
ATOM     15  F   UNL     1      -2.240  -1.979  -8.088  0.00  0.00    -0.202 F 
ENDBRANCH   4   7
BRANCH   1  17
ATOM     16  C   UNL     1      -0.014   1.504   0.027  0.00  0.00    +0.033 C 
ATOM     17  C   UNL     1      -0.002  -0.025   0.008  0.00  0.00    +0.102 C 
BRANCH  17  18
ATOM     18  C   UNL     1       0.720  -0.538   1.227  0.00  0.00    -0.026 A 
ATOM     19  C   UNL     1       2.103  -0.556   1.255  0.00  0.00    +0.005 A 
ATOM     20  C   UNL     1       2.765  -1.026   2.373  0.00  0.00    +0.002 A 
ATOM     21  C   UNL     1       2.046  -1.477   3.464  0.00  0.00    +0.028 A 
ATOM     22  C   UNL     1       0.664  -1.457   3.437  0.00  0.00    +0.106 A 
ATOM     23  C   UNL     1       0.001  -0.983   2.320  0.00  0.00    +0.034 A 
BRANCH  22  24
ATOM     24  S   UNL     1      -0.253  -2.032   4.827  0.00  0.00    +0.058 S 
ATOM     25  O   UNL     1      -1.531  -2.418   4.340  0.00  0.00    -0.153 OA
ATOM     26  O   UNL     1       0.596  -2.928   5.531  0.00  0.00    -0.153 OA
BRANCH  24  27
ATOM     27  N   UNL     1      -0.499  -0.732   5.823  0.00  0.00    -0.193 NA
ATOM     28  C   UNL     1      -1.322   0.392   5.370  0.00  0.00    +0.127 C 
ATOM     29  H   UNL     1      -0.098  -0.715   6.706  0.00  0.00    +0.148 HD
ENDBRANCH  24  27
ENDBRANCH  22  24
ENDBRANCH  17  18
ENDBRANCH   1  17
TORSDOF 5
