REMARK  Name = ZINC40877060
REMARK  9 active torsions:
REMARK  status: ('A' for Active; 'I' for Inactive)
REMARK    1  A    between atoms: C_1  and  C_2
REMARK    2  A    between atoms: C_6  and  N_8
REMARK    3  A    between atoms: C_13  and  C_15
REMARK    4  A    between atoms: C_16  and  C_18
REMARK    5  A    between atoms: N_23  and  C_25
REMARK    6  A    between atoms: C_28  and  C_32
REMARK    7  A    between atoms: C_34  and  C_37
REMARK    8  A    between atoms: C_37  and  C_38
REMARK    9  A    between atoms: C_37  and  C_39
REMARK                            x       y       z     vdW  Elec       q    Type
REMARK                         _______ _______ _______ _____ _____    ______ ____
ROOT
ATOM      1  C   UNL     1       1.273  -4.050   6.928  0.00  0.00    +0.092 C 
ATOM      2  C   UNL     1       2.439  -3.059   6.961  0.00  0.00    +0.016 C 
ATOM      3  C   UNL     1       2.411  -2.280   8.278  0.00  0.00    +0.020 C 
ATOM      4  C   UNL     1       2.573  -3.256   9.448  0.00  0.00    +0.105 C 
ATOM      5  N   UNL     1       1.541  -4.297   9.341  0.00  0.00    -0.327 N 
ATOM      6  C   UNL     1       1.421  -5.046   8.082  0.00  0.00    +0.118 C 
ENDROOT
BRANCH   1  14
ATOM      7  N   UNL     1      -0.629  -3.087   2.560  0.00  0.00    -0.324 N 
ATOM      8  C   UNL     1      -0.517  -2.355   3.829  0.00  0.00    +0.124 C 
ATOM      9  C   UNL     1       0.840  -2.680   4.464  0.00  0.00    +0.126 C 
ATOM     10  N   UNL     1       1.020  -4.138   4.469  0.00  0.00    -0.298 N 
ATOM     11  C   UNL     1       0.908  -4.870   3.199  0.00  0.00    +0.130 C 
ATOM     12  C   UNL     1      -0.456  -4.546   2.566  0.00  0.00    +0.088 C 
ATOM     13  C   UNL     1      -1.574  -5.193   3.385  0.00  0.00    +0.029 C 
ATOM     14  C   UNL     1       1.282  -4.793   5.617  0.00  0.00    +0.220 C 
ATOM     15  O   UNL     1       1.526  -5.981   5.596  0.00  0.00    -0.275 OA
BRANCH   7  21
ATOM     16  C   UNL     1      -1.146  -3.158  -2.327  0.00  0.00    +0.044 C 
ATOM     17  C   UNL     1      -1.159  -2.417  -1.014  0.00  0.00    -0.049 A 
ATOM     18  C   UNL     1      -1.441  -1.063  -0.988  0.00  0.00    +0.003 A 
ATOM     19  C   UNL     1      -1.454  -0.380   0.214  0.00  0.00    +0.002 A 
ATOM     20  C   UNL     1      -1.185  -1.048   1.393  0.00  0.00    +0.023 A 
ATOM     21  C   UNL     1      -0.902  -2.408   1.370  0.00  0.00    +0.030 A 
ATOM     22  C   UNL     1      -0.895  -3.092   0.161  0.00  0.00    +0.026 A 
ENDBRANCH   7  21
ENDBRANCH   1  14
BRANCH   5  23
ATOM     23  C   UNL     1       0.692  -4.570  10.414  0.00  0.00    +0.065 A 
ATOM     24  C   UNL     1      -0.516  -3.892  10.533  0.00  0.00    +0.027 A 
ATOM     25  C   UNL     1      -1.356  -4.160  11.592  0.00  0.00    +0.013 A 
ATOM     26  C   UNL     1      -0.996  -5.112  12.545  0.00  0.00    +0.025 A 
ATOM     27  C   UNL     1       0.216  -5.792  12.425  0.00  0.00    +0.052 A 
ATOM     28  C   UNL     1       1.052  -5.525  11.361  0.00  0.00    +0.145 A 
ATOM     29  F   UNL     1       2.224  -6.187  11.241  0.00  0.00    -0.204 F 
BRANCH  26  30
ATOM     30  C   UNL     1      -1.899  -5.400  13.685  0.00  0.00    +0.202 A 
ATOM     31  N   UNL     1      -1.663  -6.288  14.669  0.00  0.00    -0.191 NA
ATOM     32  C   UNL     1      -2.657  -6.295  15.511  0.00  0.00    +0.230 A 
ATOM     33  O   UNL     1      -3.571  -5.408  15.097  0.00  0.00    -0.337 OA
ATOM     34  N   UNL     1      -3.058  -4.829  13.906  0.00  0.00    -0.056 NA
BRANCH  32  35
ATOM     35  C   UNL     1      -2.761  -7.156  16.743  0.00  0.00    +0.072 C 
ATOM     36  C   UNL     1      -2.876  -6.264  17.981  0.00  0.00    +0.017 C 
ATOM     37  C   UNL     1      -4.000  -8.047  16.639  0.00  0.00    +0.017 C 
ENDBRANCH  32  35
ENDBRANCH  26  30
ENDBRANCH   5  23
TORSDOF 5
