REMARK  Name = ZINC09831191
REMARK  7 active torsions:
REMARK  status: ('A' for Active; 'I' for Inactive)
REMARK    1  A    between atoms: C_1  and  C_2
REMARK    2  A    between atoms: C_2  and  C_3
REMARK    3  A    between atoms: C_2  and  C_4
REMARK    4  A    between atoms: C_7  and  N_10
REMARK    5  A    between atoms: C_11  and  C_13
REMARK    6  A    between atoms: N_16  and  S_19
REMARK    7  A    between atoms: S_19  and  C_22
REMARK                            x       y       z     vdW  Elec       q    Type
REMARK                         _______ _______ _______ _____ _____    ______ ____
ROOT
ATOM      1  C   UNL     1       2.389  10.036   3.708  0.00  0.00    +0.078 C 
ATOM      2  C   UNL     1       3.283   9.891   2.475  0.00  0.00    +0.030 C 
ATOM      3  C   UNL     1       3.090   8.497   1.870  0.00  0.00    +0.110 C 
ATOM      4  N   UNL     1       1.660   8.289   1.606  0.00  0.00    -0.177 NA
ATOM      5  C   UNL     1       0.702   8.497   2.701  0.00  0.00    +0.110 C 
ATOM      6  C   UNL     1       0.922   9.886   3.298  0.00  0.00    +0.030 C 
ENDROOT
BRANCH   1   8
ATOM      7  N   UNL     1       1.915  11.746   5.431  0.00  0.00    -0.285 N 
ATOM      8  C   UNL     1       2.601  11.394   4.326  0.00  0.00    +0.220 C 
ATOM      9  O   UNL     1       3.389  12.170   3.828  0.00  0.00    -0.275 OA
ATOM     10  H   UNL     1       1.236  11.154   5.790  0.00  0.00    +0.155 HD
BRANCH   7  14
ATOM     11  C   UNL     1       2.707  15.383   7.304  0.00  0.00    -0.045 A 
ATOM     12  C   UNL     1       2.784  15.285   5.926  0.00  0.00    +0.006 A 
ATOM     13  C   UNL     1       2.523  14.081   5.303  0.00  0.00    +0.023 A 
ATOM     14  C   UNL     1       2.181  12.968   6.060  0.00  0.00    +0.033 A 
ATOM     15  C   UNL     1       2.098  13.071   7.442  0.00  0.00    +0.023 A 
ATOM     16  C   UNL     1       2.367  14.276   8.061  0.00  0.00    +0.006 A 
BRANCH  11  18
ATOM     17  C   UNL     1       1.759  17.149   8.763  0.00  0.00    +0.012 C 
ATOM     18  C   UNL     1       2.994  16.698   7.981  0.00  0.00    +0.013 C 
ATOM     19  C   UNL     1       4.173  16.530   8.943  0.00  0.00    +0.012 C 
ENDBRANCH  11  18
ENDBRANCH   7  14
ENDBRANCH   1   8
BRANCH   4  20
ATOM     20  S   UNL     1       1.136   7.837   0.102  0.00  0.00    +0.061 S 
ATOM     21  O   UNL     1       2.133   8.259  -0.819  0.00  0.00    -0.153 OA
ATOM     22  O   UNL     1      -0.219   8.253   0.002  0.00  0.00    -0.153 OA
BRANCH  20  23
ATOM     23  C   UNL     1       1.127   6.075   0.062  0.00  0.00    +0.106 A 
ATOM     24  C   UNL     1       2.254   5.388  -0.349  0.00  0.00    +0.030 A 
ATOM     25  C   UNL     1       2.251   4.008  -0.382  0.00  0.00    +0.025 A 
ATOM     26  C   UNL     1       1.112   3.309  -0.002  0.00  0.00    +0.037 A 
ATOM     27  C   UNL     1      -0.019   4.002   0.410  0.00  0.00    -0.024 A 
ATOM     28  C   UNL     1      -0.009   5.383   0.441  0.00  0.00    +0.034 A 
ATOM     29  C   UNL     1      -1.253   3.244   0.823  0.00  0.00    +0.046 C 
ATOM     30  C   UNL     1      -1.377   1.972  -0.022  0.00  0.00    +0.101 C 
ATOM     31  C   UNL     1      -0.063   1.238  -0.030  0.00  0.00    +0.218 C 
ATOM     32  O   UNL     1      -0.054   0.025  -0.041  0.00  0.00    -0.275 OA
ATOM     33  N   UNL     1       1.102   1.912  -0.032  0.00  0.00    -0.285 N 
ATOM     34  H   UNL     1       1.940   1.424  -0.054  0.00  0.00    +0.155 HD
ENDBRANCH  20  23
ENDBRANCH   4  20
TORSDOF 5
