REMARK  Name = ZINC37581506
REMARK  11 active torsions:
REMARK  status: ('A' for Active; 'I' for Inactive)
REMARK    1  A    between atoms: C_1  and  C_2
REMARK    2  A    between atoms: C_2  and  C_4
REMARK    3  A    between atoms: C_2  and  N_8
REMARK    4  A    between atoms: C_4  and  C_5
REMARK    5  A    between atoms: C_5  and  C_6
REMARK    6  A    between atoms: C_5  and  C_7
REMARK    7  A    between atoms: N_8  and  S_9
REMARK    8  A    between atoms: S_9  and  C_12
REMARK    9  A    between atoms: C_17  and  C_18
REMARK   10  A    between atoms: C_19  and  C_20
REMARK   11  A    between atoms: C_20  and  N_21
REMARK                            x       y       z     vdW  Elec       q    Type
REMARK                         _______ _______ _______ _____ _____    ______ ____
ROOT
ATOM      1  C   UNL     1       2.883   1.119   1.287  0.00  0.00    +0.121 A 
ATOM      2  C   UNL     1       3.443   1.682   0.158  0.00  0.00    +0.032 A 
ATOM      3  C   UNL     1       3.936   2.973   0.196  0.00  0.00    +0.040 A 
ATOM      4  C   UNL     1       3.872   3.711   1.368  0.00  0.00    +0.125 A 
ATOM      5  C   UNL     1       3.314   3.158   2.505  0.00  0.00    +0.057 A 
ATOM      6  C   UNL     1       2.810   1.858   2.468  0.00  0.00    +0.054 A 
ATOM      7  F   UNL     1       4.357   4.971   1.399  0.00  0.00    -0.205 F 
ENDROOT
BRANCH   1   8
ATOM      8  S   UNL     1       2.256  -0.526   1.234  0.00  0.00    +0.060 S 
ATOM      9  O   UNL     1       2.809  -1.208   2.351  0.00  0.00    -0.153 OA
ATOM     10  O   UNL     1       2.428  -0.984  -0.100  0.00  0.00    -0.153 OA
BRANCH   8  11
ATOM     11  N   UNL     1       0.623  -0.436   1.495  0.00  0.00    -0.187 NA
ATOM     12  H   UNL     1       0.237  -0.826   2.296  0.00  0.00    +0.148 HD
BRANCH  11  14
ATOM     13  C   UNL     1      -0.483   1.678   0.959  0.00  0.00    +0.025 C 
ATOM     14  C   UNL     1      -0.240   0.233   0.519  0.00  0.00    +0.074 C 
BRANCH  14  15
ATOM     15  C   UNL     1      -1.577  -0.504   0.429  0.00  0.00    +0.023 C 
BRANCH  15  16
ATOM     16  C   UNL     1      -1.343  -1.922  -0.097  0.00  0.00    -0.016 C 
ATOM     17  C   UNL     1      -2.656  -2.707  -0.050  0.00  0.00    +0.007 C 
ATOM     18  C   UNL     1      -0.840  -1.855  -1.540  0.00  0.00    +0.007 C 
ENDBRANCH  15  16
ENDBRANCH  14  15
ENDBRANCH  11  14
ENDBRANCH   8  11
ENDBRANCH   1   8
BRANCH   6  19
ATOM     19  C   UNL     1       2.225   1.281   3.641  0.00  0.00    -0.066 C 
ATOM     20  C   UNL     1       1.745   0.807   4.602  0.00  0.00    -0.117 C 
BRANCH  20  21
ATOM     21  C   UNL     1       1.143   0.214   5.808  0.00  0.00    +0.005 C 
BRANCH  21  22
ATOM     22  N   UNL     1       1.188   1.188   6.907  0.00  0.00    +0.385 N 
ATOM     23  H   UNL     1       0.775   0.782   7.733  0.00  0.00    -0.089 HD
ATOM     24  H   UNL     1       2.147   1.437   7.097  0.00  0.00    -0.089 HD
ATOM     25  H   UNL     1       0.671   2.014   6.645  0.00  0.00    -0.089 HD
ENDBRANCH  21  22
ENDBRANCH  20  21
ENDBRANCH   6  19
TORSDOF 8
