REMARK  Name = ZINC32986909
REMARK  7 active torsions:
REMARK  status: ('A' for Active; 'I' for Inactive)
REMARK    1  A    between atoms: C_3  and  C_24
REMARK    2  A    between atoms: C_6  and  C_7
REMARK    3  A    between atoms: C_12  and  C_20
REMARK    4  A    between atoms: C_24  and  O_26
REMARK    5  A    between atoms: O_26  and  C_27
REMARK    6  A    between atoms: C_27  and  C_28
REMARK    7  A    between atoms: N_30  and  C_31
REMARK                            x       y       z     vdW  Elec       q    Type
REMARK                         _______ _______ _______ _____ _____    ______ ____
ROOT
ATOM      1  C   UNL     1       0.055   5.743   2.711  0.00  0.00    +0.007 A 
ATOM      2  C   UNL     1       0.198   5.644   4.080  0.00  0.00    +0.015 A 
ATOM      3  C   UNL     1       1.456   5.814   4.661  0.00  0.00    +0.059 A 
ATOM      4  C   UNL     1       2.562   6.078   3.852  0.00  0.00    +0.015 A 
ATOM      5  C   UNL     1       2.406   6.169   2.484  0.00  0.00    +0.007 A 
ATOM      6  C   UNL     1       1.157   6.000   1.914  0.00  0.00    -0.011 A 
ENDROOT
BRANCH   6   7
ATOM      7  C   UNL     1       0.994   6.101   0.420  0.00  0.00    +0.191 C 
ATOM      8  N   UNL     1      -0.108   5.245  -0.013  0.00  0.00    -0.322 N 
ATOM      9  C   UNL     1      -0.050   3.854   0.010  0.00  0.00    +0.056 A 
ATOM     10  C   UNL     1      -1.242   3.131   0.024  0.00  0.00    +0.037 A 
ATOM     11  C   UNL     1      -1.219   1.753   0.017  0.00  0.00    +0.057 A 
ATOM     12  C   UNL     1      -0.013   1.076   0.008  0.00  0.00    +0.014 A 
ATOM     13  C   UNL     1       1.175   1.785   0.000  0.00  0.00    +0.031 A 
ATOM     14  C   UNL     1       1.155   3.164   0.008  0.00  0.00    +0.126 A 
ATOM     15  S   UNL     1       2.675   4.066   0.034  0.00  0.00    +0.062 S 
ATOM     16  O   UNL     1       3.173   4.002   1.363  0.00  0.00    -0.153 OA
ATOM     17  O   UNL     1       3.429   3.641  -1.093  0.00  0.00    -0.153 OA
ATOM     18  N   UNL     1       2.233   5.651  -0.245  0.00  0.00    -0.166 NA
ATOM     19  H   UNL     1      -1.043   5.694  -0.379  0.00  0.00    +0.148 HD
ATOM     20  H   UNL     1       2.712   6.287  -1.004  0.00  0.00    +0.150 HD
BRANCH  11  21
ATOM     21  C   UNL     1      -2.513   0.980   0.027  0.00  0.00    +0.417 C 
ATOM     22  F   UNL     1      -2.237  -0.392   0.024  0.00  0.00    -0.166 F 
ATOM     23  F   UNL     1      -3.243   1.306   1.175  0.00  0.00    -0.166 F 
ATOM     24  F   UNL     1      -3.260   1.308  -1.110  0.00  0.00    -0.166 F 
ENDBRANCH  11  21
ENDBRANCH   6   7
BRANCH   3  25
ATOM     25  C   UNL     1       1.615   5.715   6.127  0.00  0.00    +0.340 C 
ATOM     26  O   UNL     1       2.711   5.863   6.630  0.00  0.00    -0.245 OA
BRANCH  25  27
ATOM     27  O   UNL     1       0.546   5.460   6.905  0.00  0.00    -0.452 OA
BRANCH  27  28
ATOM     28  C   UNL     1       0.777   5.376   8.336  0.00  0.00    +0.328 C 
BRANCH  28  29
ATOM     29  C   UNL     1      -0.524   5.087   9.039  0.00  0.00    +0.251 C 
ATOM     30  O   UNL     1      -1.546   4.963   8.397  0.00  0.00    -0.272 OA
ATOM     31  N   UNL     1      -0.553   4.966  10.381  0.00  0.00    -0.310 N 
ATOM     32  H   UNL     1       0.374   5.078  10.963  0.00  0.00    +0.149 HD
BRANCH  31  33
ATOM     33  C   UNL     1      -1.818   4.684  11.064  0.00  0.00    +0.073 C 
ATOM     34  C   UNL     1      -2.565   5.996  11.313  0.00  0.00    +0.022 C 
ATOM     35  C   UNL     1      -3.886   5.702  12.027  0.00  0.00    +0.002 C 
ATOM     36  C   UNL     1      -3.602   5.015  13.364  0.00  0.00    +0.000 C 
ATOM     37  C   UNL     1      -2.854   3.704  13.115  0.00  0.00    +0.002 C 
ATOM     38  C   UNL     1      -1.533   3.997  12.401  0.00  0.00    +0.022 C 
ENDBRANCH  31  33
ENDBRANCH  28  29
ENDBRANCH  27  28
ENDBRANCH  25  27
ENDBRANCH   3  25
TORSDOF 7
