REMARK  Name = ZINC13258532
REMARK  7 active torsions:
REMARK  status: ('A' for Active; 'I' for Inactive)
REMARK    1  A    between atoms: C_1  and  C_2
REMARK    2  A    between atoms: C_2  and  N_3
REMARK    3  A    between atoms: C_5  and  C_36
REMARK    4  A    between atoms: C_11  and  N_15
REMARK    5  A    between atoms: C_21  and  C_23
REMARK    6  A    between atoms: C_30  and  C_35
REMARK    7  A    between atoms: C_32  and  C_34
REMARK                            x       y       z     vdW  Elec       q    Type
REMARK                         _______ _______ _______ _____ _____    ______ ____
ROOT
ATOM      1  N   UNL     1       2.777   6.073   0.099  0.00  0.00    -0.325 N 
ATOM      2  C   UNL     1       2.144   6.521   1.347  0.00  0.00    +0.124 C 
ATOM      3  C   UNL     1       1.951   8.041   1.300  0.00  0.00    +0.127 C 
ATOM      4  N   UNL     1       1.216   8.381   0.073  0.00  0.00    -0.294 N 
ATOM      5  C   UNL     1       1.714   7.852  -1.206  0.00  0.00    +0.127 C 
ATOM      6  C   UNL     1       1.916   6.340  -1.061  0.00  0.00    +0.124 C 
ATOM      7  C   UNL     1       0.116   9.158   0.119  0.00  0.00    +0.250 C 
ATOM      8  O   UNL     1      -0.438   9.490  -0.912  0.00  0.00    -0.270 OA
ENDROOT
BRANCH   1  17
ATOM      9  N   UNL     1       1.477   1.461   0.479  0.00  0.00    -0.346 N 
ATOM     10  C   UNL     1       1.750   0.152   0.549  0.00  0.00    +0.105 A 
ATOM     11  C   UNL     1       3.041  -0.333   0.506  0.00  0.00    +0.126 A 
ATOM     12  C   UNL     1       4.156   0.621   0.378  0.00  0.00    +0.204 A 
ATOM     13  O   UNL     1       5.314   0.242   0.335  0.00  0.00    -0.286 OA
ATOM     14  C   UNL     1       3.813   2.051   0.304  0.00  0.00    +0.049 A 
ATOM     15  C   UNL     1       2.458   2.423   0.358  0.00  0.00    +0.055 A 
ATOM     16  C   UNL     1       2.120   3.769   0.289  0.00  0.00    +0.052 A 
ATOM     17  C   UNL     1       3.117   4.724   0.168  0.00  0.00    +0.067 A 
ATOM     18  C   UNL     1       4.461   4.345   0.116  0.00  0.00    +0.145 A 
ATOM     19  C   UNL     1       4.808   3.025   0.182  0.00  0.00    +0.054 A 
ATOM     20  F   UNL     1       5.421   5.287  -0.002  0.00  0.00    -0.204 F 
BRANCH  11  21
ATOM     21  C   UNL     1       3.300  -1.777   0.587  0.00  0.00    +0.392 C 
ATOM     22  O   UNL     1       4.442  -2.193   0.548  0.00  0.00    -0.240 OA
ATOM     23  O   UNL     1       2.272  -2.640   0.704  0.00  0.00    -0.240 OA
ENDBRANCH  11  21
BRANCH   9  25
ATOM     24  C   UNL     1      -0.451   2.065  -0.900  0.00  0.00    +0.027 C 
ATOM     25  C   UNL     1       0.076   1.889   0.526  0.00  0.00    +0.118 C 
ENDBRANCH   9  25
ENDBRANCH   1  17
BRANCH   7  26
ATOM     26  C   UNL     1      -0.417   9.607   1.419  0.00  0.00    +0.079 A 
ATOM     27  C   UNL     1       0.421  10.243   2.336  0.00  0.00    +0.017 A 
ATOM     28  C   UNL     1      -0.075  10.667   3.550  0.00  0.00    +0.001 A 
ATOM     29  C   UNL     1      -1.408  10.453   3.866  0.00  0.00    +0.007 A 
ATOM     30  C   UNL     1      -2.243   9.825   2.970  0.00  0.00    +0.001 A 
ATOM     31  C   UNL     1      -1.769   9.389   1.739  0.00  0.00    +0.137 A 
ATOM     32  O   UNL     1      -2.750   8.785   1.018  0.00  0.00    -0.487 OA
ATOM     33  C   UNL     1      -4.032   9.171   1.544  0.00  0.00    +0.178 C 
ATOM     34  C   UNL     1      -3.717   9.470   3.029  0.00  0.00    +0.060 C 
ATOM     35  C   UNL     1      -3.947   8.232   3.897  0.00  0.00    +0.016 C 
ATOM     36  C   UNL     1      -4.555  10.421   0.834  0.00  0.00    +0.052 C 
ENDBRANCH   7  26
TORSDOF 4
