REMARK  Name = ZINC08597674
REMARK  3 active torsions:
REMARK  status: ('A' for Active; 'I' for Inactive)
REMARK    1  A    between atoms: C_10  and  C_12
REMARK    2  A    between atoms: N_18  and  C_30
REMARK    3  A    between atoms: C_30  and  C_31
REMARK                            x       y       z     vdW  Elec       q    Type
REMARK                         _______ _______ _______ _____ _____    ______ ____
ROOT
ATOM      1  C   UNL     1       5.130   0.975  -0.154  0.00  0.00    +0.039 A 
ATOM      2  C   UNL     1       4.116   1.935  -0.132  0.00  0.00    +0.015 A 
ATOM      3  C   UNL     1       4.441   3.272  -0.225  0.00  0.00    +0.030 A 
ATOM      4  C   UNL     1       5.761   3.664  -0.344  0.00  0.00    +0.115 A 
ATOM      5  C   UNL     1       6.782   2.723  -0.377  0.00  0.00    +0.063 A 
ATOM      6  C   UNL     1       6.459   1.372  -0.270  0.00  0.00    +0.038 A 
ATOM      7  N   UNL     1       8.109   3.082  -0.526  0.00  0.00    -0.261 N 
ATOM      8  C   UNL     1       8.821   4.013   0.048  0.00  0.00    +0.253 C 
ATOM      9  O   UNL     1       9.988   4.054  -0.288  0.00  0.00    -0.270 OA
ATOM     10  C   UNL     1       8.421   5.017   1.037  0.00  0.00    +0.062 A 
ATOM     11  C   UNL     1       9.255   5.283   2.130  0.00  0.00    +0.015 A 
ATOM     12  C   UNL     1       8.891   6.229   3.063  0.00  0.00    +0.001 A 
ATOM     13  C   UNL     1       7.702   6.923   2.928  0.00  0.00    +0.002 A 
ATOM     14  C   UNL     1       6.869   6.667   1.853  0.00  0.00    +0.028 A 
ATOM     15  C   UNL     1       7.222   5.721   0.916  0.00  0.00    +0.106 A 
ATOM     16  S   UNL     1       6.155   5.381  -0.448  0.00  0.00    +0.028 S 
ATOM     17  O   UNL     1       4.949   6.093  -0.211  0.00  0.00    -0.164 OA
ATOM     18  O   UNL     1       6.930   5.554  -1.626  0.00  0.00    -0.164 OA
ENDROOT
BRANCH   1  28
ATOM     19  C   UNL     1       1.824  -4.665  -0.174  0.00  0.00    +0.000 A 
ATOM     20  C   UNL     1       3.204  -4.588  -0.124  0.00  0.00    +0.002 A 
ATOM     21  C   UNL     1       3.829  -3.359  -0.096  0.00  0.00    +0.024 A 
ATOM     22  C   UNL     1       3.075  -2.184  -0.118  0.00  0.00    +0.040 A 
ATOM     23  C   UNL     1       1.693  -2.274  -0.168  0.00  0.00    -0.024 A 
ATOM     24  C   UNL     1       1.071  -3.507  -0.196  0.00  0.00    +0.005 A 
ATOM     25  C   UNL     1       1.121  -0.874  -0.182  0.00  0.00    +0.056 C 
ATOM     26  C   UNL     1       2.350   0.047  -0.134  0.00  0.00    +0.118 C 
ATOM     27  N   UNL     1       3.505  -0.855  -0.096  0.00  0.00    -0.267 N 
ATOM     28  C   UNL     1       4.792  -0.460  -0.048  0.00  0.00    +0.251 C 
ATOM     29  O   UNL     1       5.676  -1.284   0.082  0.00  0.00    -0.270 OA
ENDBRANCH   1  28
BRANCH   7  30
ATOM     30  C   UNL     1       8.846   2.273  -1.500  0.00  0.00    +0.152 C 
BRANCH  30  31
ATOM     31  C   UNL     1       8.738   2.906  -2.863  0.00  0.00    +0.005 A 
ATOM     32  C   UNL     1       7.827   2.418  -3.781  0.00  0.00    +0.008 A 
ATOM     33  C   UNL     1       7.727   2.998  -5.032  0.00  0.00    +0.000 A 
ATOM     34  C   UNL     1       8.538   4.067  -5.366  0.00  0.00    +0.003 A 
ATOM     35  C   UNL     1       9.449   4.557  -4.450  0.00  0.00    +0.038 A 
ATOM     36  C   UNL     1       9.546   3.980  -3.195  0.00  0.00    +0.128 A 
ATOM     37  F   UNL     1      10.433   4.461  -2.296  0.00  0.00    -0.205 F 
ENDBRANCH  30  31
ENDBRANCH   7  30
TORSDOF 3
