REMARK  Name = ZINC35790066
REMARK  6 active torsions:
REMARK  status: ('A' for Active; 'I' for Inactive)
REMARK    1  A    between atoms: C_3  and  C_10
REMARK    2  A    between atoms: C_5  and  N_7
REMARK    3  A    between atoms: N_20  and  C_21
REMARK    4  A    between atoms: C_21  and  C_22
REMARK    5  A    between atoms: C_26  and  O_29
REMARK    6  A    between atoms: C_27  and  O_28
REMARK                            x       y       z     vdW  Elec       q    Type
REMARK                         _______ _______ _______ _____ _____    ______ ____
ROOT
ATOM      1  C   UNL     1       3.791   2.142   0.077  0.00  0.00    +0.011 C 
ATOM      2  C   UNL     1       4.144   2.434  -1.361  0.00  0.00    +0.009 A 
ATOM      3  C   UNL     1       3.952   1.612  -2.410  0.00  0.00    +0.021 A 
ATOM      4  C   UNL     1       4.435   2.272  -3.558  0.00  0.00    +0.019 A 
ATOM      5  C   UNL     1       4.901   3.476  -3.165  0.00  0.00    +0.086 A 
ATOM      6  N   UNL     1       4.717   3.586  -1.820  0.00  0.00    -0.352 N 
ATOM      7  C   UNL     1       5.057   4.744  -0.986  0.00  0.00    +0.119 C 
ATOM      8  C   UNL     1       5.778   4.255   0.274  0.00  0.00    +0.003 C 
ATOM      9  C   UNL     1       4.757   3.932   1.358  0.00  0.00    -0.075 C 
ATOM     10  N   UNL     1       3.520   3.405   0.778  0.00  0.00    +0.391 N 
ATOM     11  H   UNL     1       3.145   4.076   0.125  0.00  0.00    -0.080 HD
ENDROOT
BRANCH   1  14
ATOM     12  C   UNL     1       0.246   0.917  -0.357  0.00  0.00    +0.002 A 
ATOM     13  C   UNL     1       1.370   1.720  -0.401  0.00  0.00    +0.002 A 
ATOM     14  C   UNL     1       2.565   1.267   0.127  0.00  0.00    -0.053 A 
ATOM     15  C   UNL     1       2.635   0.010   0.699  0.00  0.00    +0.035 A 
ATOM     16  C   UNL     1       1.510  -0.792   0.744  0.00  0.00    +0.126 A 
ATOM     17  C   UNL     1       0.316  -0.339   0.215  0.00  0.00    +0.033 A 
BRANCH  16  18
ATOM     18  N   UNL     1       1.586  -2.138   1.357  0.00  0.00    +0.056 N 
ATOM     19  O   UNL     1       2.631  -2.535   1.817  0.00  0.00    -0.126 OA
ATOM     20  O   UNL     1       0.602  -2.840   1.396  0.00  0.00    -0.126 OA
ENDBRANCH  16  18
ENDBRANCH   1  14
BRANCH  10  21
ATOM     21  C   UNL     1       2.541   3.169   1.848  0.00  0.00    -0.038 C 
BRANCH  21  22
ATOM     22  C   UNL     1       2.200   4.477   2.513  0.00  0.00    -0.019 A 
ATOM     23  C   UNL     1       2.797   4.819   3.713  0.00  0.00    +0.005 A 
ATOM     24  C   UNL     1       2.486   6.018   4.326  0.00  0.00    +0.004 A 
ATOM     25  C   UNL     1       1.576   6.881   3.743  0.00  0.00    +0.049 A 
ATOM     26  C   UNL     1       0.975   6.545   2.541  0.00  0.00    +0.158 A 
ATOM     27  C   UNL     1       1.293   5.340   1.921  0.00  0.00    +0.160 A 
BRANCH  27  28
ATOM     28  O   UNL     1       0.709   5.008   0.738  0.00  0.00    -0.503 OA
ATOM     29  H   UNL     1      -0.119   4.518   0.832  0.00  0.00    +0.292 HD
ENDBRANCH  27  28
BRANCH  26  30
ATOM     30  O   UNL     1       0.080   7.392   1.966  0.00  0.00    -0.503 OA
ATOM     31  H   UNL     1       0.478   8.033   1.361  0.00  0.00    +0.292 HD
ENDBRANCH  26  30
ENDBRANCH  21  22
ENDBRANCH  10  21
TORSDOF 6
