REMARK  Name = ZINC22852033
REMARK  5 active torsions:
REMARK  status: ('A' for Active; 'I' for Inactive)
REMARK    1  A    between atoms: C_3  and  C_8
REMARK    2  A    between atoms: C_8  and  C_10
REMARK    3  A    between atoms: C_8  and  N_24
REMARK    4  A    between atoms: C_16  and  C_18
REMARK    5  A    between atoms: C_27  and  C_30
REMARK                            x       y       z     vdW  Elec       q    Type
REMARK                         _______ _______ _______ _____ _____    ______ ____
ROOT
ATOM      1  C   UNL     1       0.013   1.235  -2.408  0.00  0.00    +0.006 C 
ENDROOT
BRANCH   1   2
ATOM      2  C   UNL     1      -0.218  -0.251  -2.507  0.00  0.00    +0.050 A 
ATOM      3  C   UNL     1       0.655  -1.224  -2.792  0.00  0.00    +0.282 A 
ATOM      4  N   UNL     1       0.254  -2.537  -2.833  0.00  0.00    -0.169 N 
ATOM      5  C   UNL     1      -1.066  -2.793  -2.582  0.00  0.00    +0.200 A 
ATOM      6  S   UNL     1      -1.731  -1.173  -2.281  0.00  0.00    -0.050 S 
ATOM      7  N   UNL     1      -1.289  -4.075  -2.663  0.00  0.00    -0.197 NA
ATOM      8  C   UNL     1      -0.145  -4.705  -2.965  0.00  0.00    +0.218 A 
ATOM      9  N   UNL     1       0.818  -3.816  -3.079  0.00  0.00    -0.138 NA
ATOM     10  O   UNL     1       1.955  -0.909  -3.041  0.00  0.00    -0.265 OA
BRANCH   8  11
ATOM     11  C   UNL     1       0.010  -6.164  -3.142  0.00  0.00    +0.173 A 
ATOM     12  C   UNL     1      -0.978  -7.091  -3.027  0.00  0.00    +0.053 A 
ATOM     13  C   UNL     1      -0.388  -8.346  -3.276  0.00  0.00    +0.042 A 
ATOM     14  C   UNL     1       0.917  -8.126  -3.528  0.00  0.00    +0.196 A 
ATOM     15  O   UNL     1       1.153  -6.806  -3.451  0.00  0.00    -0.460 OA
ENDBRANCH   8  11
ENDBRANCH   1   2
BRANCH   1  18
ATOM     16  C   UNL     1      -0.269   3.024  -5.721  0.00  0.00    +0.001 A 
ATOM     17  C   UNL     1       0.265   2.400  -4.609  0.00  0.00    +0.002 A 
ATOM     18  C   UNL     1      -0.570   1.915  -3.620  0.00  0.00    -0.055 A 
ATOM     19  C   UNL     1      -1.940   2.050  -3.744  0.00  0.00    +0.017 A 
ATOM     20  C   UNL     1      -2.475   2.680  -4.854  0.00  0.00    +0.018 A 
ATOM     21  C   UNL     1      -1.638   3.164  -5.844  0.00  0.00    +0.015 A 
ATOM     22 BR   UNL     1      -4.348   2.872  -5.021  0.00  0.00    -0.050 Br
ENDBRANCH   1  18
BRANCH   1  23
ATOM     23  N   UNL     1      -0.637   1.752  -1.196  0.00  0.00    +0.387 N 
ATOM     24  C   UNL     1      -0.450   3.203  -1.077  0.00  0.00    -0.077 C 
ATOM     25  C   UNL     1      -1.258   3.727   0.112  0.00  0.00    -0.006 C 
ATOM     26  C   UNL     1      -0.789   3.027   1.390  0.00  0.00    +0.071 C 
ATOM     27  C   UNL     1      -0.949   1.514   1.222  0.00  0.00    -0.006 C 
ATOM     28  C   UNL     1      -0.149   1.054   0.001  0.00  0.00    -0.077 C 
ATOM     29  H   UNL     1      -1.716   1.558  -1.281  0.00  0.00    -0.080 HD
BRANCH  26  30
ATOM     30  C   UNL     1      -1.620   3.495   2.556  0.00  0.00    +0.213 C 
ATOM     31  O   UNL     1      -2.277   2.698   3.192  0.00  0.00    -0.276 OA
ATOM     32  N   UNL     1      -1.635   4.800   2.893  0.00  0.00    -0.329 N 
ATOM     33  H   UNL     1      -2.242   5.142   3.745  0.00  0.00    +0.145 HD
ATOM     34  H   UNL     1      -1.039   5.524   2.317  0.00  0.00    +0.145 HD
ENDBRANCH  26  30
ENDBRANCH   1  23
TORSDOF 5
