REMARK  Name = ZINC06300225
REMARK  12 active torsions:
REMARK  status: ('A' for Active; 'I' for Inactive)
REMARK    1  A    between atoms: C_1  and  C_2
REMARK    2  A    between atoms: C_4  and  C_34
REMARK    3  A    between atoms: C_5  and  C_9
REMARK    4  A    between atoms: C_6  and  C_8
REMARK    5  A    between atoms: C_9  and  O_10
REMARK    6  A    between atoms: O_10  and  C_11
REMARK    7  A    between atoms: C_14  and  C_19
REMARK    8  A    between atoms: C_16  and  O_17
REMARK    9  A    between atoms: O_17  and  C_18
REMARK   10  A    between atoms: C_22  and  C_33
REMARK   11  A    between atoms: C_28  and  N_32
REMARK   12  A    between atoms: C_29  and  C_30
REMARK                            x       y       z     vdW  Elec       q    Type
REMARK                         _______ _______ _______ _____ _____    ______ ____
ROOT
ATOM      1  C   UNL     1       1.608  -6.080  -0.040  0.00  0.00    +0.162 A 
ATOM      2  C   UNL     1       0.521  -6.939  -0.044  0.00  0.00    +0.050 A 
ATOM      3  C   UNL     1       0.722  -8.307  -0.053  0.00  0.00    +0.008 A 
ATOM      4  C   UNL     1       2.006  -8.821  -0.058  0.00  0.00    -0.031 A 
ATOM      5  C   UNL     1       3.094  -7.969  -0.053  0.00  0.00    +0.054 A 
ATOM      6  C   UNL     1       2.900  -6.597  -0.050  0.00  0.00    +0.162 A 
ENDROOT
BRANCH   4   7
ATOM      7  C   UNL     1       2.219 -10.313  -0.067  0.00  0.00    +0.101 C 
ATOM      8  C   UNL     1       1.574 -10.911  -1.291  0.00  0.00    +0.049 A 
ATOM      9  C   UNL     1       1.949 -10.841  -2.577  0.00  0.00    +0.041 A 
ATOM     10  N   UNL     1       1.047 -11.539  -3.306  0.00  0.00    -0.278 N 
ATOM     11  H   UNL     1       1.065 -11.660  -4.268  0.00  0.00    +0.189 HD
ATOM     12  N   UNL     1       0.082 -12.055  -2.427  0.00  0.00    -0.135 NA
ATOM     13  C   UNL     1       0.393 -11.683  -1.220  0.00  0.00    +0.245 A 
ATOM     14  O   UNL     1      -0.232 -11.937  -0.039  0.00  0.00    -0.421 OA
ATOM     15  C   UNL     1       0.445 -11.662   1.094  0.00  0.00    +0.201 C 
ATOM     16  C   UNL     1       1.575 -10.926   1.151  0.00  0.00    +0.098 C 
ATOM     17  C   UNL     1       3.158 -10.117  -3.113  0.00  0.00    +0.065 C 
BRANCH  15  18
ATOM     18  N   UNL     1      -0.050 -12.165   2.271  0.00  0.00    -0.328 N 
ATOM     19  H   UNL     1      -0.860 -12.698   2.268  0.00  0.00    +0.145 HD
ATOM     20  H   UNL     1       0.411 -11.988   3.106  0.00  0.00    +0.145 HD
ENDBRANCH  15  18
BRANCH  16  21
ATOM     21  C   UNL     1       2.193 -10.719   2.427  0.00  0.00    +0.101 C 
ATOM     22  N   UNL     1       2.683 -10.555   3.438  0.00  0.00    -0.191 NA
ENDBRANCH  16  21
ENDBRANCH   4   7
BRANCH   6  23
ATOM     23  O   UNL     1       3.970  -5.757  -0.051  0.00  0.00    -0.491 OA
ATOM     24  C   UNL     1       5.266  -6.358  -0.062  0.00  0.00    +0.277 C 
ENDBRANCH   6  23
BRANCH   1  25
ATOM     25  O   UNL     1       1.413  -4.734  -0.032  0.00  0.00    -0.484 OA
BRANCH  25  26
ATOM     26  C   UNL     1       0.059  -4.275  -0.021  0.00  0.00    +0.265 C 
BRANCH  26  31
ATOM     27  C   UNL     1      -0.018   1.503   0.010  0.00  0.00    +0.044 C 
ATOM     28  C   UNL     1       0.002  -0.004   0.002  0.00  0.00    -0.050 A 
ATOM     29  C   UNL     1       0.006  -0.689  -1.199  0.00  0.00    +0.007 A 
ATOM     30  C   UNL     1       0.025  -2.071  -1.206  0.00  0.00    -0.044 A 
ATOM     31  C   UNL     1       0.040  -2.768  -0.013  0.00  0.00    -0.005 A 
ATOM     32  C   UNL     1       0.037  -2.084   1.188  0.00  0.00    -0.044 A 
ATOM     33  C   UNL     1       0.023  -0.702   1.195  0.00  0.00    +0.007 A 
ATOM     34  C   UNL     1       0.054  -2.844   2.489  0.00  0.00    +0.044 C 
ATOM     35  C   UNL     1       0.027  -2.817  -2.516  0.00  0.00    +0.044 C 
ENDBRANCH  26  31
ENDBRANCH  25  26
ENDBRANCH   1  25
TORSDOF 7
