REMARK  Name = ZINC38123004
REMARK  5 active torsions:
REMARK  status: ('A' for Active; 'I' for Inactive)
REMARK    1  A    between atoms: C_2  and  CA_12
REMARK    2  A    between atoms: CA_12  and  C_14
REMARK    3  A    between atoms: CA_12  and  N_16
REMARK    4  A    between atoms: C_14  and  O_15
REMARK    5  A    between atoms: N_16  and  C_17
REMARK                            x       y       z     vdW  Elec       q    Type
REMARK                         _______ _______ _______ _____ _____    ______ ____
ROOT
ATOM      1  CA  UNL     1       1.243   3.426  -0.048  0.00  0.00    -0.015 C 
ENDROOT
BRANCH   1   3
ATOM      2  C   UNL     1       0.621   1.008  -0.210  0.00  0.00    +0.051 A 
ATOM      3  C   UNL     1       1.612   1.972  -0.188  0.00  0.00    -0.055 A 
ATOM      4  C   UNL     1       2.939   1.603  -0.294  0.00  0.00    +0.021 A 
ATOM      5  C   UNL     1       3.281   0.270  -0.425  0.00  0.00    +0.063 A 
ATOM      6  C   UNL     1       2.292  -0.702  -0.449  0.00  0.00    +0.176 A 
ATOM      7  C   UNL     1       0.957  -0.332  -0.339  0.00  0.00    +0.163 A 
ATOM      8  O   UNL     1      -0.030  -1.269  -0.353  0.00  0.00    -0.485 OA
ATOM      9  C   UNL     1       0.319  -2.563  -0.857  0.00  0.00    +0.270 C 
ATOM     10  C   UNL     1       1.653  -2.982  -0.225  0.00  0.00    +0.270 C 
ATOM     11  O   UNL     1       2.643  -2.010  -0.582  0.00  0.00    -0.484 OA
ATOM     12 BR   UNL     1       5.099  -0.230  -0.572  0.00  0.00    -0.046 Br
ENDBRANCH   1   3
BRANCH   1  13
ATOM     13  N   UNL     1       2.201   4.090   0.847  0.00  0.00    +0.387 N 
ATOM     14  H1  UNL     1       3.139   3.933   0.511  0.00  0.00    -0.085 HD
ATOM     15  H2  UNL     1       2.012   5.081   0.866  0.00  0.00    -0.085 HD
BRANCH  13  16
ATOM     16  C   UNL     1       2.067   3.540   2.202  0.00  0.00    -0.071 C 
ATOM     17  C   UNL     1       0.713   3.957   2.811  0.00  0.00    -0.016 C 
ATOM     18  C   UNL     1       1.029   4.211   4.305  0.00  0.00    -0.002 C 
ATOM     19  C   UNL     1       2.428   4.874   4.250  0.00  0.00    -0.002 C 
ATOM     20  C   UNL     1       3.158   4.123   3.117  0.00  0.00    -0.016 C 
ENDBRANCH  13  16
ENDBRANCH   1  13
BRANCH   1  21
ATOM     21  C   UNL     1       1.280   4.096  -1.423  0.00  0.00    +0.144 C 
BRANCH  21  22
ATOM     22  O   UNL     1       2.567   3.903  -2.012  0.00  0.00    -0.396 OA
ATOM     23  H   UNL     1       2.663   4.303  -2.888  0.00  0.00    +0.209 HD
ENDBRANCH  21  22
ENDBRANCH   1  21
TORSDOF 5
