REMARK  Name = ZINC67266821
REMARK  8 active torsions:
REMARK  status: ('A' for Active; 'I' for Inactive)
REMARK    1  A    between atoms: C_1  and  C_2
REMARK    2  A    between atoms: C_3  and  C_13
REMARK    3  A    between atoms: C_5  and  C_7
REMARK    4  A    between atoms: N_15  and  C_16
REMARK    5  A    between atoms: C_19  and  C_28
REMARK    6  A    between atoms: C_23  and  C_25
REMARK    7  A    between atoms: C_25  and  C_26
REMARK    8  A    between atoms: C_25  and  C_27
REMARK                            x       y       z     vdW  Elec       q    Type
REMARK                         _______ _______ _______ _____ _____    ______ ____
ROOT
ATOM      1  C   UNL     1      -0.498  -0.027  -2.548  0.00  0.00    +0.253 C 
ATOM      2  O   UNL     1      -0.493   1.125  -2.942  0.00  0.00    -0.270 OA
ATOM      3  N   UNL     1      -0.264  -1.035  -3.411  0.00  0.00    -0.308 N 
ATOM      4  H   UNL     1      -0.268  -1.953  -3.097  0.00  0.00    +0.149 HD
ENDROOT
BRANCH   3   5
ATOM      5  C   UNL     1      -0.002  -0.746  -4.823  0.00  0.00    +0.077 C 
ATOM      6  C   UNL     1       1.490  -0.472  -5.020  0.00  0.00    +0.026 C 
ATOM      7  C   UNL     1       1.764  -0.169  -6.494  0.00  0.00    -0.012 C 
ATOM      8  C   UNL     1       1.349  -1.370  -7.347  0.00  0.00    +0.004 C 
ATOM      9  C   UNL     1      -0.144  -1.644  -7.150  0.00  0.00    +0.006 C 
ATOM     10  C   UNL     1      -0.417  -1.946  -5.676  0.00  0.00    +0.012 C 
ATOM     11  C   UNL     1       0.959   1.061  -6.920  0.00  0.00    +0.007 C 
BRANCH  10  12
ATOM     12  C   UNL     1      -1.909  -2.220  -5.479  0.00  0.00    -0.012 C 
ATOM     13  C   UNL     1      -2.720  -1.045  -6.030  0.00  0.00    +0.007 C 
ATOM     14  C   UNL     1      -2.296  -3.500  -6.223  0.00  0.00    +0.007 C 
ENDBRANCH  10  12
ENDBRANCH   3   5
BRANCH   1  17
ATOM     15  C   UNL     1      -1.077   2.046  -0.284  0.00  0.00    +0.067 C 
ATOM     16  C   UNL     1      -1.023   0.553  -0.085  0.00  0.00    +0.058 A 
ATOM     17  C   UNL     1      -0.760  -0.317  -1.135  0.00  0.00    +0.097 A 
ATOM     18  S   UNL     1      -0.830  -1.887  -0.287  0.00  0.00    -0.059 S 
ATOM     19  C   UNL     1      -1.172  -1.304   1.254  0.00  0.00    +0.148 A 
ATOM     20  N   UNL     1      -1.215   0.007   1.087  0.00  0.00    -0.240 NA
BRANCH  19  21
ATOM     21  C   UNL     1      -1.371  -2.074   2.500  0.00  0.00    +0.206 A 
ATOM     22  N   UNL     1      -1.643  -1.554   3.706  0.00  0.00    -0.213 NA
ATOM     23  H   UNL     1      -1.583  -4.571   4.360  0.00  0.00    +0.190 HD
ATOM     24  C   UNL     1      -1.757  -2.513   4.585  0.00  0.00    +0.216 A 
ATOM     25  N   UNL     1      -1.559  -3.688   3.959  0.00  0.00    -0.265 N 
ATOM     26  N   UNL     1      -1.316  -3.385   2.609  0.00  0.00    -0.150 NA
ENDBRANCH  19  21
ENDBRANCH   1  17
TORSDOF 4
