REMARK  Name = ZINC38729747
REMARK  6 active torsions:
REMARK  status: ('A' for Active; 'I' for Inactive)
REMARK    1  A    between atoms: C_4  and  C_7
REMARK    2  A    between atoms: C_7  and  C_37
REMARK    3  A    between atoms: C_13  and  C_15
REMARK    4  A    between atoms: C_21  and  C_23
REMARK    5  A    between atoms: N_25  and  C_26
REMARK    6  A    between atoms: C_26  and  C_27
REMARK                            x       y       z     vdW  Elec       q    Type
REMARK                         _______ _______ _______ _____ _____    ______ ____
ROOT
ATOM      1  C   UNL     1       5.832  -4.840   1.780  0.00  0.00    +0.091 C 
ATOM      2  C   UNL     1       4.313  -5.017   1.851  0.00  0.00    +0.040 C 
ATOM      3  C   UNL     1       3.969  -6.467   2.020  0.00  0.00    -0.030 C 
ATOM      4  C   UNL     1       4.810  -7.372   2.407  0.00  0.00    -0.030 C 
ATOM      5  C   UNL     1       6.250  -7.098   2.731  0.00  0.00    +0.040 C 
ATOM      6  C   UNL     1       6.468  -5.600   2.950  0.00  0.00    +0.091 C 
ENDROOT
BRANCH   1  13
ATOM      7  C   UNL     1       7.203  -1.264  -1.491  0.00  0.00    +0.085 C 
ATOM      8  C   UNL     1       7.077  -2.789  -1.484  0.00  0.00    +0.045 C 
ATOM      9  C   UNL     1       5.933  -3.198  -0.550  0.00  0.00    +0.109 C 
ATOM     10  N   UNL     1       6.168  -2.605   0.773  0.00  0.00    -0.301 N 
ATOM     11  C   UNL     1       6.392  -1.157   0.869  0.00  0.00    +0.109 C 
ATOM     12  C   UNL     1       7.531  -0.770  -0.080  0.00  0.00    +0.045 C 
ATOM     13  C   UNL     1       6.176  -3.376   1.879  0.00  0.00    +0.220 C 
ATOM     14  O   UNL     1       6.462  -2.892   2.954  0.00  0.00    -0.275 OA
BRANCH   7  18
ATOM     15  C   UNL     1      10.326  -0.105  -4.165  0.00  0.00    +0.000 A 
ATOM     16  C   UNL     1       9.240  -0.817  -4.638  0.00  0.00    +0.000 A 
ATOM     17  C   UNL     1       8.229  -1.192  -3.773  0.00  0.00    +0.005 A 
ATOM     18  C   UNL     1       8.305  -0.855  -2.434  0.00  0.00    -0.027 A 
ATOM     19  C   UNL     1       9.392  -0.144  -1.961  0.00  0.00    +0.005 A 
ATOM     20  C   UNL     1      10.402   0.232  -2.826  0.00  0.00    +0.000 A 
ENDBRANCH   7  18
BRANCH   7  21
ATOM     21  C   UNL     1       5.932  -0.669  -1.936  0.00  0.00    +0.074 C 
ATOM     22  N   UNL     1       4.951  -0.210  -2.279  0.00  0.00    -0.196 NA
ENDBRANCH   7  21
ENDBRANCH   1  13
BRANCH   6  23
ATOM     23  C   UNL     1       7.945  -5.303   3.003  0.00  0.00    +0.217 C 
ATOM     24  O   UNL     1       8.443  -4.556   2.188  0.00  0.00    -0.275 OA
ATOM     25  N   UNL     1       8.712  -5.866   3.958  0.00  0.00    -0.315 N 
ATOM     26  H   UNL     1       8.313  -6.463   4.610  0.00  0.00    +0.149 HD
BRANCH  25  27
ATOM     27  C   UNL     1      10.147  -5.577   4.010  0.00  0.00    +0.111 C 
BRANCH  27  28
ATOM     28  C   UNL     1      10.778  -6.337   5.178  0.00  0.00    -0.013 C 
ATOM     29  C   UNL     1      10.121  -5.896   6.488  0.00  0.00    +0.012 C 
ATOM     30  C   UNL     1      10.752  -6.656   7.656  0.00  0.00    -0.010 C 
ATOM     31  C   UNL     1      12.251  -6.354   7.711  0.00  0.00    +0.007 C 
ATOM     32  C   UNL     1      12.908  -6.795   6.401  0.00  0.00    -0.010 C 
ATOM     33  C   UNL     1      12.277  -6.035   5.233  0.00  0.00    +0.012 C 
ATOM     34  C   UNL     1      12.698  -8.297   6.205  0.00  0.00    +0.007 C 
ATOM     35  C   UNL     1      11.199  -8.600   6.150  0.00  0.00    -0.010 C 
ATOM     36  C   UNL     1      10.542  -8.159   7.460  0.00  0.00    +0.007 C 
ATOM     37  C   UNL     1      10.568  -7.839   4.982  0.00  0.00    +0.012 C 
ENDBRANCH  27  28
ENDBRANCH  25  27
ENDBRANCH   6  23
TORSDOF 6
