REMARK  Name = ZINC09746604
REMARK  9 active torsions:
REMARK  status: ('A' for Active; 'I' for Inactive)
REMARK    1  A    between atoms: C_5  and  C_7
REMARK    2  A    between atoms: C_7  and  O_8
REMARK    3  A    between atoms: O_8  and  C_9
REMARK    4  A    between atoms: C_14  and  C_15
REMARK    5  A    between atoms: C_15  and  O_17
REMARK    6  A    between atoms: O_17  and  C_18
REMARK    7  A    between atoms: C_18  and  C_19
REMARK    8  A    between atoms: N_21  and  C_22
REMARK    9  A    between atoms: C_23  and  C_27
REMARK                            x       y       z     vdW  Elec       q    Type
REMARK                         _______ _______ _______ _____ _____    ______ ____
ROOT
ATOM      1  C   UNL     1      -3.672   1.484   0.028  0.00  0.00    +0.343 C 
ATOM      2  O   UNL     1      -3.848   2.686   0.035  0.00  0.00    -0.245 OA
ENDROOT
BRANCH   1   8
ATOM      3  C   UNL     1      -6.133   1.084   0.037  0.00  0.00    +0.135 A 
ATOM      4  C   UNL     1      -7.214   0.214   0.037  0.00  0.00    +0.046 A 
ATOM      5  C   UNL     1      -7.005  -1.150   0.029  0.00  0.00    +0.004 A 
ATOM      6  C   UNL     1      -5.717  -1.662   0.020  0.00  0.00    +0.001 A 
ATOM      7  C   UNL     1      -4.632  -0.813   0.014  0.00  0.00    +0.018 A 
ATOM      8  C   UNL     1      -4.829   0.570   0.028  0.00  0.00    +0.101 A 
BRANCH   3   9
ATOM      9  O   UNL     1      -6.338   2.425   0.045  0.00  0.00    -0.487 OA
BRANCH   9  10
ATOM     10  C   UNL     1      -7.694   2.874   0.054  0.00  0.00    +0.265 C 
BRANCH  10  15
ATOM     11  C   UNL     1      -6.567   6.478   0.068  0.00  0.00    +0.000 A 
ATOM     12  C   UNL     1      -7.778   7.146   0.077  0.00  0.00    +0.001 A 
ATOM     13  C   UNL     1      -8.961   6.432   0.078  0.00  0.00    +0.015 A 
ATOM     14  C   UNL     1      -8.935   5.049   0.071  0.00  0.00    +0.024 A 
ATOM     15  C   UNL     1      -7.724   4.381   0.061  0.00  0.00    +0.004 A 
ATOM     16  C   UNL     1      -6.540   5.096   0.065  0.00  0.00    +0.008 A 
ATOM     17 BR   UNL     1     -10.554   4.072   0.074  0.00  0.00    -0.050 Br
ENDBRANCH  10  15
ENDBRANCH   9  10
ENDBRANCH   3   9
ENDBRANCH   1   8
BRANCH   1  18
ATOM     18  O   UNL     1      -2.420   0.986   0.019  0.00  0.00    -0.452 OA
BRANCH  18  19
ATOM     19  C   UNL     1      -1.330   1.944   0.019  0.00  0.00    +0.328 C 
BRANCH  19  20
ATOM     20  C   UNL     1      -0.014   1.209   0.009  0.00  0.00    +0.255 C 
ATOM     21  O   UNL     1       0.002  -0.004   0.002  0.00  0.00    -0.272 OA
ATOM     22  N   UNL     1       1.143   1.898   0.001  0.00  0.00    -0.277 N 
ATOM     23  H   UNL     1       1.130   2.868   0.007  0.00  0.00    +0.155 HD
BRANCH  22  24
ATOM     24  C   UNL     1       2.354   1.221  -0.014  0.00  0.00    +0.084 A 
ATOM     25  C   UNL     1       3.639   1.750  -0.029  0.00  0.00    +0.065 A 
ATOM     26  C   UNL     1       4.730   0.805  -0.038  0.00  0.00    +0.022 A 
ATOM     27  C   UNL     1       4.410  -0.501  -0.043  0.00  0.00    +0.048 A 
ATOM     28  S   UNL     1       2.630  -0.488  -0.026  0.00  0.00    -0.081 S 
BRANCH  25  29
ATOM     29  C   UNL     1       3.875   3.198  -0.031  0.00  0.00    +0.244 C 
ATOM     30  O   UNL     1       2.932   3.968  -0.019  0.00  0.00    -0.270 OA
ATOM     31  N   UNL     1       5.135   3.675  -0.046  0.00  0.00    -0.325 N 
ATOM     32  H   UNL     1       5.886   3.061  -0.055  0.00  0.00    +0.145 HD
ATOM     33  H   UNL     1       5.291   4.632  -0.047  0.00  0.00    +0.145 HD
ENDBRANCH  25  29
ENDBRANCH  22  24
ENDBRANCH  19  20
ENDBRANCH  18  19
ENDBRANCH   1  18
TORSDOF 9
