REMARK  Name = ZINC59092883
REMARK  6 active torsions:
REMARK  status: ('A' for Active; 'I' for Inactive)
REMARK    1  A    between atoms: C_4  and  C_8
REMARK    2  A    between atoms: N_9  and  N_10
REMARK    3  A    between atoms: N_10  and  C_11
REMARK    4  A    between atoms: C_11  and  N_13
REMARK    5  A    between atoms: N_13  and  N_14
REMARK    6  A    between atoms: C_15  and  C_16
REMARK                            x       y       z     vdW  Elec       q    Type
REMARK                         _______ _______ _______ _____ _____    ______ ____
ROOT
ATOM      1  C   UNL     1       4.978  -3.999   0.119  0.00  0.00    +0.170 C 
ATOM      2  S   UNL     1       6.479  -4.821   0.084  0.00  0.00    -0.016 S 
ENDROOT
BRANCH   1   3
ATOM      3  N   UNL     1       4.949  -2.651   0.130  0.00  0.00    -0.217 N 
ATOM      4  H   UNL     1       5.776  -2.148   0.191  0.00  0.00    +0.176 HD
BRANCH   3   6
ATOM      5  C   UNL     1       3.699  -0.682  -0.037  0.00  0.00    +0.141 C 
ATOM      6  N   UNL     1       3.723  -1.977   0.052  0.00  0.00    -0.188 NA
BRANCH   5  10
ATOM      7  C   UNL     1      -0.010   1.383   0.048  0.00  0.00    +0.003 A 
ATOM      8  C   UNL     1       1.175   2.096   0.038  0.00  0.00    +0.021 A 
ATOM      9  C   UNL     1       2.385   1.432   0.010  0.00  0.00    +0.051 A 
ATOM     10  C   UNL     1       2.411   0.035  -0.007  0.00  0.00    +0.031 A 
ATOM     11  C   UNL     1       1.209  -0.679   0.004  0.00  0.00    +0.051 A 
ATOM     12  C   UNL     1       0.007  -0.001   0.031  0.00  0.00    +0.021 A 
ATOM     13 CL   UNL     1       1.228  -2.415  -0.017  0.00  0.00    -0.083 Cl
ATOM     14 CL   UNL     1       3.871   2.330  -0.004  0.00  0.00    -0.083 Cl
ENDBRANCH   5  10
ENDBRANCH   3   6
ENDBRANCH   1   3
BRANCH   1  15
ATOM     15  N   UNL     1       3.827  -4.698   0.137  0.00  0.00    -0.217 N 
ATOM     16  H   UNL     1       2.977  -4.234   0.082  0.00  0.00    +0.176 HD
BRANCH  15  17
ATOM     17  N   UNL     1       3.857  -6.096   0.234  0.00  0.00    -0.188 NA
ATOM     18  C   UNL     1       2.755  -6.776   0.152  0.00  0.00    +0.141 C 
BRANCH  18  19
ATOM     19  C   UNL     1       2.772  -8.235   0.364  0.00  0.00    +0.031 A 
ATOM     20  C   UNL     1       3.948  -8.872   0.770  0.00  0.00    +0.051 A 
ATOM     21  C   UNL     1       3.956 -10.239   0.968  0.00  0.00    +0.021 A 
ATOM     22  C   UNL     1       2.803 -10.977   0.765  0.00  0.00    +0.003 A 
ATOM     23  C   UNL     1       1.635 -10.354   0.363  0.00  0.00    +0.021 A 
ATOM     24  C   UNL     1       1.610  -8.987   0.167  0.00  0.00    +0.051 A 
ATOM     25 CL   UNL     1       0.142  -8.206  -0.330  0.00  0.00    -0.083 Cl
ATOM     26 CL   UNL     1       5.396  -7.948   1.025  0.00  0.00    -0.083 Cl
ENDBRANCH  18  19
ENDBRANCH  15  17
ENDBRANCH   1  15
TORSDOF 6
