REMARK  Name = ZINC43283571
REMARK  7 active torsions:
REMARK  status: ('A' for Active; 'I' for Inactive)
REMARK    1  A    between atoms: C_1  and  C_2
REMARK    2  A    between atoms: C_2  and  C_4
REMARK    3  A    between atoms: C_2  and  N_21
REMARK    4  A    between atoms: C_4  and  C_6
REMARK    5  A    between atoms: C_4  and  S_12
REMARK    6  A    between atoms: S_12  and  C_13
REMARK    7  A    between atoms: N_17  and  C_18
REMARK                            x       y       z     vdW  Elec       q    Type
REMARK                         _______ _______ _______ _____ _____    ______ ____
ROOT
ATOM      1  C   UNL     1       0.845  -0.502   1.178  0.00  0.00    +0.076 C 
ENDROOT
BRANCH   1   2
ATOM      2  C   UNL     1       0.943  -1.985   0.931  0.00  0.00    +0.003 A 
ATOM      3  C   UNL     1       0.582  -3.011   1.740  0.00  0.00    +0.013 A 
ATOM      4  C   UNL     1       0.766  -4.308   1.299  0.00  0.00    +0.023 A 
ATOM      5  C   UNL     1       1.303  -4.516   0.071  0.00  0.00    +0.055 A 
ATOM      6  S   UNL     1       1.558  -2.846  -0.507  0.00  0.00    -0.085 S 
ATOM      7 BR   UNL     1       1.677  -6.149  -0.805  0.00  0.00    -0.043 Br
ENDBRANCH   1   2
BRANCH   1   9
ATOM      8  C   UNL     1      -0.217   1.626   0.412  0.00  0.00    -0.013 C 
ATOM      9  C   UNL     1      -0.054   0.134   0.116  0.00  0.00    -0.060 C 
BRANCH   9  10
ATOM     10  N   UNL     1      -1.371  -0.516   0.135  0.00  0.00    +0.381 N 
ATOM     11  H   UNL     1      -1.963  -0.097  -0.566  0.00  0.00    -0.090 HD
ATOM     12  H   UNL     1      -1.263  -1.500  -0.061  0.00  0.00    -0.090 HD
ATOM     13  H   UNL     1      -1.791  -0.398   1.045  0.00  0.00    -0.090 HD
ENDBRANCH   9  10
ENDBRANCH   1   9
BRANCH   1  14
ATOM     14  S   UNL     1       2.499   0.237   1.092  0.00  0.00    -0.078 S 
BRANCH  14  15
ATOM     15  C   UNL     1       3.339  -0.435   2.488  0.00  0.00    +0.210 A 
ATOM     16  N   UNL     1       2.820  -1.214   3.412  0.00  0.00    -0.101 NA
ATOM     17  N   UNL     1       3.706  -1.524   4.288  0.00  0.00    -0.022 NA
ATOM     18  N   UNL     1       4.836  -0.977   3.996  0.00  0.00    -0.043 NA
ATOM     19  N   UNL     1       4.641  -0.251   2.808  0.00  0.00    -0.217 N 
BRANCH  19  20
ATOM     20  C   UNL     1       5.635   0.538   2.075  0.00  0.00    +0.112 C 
ATOM     21  C   UNL     1       7.093   0.431   2.525  0.00  0.00    +0.029 C 
ATOM     22  C   UNL     1       6.295   1.704   2.814  0.00  0.00    +0.029 C 
ENDBRANCH  19  20
ENDBRANCH  14  15
ENDBRANCH   1  14
TORSDOF 6
