REMARK  Name = ZINC64753295
REMARK  5 active torsions:
REMARK  status: ('A' for Active; 'I' for Inactive)
REMARK    1  A    between atoms: C_1  and  C_2
REMARK    2  A    between atoms: C_2  and  C_3
REMARK    3  A    between atoms: C_2  and  C_4
REMARK    4  A    between atoms: C_4  and  C_5
REMARK    5  A    between atoms: C_4  and  N_6
REMARK                            x       y       z     vdW  Elec       q    Type
REMARK                         _______ _______ _______ _____ _____    ______ ____
ROOT
ATOM      1  N   UNL     1       2.052  -0.205   3.648  0.00  0.00    -0.296 N 
ATOM      2  C   UNL     1       0.738   0.093   3.602  0.00  0.00    +0.302 C 
ATOM      3  O   UNL     1       0.143   0.057   2.542  0.00  0.00    -0.253 OA
ATOM      4  N   UNL     1       0.084   0.431   4.731  0.00  0.00    -0.284 N 
ATOM      5  C   UNL     1       0.869   0.567   5.958  0.00  0.00    +0.111 C 
ATOM      6  C   UNL     1       1.175   2.038   6.157  0.00  0.00    +0.038 C 
ATOM      7  C   UNL     1       0.033   2.723   6.911  0.00  0.00    +0.108 C 
ATOM      8  N   UNL     1      -1.292   2.275   6.456  0.00  0.00    -0.308 N 
ATOM      9  C   UNL     1      -1.635   2.096   5.056  0.00  0.00    +0.126 C 
ATOM     10  C   UNL     1      -1.320   0.635   4.647  0.00  0.00    +0.128 C 
ATOM     11  C   UNL     1      -2.262   2.011   7.411  0.00  0.00    +0.161 A 
ATOM     12  N   UNL     1      -2.170   2.112   8.720  0.00  0.00    -0.233 NA
ATOM     13  C   UNL     1      -3.196   1.820   9.500  0.00  0.00    +0.120 A 
ATOM     14  C   UNL     1      -4.337   1.417   8.892  0.00  0.00    +0.068 A 
ATOM     15  S   UNL     1      -3.846   1.492   7.177  0.00  0.00    -0.061 S 
ATOM     16  H   UNL     1       2.543  -0.103   4.478  0.00  0.00    +0.151 HD
ENDROOT
BRANCH   1  17
ATOM     17  C   UNL     1       2.737  -0.682   2.444  0.00  0.00    +0.074 C 
ATOM     18  C   UNL     1       3.187   0.516   1.605  0.00  0.00    +0.028 C 
BRANCH  17  20
ATOM     19  C   UNL     1       3.507  -2.708   3.685  0.00  0.00    +0.009 C 
ATOM     20  C   UNL     1       3.958  -1.510   2.846  0.00  0.00    +0.003 C 
ATOM     21  C   UNL     1       4.674  -2.009   1.589  0.00  0.00    +0.009 C 
ENDBRANCH  17  20
ENDBRANCH   1  17
TORSDOF 2
