REMARK  Name = ZINC02877405
REMARK  10 active torsions:
REMARK  status: ('A' for Active; 'I' for Inactive)
REMARK    1  A    between atoms: C_1  and  C_2
REMARK    2  A    between atoms: C_5  and  N_8
REMARK    3  A    between atoms: N_8  and  C_9
REMARK    4  A    between atoms: N_8  and  S_27
REMARK    5  A    between atoms: C_9  and  C_10
REMARK    6  A    between atoms: N_12  and  C_13
REMARK    7  A    between atoms: C_14  and  C_26
REMARK    8  A    between atoms: N_15  and  C_25
REMARK    9  A    between atoms: N_16  and  C_19
REMARK   10  A    between atoms: S_27  and  C_30
REMARK                            x       y       z     vdW  Elec       q    Type
REMARK                         _______ _______ _______ _____ _____    ______ ____
ROOT
ATOM      1  C   UNL     1       2.705  -3.398  -3.487  0.00  0.00    +0.227 C 
ENDROOT
BRANCH   1   2
ATOM      2  C   UNL     1       3.152  -4.657  -2.789  0.00  0.00    +0.237 C 
ATOM      3  O   UNL     1       2.329  -5.425  -2.337  0.00  0.00    -0.274 OA
ATOM      4  N   UNL     1       4.466  -4.929  -2.667  0.00  0.00    -0.278 N 
ATOM      5  H   UNL     1       5.125  -4.283  -2.966  0.00  0.00    +0.155 HD
BRANCH   4   6
ATOM      6  C   UNL     1       4.883  -6.152  -2.104  0.00  0.00    +0.121 A 
ATOM      7  C   UNL     1       5.702  -6.307  -1.040  0.00  0.00    +0.059 A 
ATOM      8  N   UNL     1       5.862  -7.647  -0.803  0.00  0.00    -0.282 N 
ATOM      9  N   UNL     1       5.130  -8.371  -1.751  0.00  0.00    -0.216 N 
ATOM     10  C   UNL     1       4.515  -7.490  -2.567  0.00  0.00    +0.293 A 
ATOM     11  O   UNL     1       3.791  -7.758  -3.509  0.00  0.00    -0.264 OA
ATOM     12  C   UNL     1       6.675  -8.229   0.268  0.00  0.00    +0.171 C 
ATOM     13  C   UNL     1       6.330  -5.192  -0.244  0.00  0.00    +0.067 C 
BRANCH   9  14
ATOM     14  C   UNL     1       5.050  -9.764  -1.837  0.00  0.00    +0.067 A 
ATOM     15  C   UNL     1       6.208 -10.531  -1.810  0.00  0.00    +0.028 A 
ATOM     16  C   UNL     1       6.125 -11.907  -1.889  0.00  0.00    +0.002 A 
ATOM     17  C   UNL     1       4.892 -12.522  -2.007  0.00  0.00    +0.000 A 
ATOM     18  C   UNL     1       3.737 -11.761  -2.040  0.00  0.00    +0.002 A 
ATOM     19  C   UNL     1       3.813 -10.384  -1.955  0.00  0.00    +0.028 A 
ENDBRANCH   9  14
ENDBRANCH   4   6
ENDBRANCH   1   2
BRANCH   1  20
ATOM     20  N   UNL     1       1.242  -3.334  -3.489  0.00  0.00    -0.194 N 
BRANCH  20  25
ATOM     21  C   UNL     1      -1.708  -5.981  -7.545  0.00  0.00    +0.044 C 
ATOM     22  C   UNL     1      -0.924  -5.278  -6.467  0.00  0.00    -0.050 A 
ATOM     23  C   UNL     1      -1.099  -5.635  -5.143  0.00  0.00    +0.005 A 
ATOM     24  C   UNL     1      -0.382  -4.992  -4.152  0.00  0.00    +0.025 A 
ATOM     25  C   UNL     1       0.515  -3.986  -4.488  0.00  0.00    +0.052 A 
ATOM     26  C   UNL     1       0.685  -3.627  -5.819  0.00  0.00    +0.025 A 
ATOM     27  C   UNL     1      -0.032  -4.277  -6.805  0.00  0.00    +0.005 A 
ENDBRANCH  20  25
BRANCH  20  28
ATOM     28  S   UNL     1       0.449  -2.488  -2.307  0.00  0.00    +0.075 S 
ATOM     29  O   UNL     1       1.286  -2.512  -1.159  0.00  0.00    -0.150 OA
ATOM     30  O   UNL     1      -0.886  -2.974  -2.286  0.00  0.00    -0.150 OA
BRANCH  28  31
ATOM     31  C   UNL     1       0.364  -0.809  -2.835  0.00  0.00    +0.109 A 
ATOM     32  C   UNL     1      -0.713  -0.373  -3.583  0.00  0.00    +0.030 A 
ATOM     33  C   UNL     1      -0.780   0.944  -3.997  0.00  0.00    +0.022 A 
ATOM     34  C   UNL     1       0.232   1.826  -3.663  0.00  0.00    +0.041 A 
ATOM     35  C   UNL     1       1.311   1.389  -2.914  0.00  0.00    +0.022 A 
ATOM     36  C   UNL     1       1.376   0.072  -2.501  0.00  0.00    +0.030 A 
ATOM     37 CL   UNL     1       0.149   3.480  -4.183  0.00  0.00    -0.084 Cl
ENDBRANCH  28  31
ENDBRANCH  20  28
ENDBRANCH   1  20
TORSDOF 7
