REMARK  Name = ZINC41636092
REMARK  4 active torsions:
REMARK  status: ('A' for Active; 'I' for Inactive)
REMARK    1  A    between atoms: C_6  and  C_7
REMARK    2  A    between atoms: C_7  and  C_9
REMARK    3  A    between atoms: C_7  and  N_18
REMARK    4  A    between atoms: C_10  and  O_17
REMARK                            x       y       z     vdW  Elec       q    Type
REMARK                         _______ _______ _______ _____ _____    ______ ____
ROOT
ATOM      1  C   UNL     1      -1.293  -0.775   0.011  0.00  0.00    +0.006 C 
ENDROOT
BRANCH   1   7
ATOM      2  C   UNL     1      -0.017   1.378   0.010  0.00  0.00    +0.004 A 
ATOM      3  C   UNL     1       1.171   2.086   0.002  0.00  0.00    +0.021 A 
ATOM      4  C   UNL     1       2.378   1.412  -0.013  0.00  0.00    +0.059 A 
ATOM      5  C   UNL     1       2.397   0.027  -0.021  0.00  0.00    +0.059 A 
ATOM      6  C   UNL     1       1.208  -0.680  -0.013  0.00  0.00    +0.023 A 
ATOM      7  C   UNL     1       0.002  -0.004   0.002  0.00  0.00    -0.055 A 
ATOM      8 CL   UNL     1       3.912  -0.821  -0.040  0.00  0.00    -0.082 Cl
ATOM      9 CL   UNL     1       3.869   2.301  -0.023  0.00  0.00    -0.082 Cl
ENDBRANCH   1   7
BRANCH   1  10
ATOM     10  C   UNL     1      -1.585  -1.251   1.410  0.00  0.00    +0.045 A 
ATOM     11  C   UNL     1      -2.593  -0.916   2.224  0.00  0.00    +0.225 A 
ATOM     12  N   UNL     1      -2.690  -1.464   3.481  0.00  0.00    -0.174 N 
ATOM     13  C   UNL     1      -1.725  -2.350   3.851  0.00  0.00    +0.199 A 
ATOM     14  S   UNL     1      -0.679  -2.417   2.416  0.00  0.00    -0.050 S 
ATOM     15  N   UNL     1      -1.962  -2.774   5.062  0.00  0.00    -0.208 NA
ATOM     16  C   UNL     1      -3.067  -2.193   5.524  0.00  0.00    +0.246 A 
ATOM     17  N   UNL     1      -3.547  -1.394   4.609  0.00  0.00    -0.150 NA
BRANCH  11  18
ATOM     18  O   UNL     1      -3.530  -0.025   1.803  0.00  0.00    -0.492 OA
ATOM     19  H   UNL     1      -4.220   0.158   2.455  0.00  0.00    +0.294 HD
ENDBRANCH  11  18
ENDBRANCH   1  10
BRANCH   1  20
ATOM     20  N   UNL     1      -1.180  -1.932  -0.887  0.00  0.00    +0.388 N 
ATOM     21  C   UNL     1      -0.878  -1.466  -2.246  0.00  0.00    -0.070 C 
ATOM     22  C   UNL     1      -0.589  -2.672  -3.147  0.00  0.00    +0.056 C 
ATOM     23  C   UNL     1      -1.764  -3.624  -3.054  0.00  0.00    +0.130 C 
ATOM     24  O   UNL     1      -2.276  -4.083  -4.047  0.00  0.00    -0.298 OA
ATOM     25  C   UNL     1      -2.273  -3.979  -1.673  0.00  0.00    +0.056 C 
ATOM     26  C   UNL     1      -2.442  -2.681  -0.876  0.00  0.00    -0.070 C 
ATOM     27  H   UNL     1      -0.433  -2.531  -0.568  0.00  0.00    -0.080 HD
ENDBRANCH   1  20
TORSDOF 4
