REMARK  Name = ZINC13489219
REMARK  10 active torsions:
REMARK  status: ('A' for Active; 'I' for Inactive)
REMARK    1  A    between atoms: C_1  and  C_2
REMARK    2  A    between atoms: C_5  and  S_8
REMARK    3  A    between atoms: S_8  and  C_11
REMARK    4  A    between atoms: C_13  and  C_32
REMARK    5  A    between atoms: N_14  and  C_19
REMARK    6  A    between atoms: C_17  and  N_18
REMARK    7  A    between atoms: C_19  and  C_20
REMARK    8  A    between atoms: N_22  and  C_23
REMARK    9  A    between atoms: C_23  and  C_24
REMARK   10  A    between atoms: C_29  and  C_30
REMARK                            x       y       z     vdW  Elec       q    Type
REMARK                         _______ _______ _______ _____ _____    ______ ____
ROOT
ATOM      1  C   UNL     1       1.796  -5.903  -0.168  0.00  0.00    +0.121 A 
ATOM      2  C   UNL     1       2.584  -5.675  -1.306  0.00  0.00    +0.050 A 
ATOM      3  C   UNL     1       3.837  -5.183  -1.173  0.00  0.00    +0.021 A 
ATOM      4  N   UNL     1       4.350  -4.905   0.055  0.00  0.00    -0.302 N 
ATOM      5  C   UNL     1       3.622  -5.112   1.169  0.00  0.00    +0.275 A 
ATOM      6  O   UNL     1       4.096  -4.857   2.265  0.00  0.00    -0.266 OA
ATOM      7  C   UNL     1       2.308  -5.618   1.068  0.00  0.00    +0.116 A 
ATOM      8  C   UNL     1       4.675  -4.942  -2.402  0.00  0.00    +0.063 C 
ENDROOT
BRANCH   1   9
ATOM      9  S   UNL     1       0.162  -6.543  -0.331  0.00  0.00    +0.027 S 
ATOM     10  O   UNL     1      -0.341  -6.711   0.988  0.00  0.00    -0.164 OA
ATOM     11  O   UNL     1       0.236  -7.615  -1.260  0.00  0.00    -0.164 OA
BRANCH   9  16
ATOM     12  C   UNL     1      -3.191  -2.246  -2.919  0.00  0.00    +0.044 C 
ATOM     13  C   UNL     1      -2.353  -3.319  -2.273  0.00  0.00    -0.050 A 
ATOM     14  C   UNL     1      -1.691  -4.245  -3.057  0.00  0.00    +0.005 A 
ATOM     15  C   UNL     1      -0.923  -5.230  -2.464  0.00  0.00    +0.027 A 
ATOM     16  C   UNL     1      -0.816  -5.288  -1.087  0.00  0.00    +0.094 A 
ATOM     17  C   UNL     1      -1.478  -4.361  -0.303  0.00  0.00    +0.027 A 
ATOM     18  C   UNL     1      -2.243  -3.374  -0.896  0.00  0.00    +0.005 A 
ENDBRANCH   9  16
ENDBRANCH   1   9
BRANCH   7  19
ATOM     19  N   UNL     1       1.540  -5.832   2.219  0.00  0.00    -0.352 N 
ATOM     20  H   UNL     1       0.591  -5.629   2.214  0.00  0.00    +0.143 HD
ATOM     21  H   UNL     1       1.957  -6.183   3.022  0.00  0.00    +0.143 HD
ENDBRANCH   7  19
BRANCH   4  22
ATOM     22  C   UNL     1       5.711  -4.374   0.168  0.00  0.00    +0.220 C 
BRANCH  22  23
ATOM     23  C   UNL     1       5.668  -2.868   0.119  0.00  0.00    +0.233 C 
ATOM     24  O   UNL     1       4.606  -2.295   0.002  0.00  0.00    -0.274 OA
ATOM     25  N   UNL     1       6.811  -2.159   0.206  0.00  0.00    -0.310 N 
ATOM     26  H   UNL     1       7.661  -2.617   0.300  0.00  0.00    +0.149 HD
BRANCH  25  27
ATOM     27  C   UNL     1       6.769  -0.695   0.158  0.00  0.00    +0.141 C 
BRANCH  27  28
ATOM     28  C   UNL     1       8.169  -0.149   0.274  0.00  0.00    -0.011 A 
ATOM     29  C   UNL     1       8.637   0.329   1.492  0.00  0.00    +0.010 A 
ATOM     30  C   UNL     1       9.928   0.822   1.555  0.00  0.00    +0.041 A 
ATOM     31  C   UNL     1      10.709   0.822   0.404  0.00  0.00    +0.094 A 
ATOM     32  N   UNL     1      10.227   0.358  -0.738  0.00  0.00    -0.347 N 
ATOM     33  C   UNL     1       9.001  -0.124  -0.827  0.00  0.00    +0.019 A 
ATOM     34  C   UNL     1       8.501  -0.647  -2.149  0.00  0.00    +0.063 C 
ATOM     35  N   UNL     1      12.008   1.315   0.453  0.00  0.00    -0.345 N 
ATOM     36  H   UNL     1      12.366   1.656   1.288  0.00  0.00    +0.144 HD
ATOM     37  H   UNL     1      12.557   1.317  -0.346  0.00  0.00    +0.144 HD
ATOM     38  H   UNL     1      10.789   0.368  -1.528  0.00  0.00    +0.167 HD
ENDBRANCH  27  28
ENDBRANCH  25  27
ENDBRANCH  22  23
ENDBRANCH   4  22
TORSDOF 7
