REMARK  Name = ZINC39673266
REMARK  7 active torsions:
REMARK  status: ('A' for Active; 'I' for Inactive)
REMARK    1  A    between atoms: C_3  and  O_34
REMARK    2  A    between atoms: C_6  and  C_7
REMARK    3  A    between atoms: C_7  and  N_8
REMARK    4  A    between atoms: C_9  and  C_11
REMARK    5  A    between atoms: C_22  and  C_24
REMARK    6  A    between atoms: C_27  and  C_30
REMARK    7  A    between atoms: O_34  and  C_35
REMARK                            x       y       z     vdW  Elec       q    Type
REMARK                         _______ _______ _______ _____ _____    ______ ____
ROOT
ATOM      1  C   UNL     1      -3.626  -1.440  -2.644  0.00  0.00    +0.100 C 
ATOM      2  C   UNL     1      -3.875  -0.263  -3.614  0.00  0.00    +0.121 C 
ATOM      3  N   UNL     1      -5.007  -0.708  -4.460  0.00  0.00    -0.296 N 
ATOM      4  C   UNL     1      -5.911  -1.416  -3.523  0.00  0.00    +0.115 C 
ATOM      5  C   UNL     1      -4.965  -2.194  -2.586  0.00  0.00    -0.004 C 
ATOM      6  C   UNL     1      -4.788  -3.625  -3.085  0.00  0.00    -0.010 C 
ATOM      7  C   UNL     1      -6.120  -4.371  -2.965  0.00  0.00    -0.082 C 
ATOM      8  N   UNL     1      -6.559  -4.370  -1.564  0.00  0.00    +0.379 N 
ATOM      9  C   UNL     1      -6.816  -2.995  -1.121  0.00  0.00    -0.082 C 
ATOM     10  C   UNL     1      -5.514  -2.191  -1.163  0.00  0.00    -0.010 C 
ATOM     11  C   UNL     1      -5.176  -0.513  -5.783  0.00  0.00    +0.247 C 
ATOM     12  O   UNL     1      -4.282  -0.023  -6.444  0.00  0.00    -0.270 OA
ATOM     13  H   UNL     1      -7.404  -4.914  -1.478  0.00  0.00    -0.086 HD
ATOM     14  H   UNL     1      -5.839  -4.779  -0.988  0.00  0.00    -0.086 HD
ENDROOT
BRANCH  11  15
ATOM     15  C   UNL     1      -6.449  -0.896  -6.430  0.00  0.00    +0.037 A 
ATOM     16  C   UNL     1      -7.607  -1.046  -5.665  0.00  0.00    +0.013 A 
ATOM     17  C   UNL     1      -8.792  -1.402  -6.274  0.00  0.00    +0.013 A 
ATOM     18  C   UNL     1      -8.834  -1.612  -7.641  0.00  0.00    +0.055 A 
ATOM     19  C   UNL     1      -7.690  -1.466  -8.406  0.00  0.00    +0.013 A 
ATOM     20  C   UNL     1      -6.500  -1.103  -7.809  0.00  0.00    +0.013 A 
BRANCH  18  21
ATOM     21  C   UNL     1     -10.132  -2.002  -8.301  0.00  0.00    +0.417 C 
ATOM     22  F   UNL     1     -10.821  -0.849  -8.691  0.00  0.00    -0.166 F 
ATOM     23  F   UNL     1      -9.865  -2.789  -9.426  0.00  0.00    -0.166 F 
ATOM     24  F   UNL     1     -10.914  -2.729  -7.397  0.00  0.00    -0.166 F 
ENDBRANCH  18  21
ENDBRANCH  11  15
BRANCH   1  26
ATOM     25  N   UNL     1      -2.445  -1.648  -0.480  0.00  0.00    -0.311 N 
ATOM     26  C   UNL     1      -3.256  -0.924  -1.277  0.00  0.00    +0.218 C 
ATOM     27  O   UNL     1      -3.687   0.143  -0.894  0.00  0.00    -0.275 OA
ATOM     28  H   UNL     1      -2.100  -2.501  -0.786  0.00  0.00    +0.149 HD
BRANCH  25  29
ATOM     29  C   UNL     1      -2.085  -1.147   0.848  0.00  0.00    +0.139 C 
BRANCH  29  35
ATOM     30  C   UNL     1       0.194  -2.037   1.374  0.00  0.00    +0.009 A 
ATOM     31  C   UNL     1       1.029  -2.943   1.998  0.00  0.00    +0.046 A 
ATOM     32  C   UNL     1       0.491  -3.954   2.782  0.00  0.00    +0.127 A 
ATOM     33  C   UNL     1      -0.884  -4.053   2.936  0.00  0.00    +0.046 A 
ATOM     34  C   UNL     1      -1.714  -3.144   2.310  0.00  0.00    +0.009 A 
ATOM     35  C   UNL     1      -1.176  -2.137   1.530  0.00  0.00    -0.030 A 
BRANCH  32  36
ATOM     36  O   UNL     1       1.311  -4.848   3.396  0.00  0.00    -0.434 OA
BRANCH  36  37
ATOM     37  C   UNL     1       0.688  -5.862   4.187  0.00  0.00    +0.541 C 
ATOM     38  F   UNL     1      -0.053  -5.265   5.212  0.00  0.00    -0.166 F 
ATOM     39  F   UNL     1      -0.163  -6.625   3.381  0.00  0.00    -0.166 F 
ENDBRANCH  36  37
ENDBRANCH  32  36
ENDBRANCH  29  35
ENDBRANCH  25  29
ENDBRANCH   1  26
TORSDOF 7
