REMARK  Name = ZINC03370457
REMARK  6 active torsions:
REMARK  status: ('A' for Active; 'I' for Inactive)
REMARK    1  A    between atoms: C_1  and  C_2
REMARK    2  A    between atoms: C_2  and  C_3
REMARK    3  A    between atoms: C_3  and  N_4
REMARK    4  A    between atoms: C_14  and  S_15
REMARK    5  A    between atoms: S_15  and  C_16
REMARK    6  A    between atoms: C_16  and  C_17
REMARK                            x       y       z     vdW  Elec       q    Type
REMARK                         _______ _______ _______ _____ _____    ______ ____
ROOT
ATOM      1  S   UNL     1       0.947   3.683   1.011  0.00  0.00    -0.078 S 
ENDROOT
BRANCH   1  12
ATOM      2  N   UNL     1      -0.698   1.558   1.213  0.00  0.00    -0.287 N 
ATOM      3  C   UNL     1      -1.678   0.806   1.766  0.00  0.00    +0.262 A 
ATOM      4  O   UNL     1      -2.003  -0.262   1.281  0.00  0.00    -0.267 OA
ATOM      5  C   UNL     1      -2.333   1.325   2.974  0.00  0.00    +0.065 A 
ATOM      6  C   UNL     1      -3.353   0.623   3.616  0.00  0.00    +0.017 A 
ATOM      7  C   UNL     1      -3.933   1.147   4.737  0.00  0.00    +0.021 A 
ATOM      8  C   UNL     1      -3.517   2.373   5.246  0.00  0.00    +0.043 A 
ATOM      9  C   UNL     1      -2.512   3.087   4.631  0.00  0.00    +0.048 A 
ATOM     10  C   UNL     1      -1.904   2.572   3.483  0.00  0.00    +0.080 A 
ATOM     11  N   UNL     1      -0.913   3.238   2.846  0.00  0.00    -0.223 NA
ATOM     12  C   UNL     1      -0.340   2.752   1.772  0.00  0.00    +0.173 A 
ATOM     13 CL   UNL     1      -4.274   3.011   6.672  0.00  0.00    -0.083 Cl
BRANCH   2  14
ATOM     14  C   UNL     1      -0.013   1.086   0.008  0.00  0.00    +0.127 C 
BRANCH  14  16
ATOM     15  C   UNL     1      -0.037   1.099  -2.490  0.00  0.00    +0.005 C 
ATOM     16  C   UNL     1      -0.753   1.593  -1.232  0.00  0.00    +0.018 C 
ENDBRANCH  14  16
ENDBRANCH   2  14
ENDBRANCH   1  12
BRANCH   1  17
ATOM     17  C   UNL     1       1.002   5.110   2.123  0.00  0.00    +0.173 C 
BRANCH  17  18
ATOM     18  C   UNL     1       2.064   6.072   1.655  0.00  0.00    +0.231 C 
ATOM     19  O   UNL     1       2.719   5.817   0.666  0.00  0.00    -0.274 OA
ATOM     20  N   UNL     1       2.286   7.214   2.334  0.00  0.00    -0.260 N 
ATOM     21  C   UNL     1       1.506   7.546   3.536  0.00  0.00    +0.209 C 
ATOM     22  C   UNL     1       1.144   9.009   3.499  0.00  0.00    +0.235 C 
ATOM     23  O   UNL     1       0.128   9.388   4.040  0.00  0.00    -0.274 OA
ATOM     24  N   UNL     1       1.935   9.899   2.871  0.00  0.00    -0.283 N 
ATOM     25  C   UNL     1       3.087   9.481   2.196  0.00  0.00    +0.055 A 
ATOM     26  C   UNL     1       3.273   8.123   1.921  0.00  0.00    +0.058 A 
ATOM     27  C   UNL     1       4.405   7.693   1.254  0.00  0.00    +0.025 A 
ATOM     28  C   UNL     1       5.362   8.613   0.863  0.00  0.00    +0.002 A 
ATOM     29  C   UNL     1       5.189   9.956   1.139  0.00  0.00    +0.002 A 
ATOM     30  C   UNL     1       4.048  10.397   1.800  0.00  0.00    +0.025 A 
ATOM     31  H   UNL     1       1.704  10.841   2.888  0.00  0.00    +0.155 HD
ENDBRANCH  17  18
ENDBRANCH   1  17
TORSDOF 5
