REMARK  Name = ZINC39413831
REMARK  8 active torsions:
REMARK  status: ('A' for Active; 'I' for Inactive)
REMARK    1  A    between atoms: C_1  and  C_2
REMARK    2  A    between atoms: C_2  and  C_3
REMARK    3  A    between atoms: C_8  and  C_12
REMARK    4  A    between atoms: C_12  and  C_14
REMARK    5  A    between atoms: C_14  and  O_15
REMARK    6  A    between atoms: O_15  and  C_16
REMARK    7  A    between atoms: C_16  and  C_18
REMARK    8  A    between atoms: C_23  and  N_24
REMARK                            x       y       z     vdW  Elec       q    Type
REMARK                         _______ _______ _______ _____ _____    ______ ____
ROOT
ATOM      1  C   UNL     1       9.594  -2.509  -4.923  0.00  0.00    +0.090 A 
ATOM      2  C   UNL     1       9.035  -2.877  -6.147  0.00  0.00    +0.018 A 
ATOM      3  C   UNL     1       9.845  -3.303  -7.183  0.00  0.00    +0.013 A 
ATOM      4  C   UNL     1      11.225  -3.366  -7.010  0.00  0.00    +0.035 A 
ATOM      5  C   UNL     1      11.795  -2.996  -5.779  0.00  0.00    +0.064 A 
ATOM      6  C   UNL     1      10.977  -2.563  -4.741  0.00  0.00    +0.152 A 
ATOM      7  C   UNL     1      13.260  -3.062  -5.592  0.00  0.00    +0.197 C 
ATOM      8  O   UNL     1      13.752  -2.742  -4.528  0.00  0.00    -0.287 OA
ATOM      9  C   UNL     1      14.125  -3.518  -6.700  0.00  0.00    +0.033 A 
ATOM     10  C   UNL     1      15.505  -3.583  -6.532  0.00  0.00    +0.012 A 
ATOM     11  C   UNL     1      16.308  -4.012  -7.575  0.00  0.00    +0.001 A 
ATOM     12  C   UNL     1      15.748  -4.375  -8.786  0.00  0.00    +0.001 A 
ATOM     13  C   UNL     1      14.378  -4.316  -8.970  0.00  0.00    +0.012 A 
ATOM     14  C   UNL     1      13.556  -3.888  -7.932  0.00  0.00    +0.033 A 
ATOM     15  C   UNL     1      12.092  -3.823  -8.120  0.00  0.00    +0.195 C 
ATOM     16  O   UNL     1      11.600  -4.143  -9.184  0.00  0.00    -0.287 OA
ENDROOT
BRANCH   6  17
ATOM     17  N   UNL     1      11.571  -2.167  -3.444  0.00  0.00    +0.058 N 
ATOM     18  O   UNL     1      11.730  -2.992  -2.575  0.00  0.00    -0.126 OA
ATOM     19  O   UNL     1      11.897  -1.018  -3.254  0.00  0.00    -0.126 OA
ENDBRANCH   6  17
BRANCH   1  20
ATOM     20  C   UNL     1       8.721  -2.055  -3.819  0.00  0.00    +0.342 C 
ATOM     21  O   UNL     1       9.208  -1.729  -2.755  0.00  0.00    -0.245 OA
BRANCH  20  22
ATOM     22  O   UNL     1       7.387  -2.002  -3.994  0.00  0.00    -0.453 OA
BRANCH  22  23
ATOM     23  C   UNL     1       6.604  -1.554  -2.885  0.00  0.00    +0.311 C 
BRANCH  23  24
ATOM     24  C   UNL     1       5.146  -1.561  -3.264  0.00  0.00    +0.199 C 
ATOM     25  O   UNL     1       4.809  -1.916  -4.375  0.00  0.00    -0.289 OA
BRANCH  24  31
ATOM     26  C   UNL     1       0.707  -0.490  -1.238  0.00  0.00    -0.024 A 
ATOM     27  C   UNL     1       0.003  -0.812  -2.344  0.00  0.00    +0.005 A 
ATOM     28  C   UNL     1       0.628  -1.268  -3.517  0.00  0.00    +0.001 A 
ATOM     29  C   UNL     1       1.968  -1.413  -3.615  0.00  0.00    +0.010 A 
ATOM     30  C   UNL     1       2.802  -1.105  -2.514  0.00  0.00    +0.007 A 
ATOM     31  C   UNL     1       4.172  -1.156  -2.327  0.00  0.00    +0.027 C 
ATOM     32  C   UNL     1       4.406  -0.688  -0.908  0.00  0.00    +0.152 C 
ATOM     33  N   UNL     1       3.082  -0.386  -0.356  0.00  0.00    -0.380 N 
ATOM     34  C   UNL     1       2.174  -0.615  -1.262  0.00  0.00    +0.046 A 
ATOM     35  H   UNL     1       2.908  -0.062   0.542  0.00  0.00    +0.160 HD
BRANCH  26  37
ATOM     36  C   UNL     1      -0.019   1.526   0.010  0.00  0.00    +0.009 C 
ATOM     37  C   UNL     1       0.002  -0.004   0.002  0.00  0.00    +0.034 C 
ENDBRANCH  26  37
ENDBRANCH  24  31
ENDBRANCH  23  24
ENDBRANCH  22  23
ENDBRANCH  20  22
ENDBRANCH   1  20
TORSDOF 7
