REMARK  Name = ZINC08453286
REMARK  7 active torsions:
REMARK  status: ('A' for Active; 'I' for Inactive)
REMARK    1  A    between atoms: C_1  and  C_2
REMARK    2  A    between atoms: C_2  and  O_3
REMARK    3  A    between atoms: O_3  and  C_4
REMARK    4  A    between atoms: C_7  and  N_10
REMARK    5  A    between atoms: N_11  and  C_12
REMARK    6  A    between atoms: C_18  and  C_27
REMARK    7  A    between atoms: C_20  and  C_21
REMARK                            x       y       z     vdW  Elec       q    Type
REMARK                         _______ _______ _______ _____ _____    ______ ____
ROOT
ATOM      1  C   UNL     1       0.002  -0.004   0.002  0.00  0.00    +0.171 A 
ATOM      2  C   UNL     1      -0.017   1.409   0.010  0.00  0.00    +0.168 A 
ATOM      3  N   UNL     1       1.222   1.844   0.000  0.00  0.00    -0.147 NA
ATOM      4  N   UNL     1       2.100   0.755  -0.014  0.00  0.00    -0.210 N 
ATOM      5  C   UNL     1       1.357  -0.395  -0.013  0.00  0.00    +0.186 A 
ATOM      6  N   UNL     1       1.944  -1.589  -0.025  0.00  0.00    -0.226 NA
ATOM      7  C   UNL     1       3.264  -1.702  -0.038  0.00  0.00    +0.075 A 
ATOM      8  C   UNL     1       4.070  -0.550  -0.039  0.00  0.00    +0.056 A 
ATOM      9  C   UNL     1       3.471   0.681  -0.027  0.00  0.00    +0.077 A 
ATOM     10  N   UNL     1      -1.159   2.206   0.020  0.00  0.00    -0.340 N 
ATOM     11  H   UNL     1      -2.038   1.795   0.022  0.00  0.00    +0.144 HD
ATOM     12  H   UNL     1      -1.076   3.173   0.025  0.00  0.00    +0.144 HD
ENDROOT
BRANCH   9  13
ATOM     13  C   UNL     1       4.288   1.912  -0.028  0.00  0.00    +0.001 A 
ATOM     14  C   UNL     1       3.675   3.161   0.084  0.00  0.00    +0.010 A 
ATOM     15  C   UNL     1       4.444   4.306   0.089  0.00  0.00    +0.001 A 
ATOM     16  C   UNL     1       5.820   4.219  -0.029  0.00  0.00    +0.000 A 
ATOM     17  C   UNL     1       6.434   2.985  -0.146  0.00  0.00    +0.001 A 
ATOM     18  C   UNL     1       5.677   1.831  -0.146  0.00  0.00    +0.010 A 
ENDBRANCH   9  13
BRANCH   7  19
ATOM     19  C   UNL     1       3.892  -3.044  -0.051  0.00  0.00    +0.000 A 
ATOM     20  C   UNL     1       5.281  -3.167  -0.071  0.00  0.00    +0.010 A 
ATOM     21  C   UNL     1       5.860  -4.420  -0.078  0.00  0.00    +0.001 A 
ATOM     22  C   UNL     1       5.066  -5.552  -0.077  0.00  0.00    +0.000 A 
ATOM     23  C   UNL     1       3.687  -5.437  -0.063  0.00  0.00    +0.001 A 
ATOM     24  C   UNL     1       3.096  -4.190  -0.050  0.00  0.00    +0.010 A 
ENDBRANCH   7  19
BRANCH   1  26
ATOM     25  N   UNL     1      -2.261  -0.326   0.023  0.00  0.00    -0.149 NA
ATOM     26  N   UNL     1      -1.071  -0.823   0.009  0.00  0.00    -0.142 NA
BRANCH  25  30
ATOM     27  C   UNL     1      -5.551  -2.837   0.043  0.00  0.00    +0.121 A 
ATOM     28  C   UNL     1      -5.731  -1.459   0.051  0.00  0.00    +0.048 A 
ATOM     29  C   UNL     1      -4.639  -0.619   0.045  0.00  0.00    +0.033 A 
ATOM     30  C   UNL     1      -3.348  -1.155   0.029  0.00  0.00    +0.086 A 
ATOM     31  C   UNL     1      -3.172  -2.542   0.015  0.00  0.00    +0.033 A 
ATOM     32  C   UNL     1      -4.270  -3.374   0.028  0.00  0.00    +0.048 A 
BRANCH  27  33
ATOM     33  O   UNL     1      -6.631  -3.661   0.049  0.00  0.00    -0.492 OA
BRANCH  33  35
ATOM     34  C   UNL     1      -7.702  -5.827   0.048  0.00  0.00    +0.048 C 
ATOM     35  C   UNL     1      -6.375  -5.066   0.040  0.00  0.00    +0.225 C 
ENDBRANCH  33  35
ENDBRANCH  27  33
ENDBRANCH  25  30
ENDBRANCH   1  26
TORSDOF 6
