REMARK  Name = ZINC38598009
REMARK  6 active torsions:
REMARK  status: ('A' for Active; 'I' for Inactive)
REMARK    1  A    between atoms: C_5  and  N_7
REMARK    2  A    between atoms: N_10  and  C_11
REMARK    3  A    between atoms: C_11  and  C_12
REMARK    4  A    between atoms: C_12  and  C_14
REMARK    5  A    between atoms: C_12  and  N_19
REMARK    6  A    between atoms: N_22  and  C_25
REMARK                            x       y       z     vdW  Elec       q    Type
REMARK                         _______ _______ _______ _____ _____    ______ ____
ROOT
ATOM      1  C   UNL     1      -0.827  -6.340   0.559  0.00  0.00    +0.017 C 
ENDROOT
BRANCH   1   2
ATOM      2  N   UNL     1      -0.067  -6.864  -0.584  0.00  0.00    +0.389 N 
ATOM      3  C   UNL     1       0.142  -8.307  -0.411  0.00  0.00    -0.059 C 
ATOM      4  C   UNL     1       1.032  -8.833  -1.542  0.00  0.00    +0.086 C 
ATOM      5  N   UNL     1       0.422  -8.457  -2.827  0.00  0.00    -0.333 N 
ATOM      6  C   UNL     1       0.029  -7.053  -3.024  0.00  0.00    +0.086 C 
ATOM      7  C   UNL     1      -0.813  -6.612  -1.823  0.00  0.00    -0.059 C 
ATOM      8  H   UNL     1       0.828  -6.400  -0.632  0.00  0.00    -0.081 HD
BRANCH   5   9
ATOM      9  C   UNL     1       0.222  -9.408  -3.833  0.00  0.00    +0.030 A 
ATOM     10  C   UNL     1      -0.245  -9.013  -5.080  0.00  0.00    +0.026 A 
ATOM     11  C   UNL     1      -0.442  -9.954  -6.072  0.00  0.00    +0.040 A 
ATOM     12  C   UNL     1      -0.174 -11.290  -5.824  0.00  0.00    +0.124 A 
ATOM     13  C   UNL     1       0.291 -11.685  -4.581  0.00  0.00    +0.040 A 
ATOM     14  C   UNL     1       0.495 -10.748  -3.588  0.00  0.00    +0.026 A 
ATOM     15  F   UNL     1      -0.368 -12.208  -6.795  0.00  0.00    -0.205 F 
ENDBRANCH   5   9
ENDBRANCH   1   2
BRANCH   1  16
ATOM     16  C   UNL     1      -2.115  -7.110   0.701  0.00  0.00    +0.093 A 
ATOM     17  C   UNL     1      -2.718  -7.426   1.860  0.00  0.00    +0.043 A 
ATOM     18  C   UNL     1      -3.890  -8.145   1.529  0.00  0.00    +0.041 A 
ATOM     19  C   UNL     1      -3.932  -8.225   0.187  0.00  0.00    +0.195 A 
ATOM     20  O   UNL     1      -2.857  -7.591  -0.310  0.00  0.00    -0.469 OA
ENDBRANCH   1  16
BRANCH   1  21
ATOM     21  C   UNL     1      -1.140  -4.860   0.328  0.00  0.00    +0.098 C 
BRANCH  21  25
ATOM     22  N   UNL     1       1.237  -2.091  -0.117  0.00  0.00    -0.267 N 
ATOM     23  C   UNL     1       0.087  -2.775   0.040  0.00  0.00    +0.304 C 
ATOM     24  O   UNL     1      -0.974  -2.180   0.076  0.00  0.00    -0.253 OA
ATOM     25  N   UNL     1       0.111  -4.117   0.157  0.00  0.00    -0.300 N 
ATOM     26  H   UNL     1       2.073  -2.569  -0.235  0.00  0.00    +0.156 HD
ATOM     27  H   UNL     1       0.957  -4.591   0.129  0.00  0.00    +0.150 HD
BRANCH  22  32
ATOM     28  C   UNL     1       0.200   1.376   0.543  0.00  0.00    +0.002 A 
ATOM     29  C   UNL     1       1.204   2.078  -0.097  0.00  0.00    +0.003 A 
ATOM     30  C   UNL     1       2.221   1.401  -0.745  0.00  0.00    +0.040 A 
ATOM     31  C   UNL     1       2.236   0.018  -0.753  0.00  0.00    +0.145 A 
ATOM     32  C   UNL     1       1.226  -0.690  -0.110  0.00  0.00    +0.070 A 
ATOM     33  C   UNL     1       0.208  -0.006   0.538  0.00  0.00    +0.026 A 
ATOM     34  F   UNL     1       3.229  -0.644  -1.386  0.00  0.00    -0.204 F 
ENDBRANCH  22  32
ENDBRANCH  21  25
ENDBRANCH   1  21
TORSDOF 6
