REMARK  Name = ZINC53240831
REMARK  7 active torsions:
REMARK  status: ('A' for Active; 'I' for Inactive)
REMARK    1  A    between atoms: C_1  and  C_2
REMARK    2  A    between atoms: C_7  and  C_8
REMARK    3  A    between atoms: C_8  and  C_9
REMARK    4  A    between atoms: C_9  and  C_11
REMARK    5  A    between atoms: C_9  and  N_12
REMARK    6  A    between atoms: C_13  and  C_15
REMARK    7  A    between atoms: C_15  and  N_16
REMARK                            x       y       z     vdW  Elec       q    Type
REMARK                         _______ _______ _______ _____ _____    ______ ____
ROOT
ATOM      1  N   UNL     1      -2.384   0.931   1.812  0.00  0.00    -0.311 N 
ATOM      2  C   UNL     1      -3.688   0.671   1.594  0.00  0.00    +0.231 C 
ATOM      3  O   UNL     1      -4.263  -0.155   2.271  0.00  0.00    -0.274 OA
ATOM      4  H   UNL     1      -1.924   1.591   1.271  0.00  0.00    +0.149 HD
ENDROOT
BRANCH   1   5
ATOM      5  C   UNL     1      -1.661   0.215   2.866  0.00  0.00    +0.074 C 
ATOM      6  C   UNL     1      -1.823   0.960   4.192  0.00  0.00    +0.028 C 
BRANCH   5   7
ATOM      7  C   UNL     1      -0.176   0.137   2.503  0.00  0.00    +0.057 C 
BRANCH   7  14
ATOM      8  C   UNL     1      -0.144  -2.744   2.709  0.00  0.00    +0.044 C 
ATOM      9  C   UNL     1       0.010  -2.083   1.363  0.00  0.00    -0.047 A 
ATOM     10  C   UNL     1       0.162  -2.856   0.227  0.00  0.00    +0.003 A 
ATOM     11  C   UNL     1       0.303  -2.249  -1.007  0.00  0.00    +0.000 A 
ATOM     12  C   UNL     1       0.293  -0.870  -1.105  0.00  0.00    +0.000 A 
ATOM     13  C   UNL     1       0.141  -0.098   0.031  0.00  0.00    +0.004 A 
ATOM     14  C   UNL     1      -0.005  -0.705   1.265  0.00  0.00    -0.043 A 
ENDBRANCH   7  14
ENDBRANCH   5   7
ENDBRANCH   1   5
BRANCH   2  15
ATOM     15  C   UNL     1      -4.433   1.407   0.510  0.00  0.00    +0.213 C 
BRANCH  15  16
ATOM     16  N   UNL     1      -5.824   0.949   0.475  0.00  0.00    -0.215 N 
ATOM     17  C   UNL     1      -6.262  -0.085  -0.271  0.00  0.00    +0.248 C 
ATOM     18  O   UNL     1      -5.604  -0.785  -1.010  0.00  0.00    -0.273 OA
ATOM     19  C   UNL     1      -7.747  -0.189   0.009  0.00  0.00    +0.122 C 
ATOM     20  C   UNL     1      -8.539   0.048  -1.274  0.00  0.00    +0.047 C 
ATOM     21  C   UNL     1      -8.822  -1.303  -1.990  0.00  0.00    +0.072 C 
ATOM     22  S   UNL     1      -9.184  -2.360  -0.519  0.00  0.00    -0.158 S 
ATOM     23  C   UNL     1      -8.047  -1.544   0.678  0.00  0.00    +0.104 C 
ATOM     24  N   UNL     1      -7.999   0.898   0.969  0.00  0.00    -0.284 N 
ATOM     25  C   UNL     1      -6.815   1.502   1.183  0.00  0.00    +0.310 C 
ATOM     26  O   UNL     1      -6.665   2.446   1.934  0.00  0.00    -0.252 OA
ATOM     27  H   UNL     1      -8.850   1.131   1.371  0.00  0.00    +0.151 HD
ENDBRANCH  15  16
ENDBRANCH   2  15
TORSDOF 5
