REMARK  Name = ZINC08636718
REMARK  7 active torsions:
REMARK  status: ('A' for Active; 'I' for Inactive)
REMARK    1  A    between atoms: C_4  and  C_7
REMARK    2  A    between atoms: C_9  and  N_36
REMARK    3  A    between atoms: C_10  and  C_22
REMARK    4  A    between atoms: C_15  and  C_16
REMARK    5  A    between atoms: N_24  and  N_25
REMARK    6  A    between atoms: C_26  and  C_27
REMARK    7  A    between atoms: C_30  and  N_33
REMARK                            x       y       z     vdW  Elec       q    Type
REMARK                         _______ _______ _______ _____ _____    ______ ____
ROOT
ATOM      1  C   UNL     1       3.781  -0.235  -0.627  0.00  0.00    +0.021 A 
ATOM      2  C   UNL     1       4.029  -1.462  -1.311  0.00  0.00    +0.041 A 
ATOM      3  C   UNL     1       3.096  -2.348  -1.981  0.00  0.00    +0.054 A 
ATOM      4  C   UNL     1       3.591  -3.489  -2.577  0.00  0.00    +0.099 A 
ATOM      5  S   UNL     1       5.341  -3.400  -2.248  0.00  0.00    -0.060 S 
ATOM      6  C   UNL     1       5.382  -1.875  -1.341  0.00  0.00    +0.134 A 
ATOM      7  N   UNL     1       6.338  -1.171  -0.773  0.00  0.00    -0.141 NA
ATOM      8  N   UNL     1       6.100  -0.067  -0.158  0.00  0.00    -0.148 NA
ATOM      9  C   UNL     1       4.874   0.436  -0.066  0.00  0.00    +0.102 A 
ENDROOT
BRANCH   1  13
ATOM     10  C   UNL     1      -0.152   1.342  -0.317  0.00  0.00    +0.000 A 
ATOM     11  C   UNL     1       0.490   1.327  -1.542  0.00  0.00    +0.001 A 
ATOM     12  C   UNL     1       1.767   0.817  -1.650  0.00  0.00    +0.008 A 
ATOM     13  C   UNL     1       2.411   0.314  -0.519  0.00  0.00    -0.015 A 
ATOM     14  C   UNL     1       1.759   0.332   0.715  0.00  0.00    +0.008 A 
ATOM     15  C   UNL     1       0.481   0.845   0.808  0.00  0.00    +0.001 A 
ENDBRANCH   1  13
BRANCH   9  16
ATOM     16  C   UNL     1       4.659   1.717   0.648  0.00  0.00    +0.003 A 
ATOM     17  C   UNL     1       3.816   2.687   0.107  0.00  0.00    +0.010 A 
ATOM     18  C   UNL     1       3.620   3.877   0.776  0.00  0.00    +0.001 A 
ATOM     19  C   UNL     1       4.258   4.110   1.982  0.00  0.00    +0.000 A 
ATOM     20  C   UNL     1       5.096   3.151   2.523  0.00  0.00    +0.001 A 
ATOM     21  C   UNL     1       5.295   1.954   1.866  0.00  0.00    +0.010 A 
ENDBRANCH   9  16
BRANCH   4  22
ATOM     22  C   UNL     1       2.857  -4.523  -3.303  0.00  0.00    +0.272 C 
ATOM     23  O   UNL     1       1.651  -4.431  -3.440  0.00  0.00    -0.268 OA
ATOM     24  N   UNL     1       3.516  -5.578  -3.822  0.00  0.00    -0.202 N 
ATOM     25  H   UNL     1       4.477  -5.651  -3.713  0.00  0.00    +0.178 HD
BRANCH  24  26
ATOM     26  N   UNL     1       2.813  -6.570  -4.519  0.00  0.00    -0.187 NA
ATOM     27  C   UNL     1       3.447  -7.586  -5.018  0.00  0.00    +0.138 C 
BRANCH  27  28
ATOM     28  C   UNL     1       2.706  -8.629  -5.752  0.00  0.00    -0.005 A 
ATOM     29  C   UNL     1       1.323  -8.524  -5.915  0.00  0.00    +0.012 A 
ATOM     30  C   UNL     1       0.637  -9.504  -6.602  0.00  0.00    +0.033 A 
ATOM     31  C   UNL     1       1.316 -10.588  -7.129  0.00  0.00    +0.126 A 
ATOM     32  C   UNL     1       2.686 -10.699  -6.971  0.00  0.00    +0.033 A 
ATOM     33  C   UNL     1       3.386  -9.724  -6.291  0.00  0.00    +0.012 A 
BRANCH  31  34
ATOM     34  N   UNL     1       0.573 -11.636  -7.865  0.00  0.00    +0.056 N 
ATOM     35  O   UNL     1      -0.625 -11.542  -8.005  0.00  0.00    -0.126 OA
ATOM     36  O   UNL     1       1.163 -12.584  -8.327  0.00  0.00    -0.126 OA
ENDBRANCH  31  34
ENDBRANCH  27  28
ENDBRANCH  24  26
ENDBRANCH   4  22
BRANCH   3  37
ATOM     37  N   UNL     1       1.739  -2.054  -2.022  0.00  0.00    -0.356 N 
ATOM     38  H   UNL     1       1.363  -1.414  -1.398  0.00  0.00    +0.142 HD
ATOM     39  H   UNL     1       1.168  -2.490  -2.674  0.00  0.00    +0.142 HD
ENDBRANCH   3  37
TORSDOF 7
