REMARK  Name = ZINC38551064
REMARK  6 active torsions:
REMARK  status: ('A' for Active; 'I' for Inactive)
REMARK    1  A    between atoms: C_1  and  C_2
REMARK    2  A    between atoms: N_8  and  C_9
REMARK    3  A    between atoms: C_9  and  C_11
REMARK    4  A    between atoms: C_9  and  C_18
REMARK    5  A    between atoms: C_22  and  N_23
REMARK    6  A    between atoms: C_24  and  C_26
REMARK                            x       y       z     vdW  Elec       q    Type
REMARK                         _______ _______ _______ _____ _____    ______ ____
ROOT
ATOM      1  C   UNL     1      -0.103  -2.213   3.566  0.00  0.00    +0.136 C 
ENDROOT
BRANCH   1   9
ATOM      2  C   UNL     1       1.976   0.119  -0.496  0.00  0.00    +0.044 C 
ATOM      3  C   UNL     1       1.635   0.533   0.912  0.00  0.00    -0.046 A 
ATOM      4  C   UNL     1       1.889   1.825   1.354  0.00  0.00    +0.021 A 
ATOM      5  C   UNL     1       1.564   2.173   2.650  0.00  0.00    +0.084 A 
ATOM      6  N   UNL     1       1.017   1.295   3.469  0.00  0.00    -0.350 N 
ATOM      7  C   UNL     1       0.760   0.054   3.086  0.00  0.00    +0.097 A 
ATOM      8  C   UNL     1       1.056  -0.363   1.792  0.00  0.00    +0.045 A 
ATOM      9  N   UNL     1       0.184  -0.839   3.983  0.00  0.00    -0.320 N 
ATOM     10  H   UNL     1      -0.028  -0.551   4.885  0.00  0.00    +0.148 HD
ATOM     11  H   UNL     1       0.799   1.565   4.375  0.00  0.00    +0.166 HD
ENDBRANCH   1   9
BRANCH   1  12
ATOM     12  C   UNL     1      -0.311  -3.075   4.785  0.00  0.00    +0.009 A 
ATOM     13  C   UNL     1      -1.161  -2.649   5.806  0.00  0.00    -0.030 A 
ATOM     14  C   UNL     1      -1.296  -3.481   6.873  0.00  0.00    -0.005 A 
ATOM     15  S   UNL     1      -0.253  -4.858   6.474  0.00  0.00    -0.078 S 
ATOM     16  C   UNL     1       0.326  -4.272   4.889  0.00  0.00    +0.078 A 
ATOM     17  C   UNL     1      -2.134  -3.270   8.092  0.00  0.00    +0.043 C 
ATOM     18  C   UNL     1      -2.551  -1.792   8.142  0.00  0.00    +0.005 C 
ATOM     19  C   UNL     1      -3.072  -1.382   6.762  0.00  0.00    +0.005 C 
ATOM     20  C   UNL     1      -1.917  -1.324   5.762  0.00  0.00    +0.036 C 
BRANCH  16  21
ATOM     21  N   UNL     1       1.204  -4.883   3.992  0.00  0.00    -0.273 N 
ATOM     22  C   UNL     1       1.754  -6.076   4.294  0.00  0.00    +0.284 C 
ATOM     23  O   UNL     1       1.484  -6.621   5.348  0.00  0.00    -0.266 OA
ATOM     24  H   UNL     1       1.419  -4.448   3.152  0.00  0.00    +0.156 HD
BRANCH  22  25
ATOM     25  C   UNL     1       2.676  -6.717   3.352  0.00  0.00    +0.189 A 
ATOM     26  C   UNL     1       3.296  -7.921   3.530  0.00  0.00    +0.054 A 
ATOM     27  C   UNL     1       4.081  -8.144   2.388  0.00  0.00    +0.042 A 
ATOM     28  C   UNL     1       3.909  -7.079   1.573  0.00  0.00    +0.196 A 
ATOM     29  O   UNL     1       3.058  -6.224   2.156  0.00  0.00    -0.458 OA
ENDBRANCH  22  25
ENDBRANCH  16  21
ENDBRANCH   1  12
BRANCH   1  30
ATOM     30  C   UNL     1      -1.350  -2.231   2.720  0.00  0.00    -0.004 A 
ATOM     31  C   UNL     1      -2.207  -1.146   2.727  0.00  0.00    +0.007 A 
ATOM     32  C   UNL     1      -3.350  -1.163   1.951  0.00  0.00    +0.000 A 
ATOM     33  C   UNL     1      -3.638  -2.264   1.167  0.00  0.00    +0.001 A 
ATOM     34  C   UNL     1      -2.783  -3.349   1.158  0.00  0.00    +0.020 A 
ATOM     35  C   UNL     1      -1.635  -3.331   1.931  0.00  0.00    +0.046 A 
ATOM     36 CL   UNL     1      -0.556  -4.691   1.915  0.00  0.00    -0.083 Cl
ENDBRANCH   1  30
TORSDOF 5
