REMARK  Name = ZINC39012026
REMARK  9 active torsions:
REMARK  status: ('A' for Active; 'I' for Inactive)
REMARK    1  A    between atoms: C_1  and  O_2
REMARK    2  A    between atoms: O_2  and  C_3
REMARK    3  A    between atoms: C_9  and  C_29
REMARK    4  A    between atoms: C_11  and  N_13
REMARK    5  A    between atoms: C_14  and  C_16
REMARK    6  A    between atoms: C_16  and  N_17
REMARK    7  A    between atoms: N_20  and  C_23
REMARK    8  A    between atoms: C_29  and  O_31
REMARK    9  A    between atoms: O_31  and  C_32
REMARK                            x       y       z     vdW  Elec       q    Type
REMARK                         _______ _______ _______ _____ _____    ______ ____
ROOT
ATOM      1  N   UNL     1      -0.520  -3.972   0.265  0.00  0.00    -0.285 N 
ATOM      2  C   UNL     1      -1.055  -3.100   1.142  0.00  0.00    +0.231 C 
ATOM      3  O   UNL     1      -0.957  -1.907   0.948  0.00  0.00    -0.274 OA
ATOM      4  H   UNL     1      -0.662  -4.925   0.380  0.00  0.00    +0.155 HD
ENDROOT
BRANCH   1  12
ATOM      5  C   UNL     1       1.183  -5.711  -1.806  0.00  0.00    +0.131 A 
ATOM      6  C   UNL     1       1.980  -6.164  -2.818  0.00  0.00    +0.046 A 
ATOM      7  C   UNL     1       2.577  -5.288  -3.721  0.00  0.00    +0.006 A 
ATOM      8  C   UNL     1       2.409  -3.944  -3.656  0.00  0.00    +0.026 A 
ATOM      9  C   UNL     1       1.603  -3.368  -2.645  0.00  0.00    +0.048 A 
ATOM     10  N   UNL     1       1.294  -2.114  -2.380  0.00  0.00    -0.367 N 
ATOM     11  C   UNL     1       0.413  -2.076  -1.208  0.00  0.00    +0.234 C 
ATOM     12  C   UNL     1       0.223  -3.515  -0.783  0.00  0.00    +0.056 C 
ATOM     13  C   UNL     1       0.952  -4.271  -1.678  0.00  0.00    +0.059 A 
ATOM     14  H   UNL     1       1.599  -1.341  -2.880  0.00  0.00    +0.161 HD
BRANCH   5  16
ATOM     15  C   UNL     1       0.887  -7.969  -1.133  0.00  0.00    +0.277 C 
ATOM     16  O   UNL     1       0.611  -6.580  -0.938  0.00  0.00    -0.494 OA
ENDBRANCH   5  16
BRANCH  11  17
ATOM     17  C   UNL     1      -0.913  -1.462  -1.574  0.00  0.00    +0.335 C 
ATOM     18  O   UNL     1      -1.432  -1.731  -2.631  0.00  0.00    -0.248 OA
BRANCH  17  19
ATOM     19  O   UNL     1      -1.517  -0.615  -0.725  0.00  0.00    -0.466 OA
ATOM     20  C   UNL     1      -2.772  -0.070  -1.137  0.00  0.00    +0.280 C 
ENDBRANCH  17  19
ENDBRANCH  11  17
ENDBRANCH   1  12
BRANCH   2  21
ATOM     21  C   UNL     1      -1.777  -3.607   2.364  0.00  0.00    +0.180 C 
BRANCH  21  22
ATOM     22  N   UNL     1      -2.264  -2.468   3.153  0.00  0.00    -0.298 NA
ATOM     23  C   UNL     1      -1.145  -1.696   3.710  0.00  0.00    +0.066 C 
ATOM     24  C   UNL     1      -1.692  -0.488   4.473  0.00  0.00    -0.063 C 
ATOM     25  N   UNL     1      -2.576  -0.949   5.552  0.00  0.00    +0.383 N 
ATOM     26  C   UNL     1      -3.702  -1.698   4.978  0.00  0.00    -0.063 C 
ATOM     27  C   UNL     1      -3.171  -2.916   4.219  0.00  0.00    +0.066 C 
ATOM     28  H   UNL     1      -2.058  -1.548   6.178  0.00  0.00    -0.081 HD
BRANCH  25  29
ATOM     29  C   UNL     1      -3.087   0.210   6.296  0.00  0.00    -0.068 C 
ATOM     30  C   UNL     1      -1.914   0.989   6.895  0.00  0.00    -0.015 C 
ATOM     31  C   UNL     1      -2.446   2.196   7.669  0.00  0.00    -0.002 C 
ATOM     32  C   UNL     1      -3.367   1.716   8.793  0.00  0.00    -0.000 C 
ATOM     33  C   UNL     1      -4.540   0.937   8.194  0.00  0.00    -0.002 C 
ATOM     34  C   UNL     1      -4.008  -0.270   7.419  0.00  0.00    -0.015 C 
ENDBRANCH  25  29
ENDBRANCH  21  22
ENDBRANCH   2  21
TORSDOF 7
