REMARK  Name = ZINC12546634
REMARK  9 active torsions:
REMARK  status: ('A' for Active; 'I' for Inactive)
REMARK    1  A    between atoms: C_1  and  C_2
REMARK    2  A    between atoms: C_2  and  C_4
REMARK    3  A    between atoms: C_2  and  O_16
REMARK    4  A    between atoms: N_9  and  C_10
REMARK    5  A    between atoms: O_16  and  C_17
REMARK    6  A    between atoms: C_17  and  C_19
REMARK    7  A    between atoms: C_22  and  N_25
REMARK    8  A    between atoms: N_25  and  S_26
REMARK    9  A    between atoms: S_26  and  C_29
REMARK                            x       y       z     vdW  Elec       q    Type
REMARK                         _______ _______ _______ _____ _____    ______ ____
ROOT
ATOM      1  C   UNL     1       4.941  -2.834   4.466  0.00  0.00    +0.340 C 
ATOM      2  O   UNL     1       5.839  -2.961   5.274  0.00  0.00    -0.245 OA
ENDROOT
BRANCH   1   3
ATOM      3  C   UNL     1       4.801  -1.577   3.711  0.00  0.00    +0.059 A 
ATOM      4  C   UNL     1       5.702  -0.528   3.923  0.00  0.00    +0.017 A 
ATOM      5  C   UNL     1       5.569   0.641   3.219  0.00  0.00    +0.025 A 
ATOM      6  C   UNL     1       4.540   0.784   2.292  0.00  0.00    +0.048 A 
ATOM      7  C   UNL     1       3.638  -0.256   2.082  0.00  0.00    +0.025 A 
ATOM      8  C   UNL     1       3.768  -1.429   2.780  0.00  0.00    +0.017 A 
BRANCH   6   9
ATOM      9  N   UNL     1       4.409   1.970   1.579  0.00  0.00    -0.216 N 
ATOM     10  H   UNL     1       4.052   2.761   2.014  0.00  0.00    +0.174 HD
BRANCH   9  11
ATOM     11  S   UNL     1       4.861   2.034  -0.013  0.00  0.00    +0.079 S 
ATOM     12  O   UNL     1       4.652   3.373  -0.441  0.00  0.00    -0.149 OA
ATOM     13  O   UNL     1       4.248   0.924  -0.654  0.00  0.00    -0.149 OA
BRANCH  11  14
ATOM     14  C   UNL     1       6.600   1.752  -0.072  0.00  0.00    +0.147 A 
ATOM     15  C   UNL     1       7.272   0.577  -0.116  0.00  0.00    +0.038 A 
ATOM     16  C   UNL     1       8.654   0.596  -0.158  0.00  0.00    +0.030 A 
ATOM     17  C   UNL     1       9.295   1.791  -0.153  0.00  0.00    +0.080 A 
ATOM     18  S   UNL     1       7.931   2.941  -0.088  0.00  0.00    -0.057 S 
ATOM     19 CL   UNL     1      10.999   2.119  -0.199  0.00  0.00    -0.076 Cl
ENDBRANCH  11  14
ENDBRANCH   9  11
ENDBRANCH   6   9
ENDBRANCH   1   3
BRANCH   1  20
ATOM     20  O   UNL     1       4.072  -3.844   4.260  0.00  0.00    -0.449 OA
BRANCH  20  22
ATOM     21  C   UNL     1       3.483  -4.952   6.347  0.00  0.00    +0.062 C 
ATOM     22  C   UNL     1       4.270  -5.053   5.039  0.00  0.00    +0.259 C 
BRANCH  22  23
ATOM     23  C   UNL     1       3.785  -6.243   4.252  0.00  0.00    +0.261 C 
ATOM     24  O   UNL     1       3.318  -6.087   3.144  0.00  0.00    -0.271 OA
ATOM     25  N   UNL     1       3.870  -7.480   4.779  0.00  0.00    -0.237 N 
ATOM     26  C   UNL     1       3.436  -8.544   4.075  0.00  0.00    +0.306 C 
ATOM     27  O   UNL     1       2.968  -8.388   2.964  0.00  0.00    -0.252 OA
ATOM     28  N   UNL     1       3.521  -9.782   4.603  0.00  0.00    -0.296 N 
ATOM     29  H   UNL     1       4.243  -7.605   5.666  0.00  0.00    +0.159 HD
ATOM     30  H   UNL     1       3.894  -9.906   5.489  0.00  0.00    +0.151 HD
BRANCH  28  31
ATOM     31  C   UNL     1       3.049 -10.938   3.837  0.00  0.00    +0.074 C 
ATOM     32  C   UNL     1       1.543 -11.110   4.049  0.00  0.00    +0.022 C 
ATOM     33  C   UNL     1       1.051 -12.318   3.249  0.00  0.00    +0.002 C 
ATOM     34  C   UNL     1       1.780 -13.577   3.725  0.00  0.00    +0.000 C 
ATOM     35  C   UNL     1       3.285 -13.405   3.514  0.00  0.00    +0.002 C 
ATOM     36  C   UNL     1       3.778 -12.197   4.313  0.00  0.00    +0.022 C 
ENDBRANCH  28  31
ENDBRANCH  22  23
ENDBRANCH  20  22
ENDBRANCH   1  20
TORSDOF 8
