REMARK  Name = ZINC53162789
REMARK  3 active torsions:
REMARK  status: ('A' for Active; 'I' for Inactive)
REMARK    1  A    between atoms: C_5  and  N_10
REMARK    2  A    between atoms: C_6  and  N_7
REMARK    3  A    between atoms: N_10  and  C_11
REMARK                            x       y       z     vdW  Elec       q    Type
REMARK                         _______ _______ _______ _____ _____    ______ ____
ROOT
ATOM      1  C   UNL     1       0.223  -0.419  -3.115  0.00  0.00    +0.037 A 
ATOM      2  C   UNL     1       0.878   0.795  -3.021  0.00  0.00    +0.043 A 
ATOM      3  C   UNL     1       1.680   1.069  -1.926  0.00  0.00    +0.160 A 
ATOM      4  C   UNL     1       1.828   0.127  -0.922  0.00  0.00    +0.181 A 
ATOM      5  C   UNL     1       1.169  -1.094  -1.017  0.00  0.00    +0.096 A 
ATOM      6  C   UNL     1       0.366  -1.363  -2.117  0.00  0.00    +0.150 A 
ATOM      7  F   UNL     1       2.611   0.392   0.146  0.00  0.00    -0.200 F 
ATOM      8  F   UNL     1       2.320   2.256  -1.838  0.00  0.00    -0.202 F 
ENDROOT
BRANCH   6   9
ATOM      9  N   UNL     1      -0.337  -2.661  -2.220  0.00  0.00    +0.058 N 
ATOM     10  O   UNL     1      -0.952  -2.938  -3.224  0.00  0.00    -0.126 OA
ATOM     11  O   UNL     1      -0.297  -3.445  -1.300  0.00  0.00    -0.126 OA
ENDBRANCH   6   9
BRANCH   5  12
ATOM     12  N   UNL     1       1.316  -2.049  -0.006  0.00  0.00    -0.335 N 
ATOM     13  H   UNL     1       0.567  -2.260   0.574  0.00  0.00    +0.147 HD
BRANCH  12  14
ATOM     14  C   UNL     1       2.599  -2.731   0.178  0.00  0.00    +0.093 C 
ATOM     15  C   UNL     1       2.837  -2.977   1.677  0.00  0.00    +0.046 C 
ATOM     16  C   UNL     1       4.030  -3.965   1.822  0.00  0.00    +0.168 C 
ATOM     17  S   UNL     1       3.659  -5.144   0.456  0.00  0.00    -0.029 S 
ATOM     18  O   UNL     1       4.858  -5.419  -0.255  0.00  0.00    -0.174 OA
ATOM     19  O   UNL     1       2.890  -6.222   0.972  0.00  0.00    -0.174 OA
ATOM     20  C   UNL     1       2.578  -4.079  -0.581  0.00  0.00    +0.188 C 
ENDBRANCH  12  14
ENDBRANCH   5  12
TORSDOF 3
