REMARK  Name = ZINC42134658
REMARK  5 active torsions:
REMARK  status: ('A' for Active; 'I' for Inactive)
REMARK    1  A    between atoms: C_1  and  C_2
REMARK    2  A    between atoms: C_2  and  C_4
REMARK    3  A    between atoms: C_2  and  N_10
REMARK    4  A    between atoms: N_8  and  C_9
REMARK    5  A    between atoms: N_10  and  C_11
REMARK                            x       y       z     vdW  Elec       q    Type
REMARK                         _______ _______ _______ _____ _____    ______ ____
ROOT
ATOM      1  C   UNL     1       2.247  -0.419   0.810  0.00  0.00    +0.176 C 
ATOM      2  C   UNL     1       2.685  -1.657   0.063  0.00  0.00    +0.035 A 
ATOM      3  C   UNL     1       3.645  -2.273   0.856  0.00  0.00    +0.044 A 
ATOM      4  C   UNL     1       4.233  -3.455   0.410  0.00  0.00    +0.062 A 
ATOM      5  C   UNL     1       3.862  -3.999  -0.805  0.00  0.00    +0.128 A 
ATOM      6  C   UNL     1       2.904  -3.377  -1.587  0.00  0.00    +0.077 A 
ATOM      7  C   UNL     1       2.316  -2.201  -1.149  0.00  0.00    +0.133 A 
ATOM      8  F   UNL     1       1.380  -1.589  -1.908  0.00  0.00    -0.205 F 
ATOM      9  F   UNL     1       4.437  -5.145  -1.231  0.00  0.00    -0.205 F 
ATOM     10  N   UNL     1       3.847  -1.539   2.026  0.00  0.00    -0.283 N 
ATOM     11  C   UNL     1       3.072  -0.439   2.079  0.00  0.00    +0.239 C 
ATOM     12  O   UNL     1       3.039   0.379   2.973  0.00  0.00    -0.273 OA
ATOM     13  H   UNL     1       4.475  -1.791   2.720  0.00  0.00    +0.155 HD
ENDROOT
BRANCH   1  14
ATOM     14  N   UNL     1       0.814  -0.489   1.126  0.00  0.00    -0.293 NA
ATOM     15  H   UNL     1       0.650  -0.300   2.104  0.00  0.00    +0.124 HD
BRANCH  14  17
ATOM     16  C   UNL     1       0.018   1.817   0.914  0.00  0.00    +0.032 C 
ATOM     17  C   UNL     1       0.042   0.427   0.276  0.00  0.00    +0.120 C 
BRANCH  17  18
ATOM     18  C   UNL     1      -1.369  -0.086   0.137  0.00  0.00    +0.150 A 
ATOM     19  N   UNL     1      -2.127  -0.535   1.100  0.00  0.00    -0.133 NA
ATOM     20  N   UNL     1      -3.268  -0.888   0.624  0.00  0.00    -0.138 NA
ATOM     21  C   UNL     1      -3.290  -0.679  -0.664  0.00  0.00    +0.224 A 
ATOM     22  N   UNL     1      -2.087  -0.159  -1.009  0.00  0.00    -0.319 N 
ATOM     23  C   UNL     1      -1.651   0.239  -2.349  0.00  0.00    +0.151 C 
ENDBRANCH  17  18
ENDBRANCH  14  17
ENDBRANCH   1  14
TORSDOF 3
