REMARK  Name = ZINC12031927
REMARK  8 active torsions:
REMARK  status: ('A' for Active; 'I' for Inactive)
REMARK    1  A    between atoms: C_1  and  C_2
REMARK    2  A    between atoms: C_4  and  C_11
REMARK    3  A    between atoms: C_9  and  C_10
REMARK    4  A    between atoms: N_13  and  C_14
REMARK    5  A    between atoms: N_13  and  C_33
REMARK    6  A    between atoms: C_14  and  C_15
REMARK    7  A    between atoms: C_23  and  N_24
REMARK    8  A    between atoms: C_33  and  C_34
REMARK                            x       y       z     vdW  Elec       q    Type
REMARK                         _______ _______ _______ _____ _____    ______ ____
ROOT
ATOM      1  C   UNL     1      -1.849  -0.460   0.127  0.00  0.00    +0.146 C 
ENDROOT
BRANCH   1   2
ATOM      2  C   UNL     1      -0.780  -1.393  -0.380  0.00  0.00    +0.008 A 
ATOM      3  C   UNL     1      -1.060  -2.269  -1.386  0.00  0.00    +0.018 A 
ATOM      4  C   UNL     1      -0.034  -3.129  -1.827  0.00  0.00    -0.001 A 
ATOM      5  C   UNL     1      -0.252  -4.058  -2.854  0.00  0.00    +0.014 A 
ATOM      6  C   UNL     1       0.760  -4.879  -3.259  0.00  0.00    -0.043 A 
ATOM      7  C   UNL     1       2.017  -4.805  -2.659  0.00  0.00    -0.042 A 
ATOM      8  C   UNL     1       2.260  -3.911  -1.657  0.00  0.00    +0.030 A 
ATOM      9  C   UNL     1       1.242  -3.051  -1.218  0.00  0.00    +0.048 A 
ATOM     10  C   UNL     1       0.506  -1.359   0.178  0.00  0.00    +0.104 A 
ATOM     11  C   UNL     1       2.942  -5.823  -3.296  0.00  0.00    +0.036 C 
ATOM     12  C   UNL     1       2.013  -6.815  -4.026  0.00  0.00    +0.009 C 
ATOM     13  C   UNL     1       0.772  -5.949  -4.331  0.00  0.00    +0.036 C 
ATOM     14  N   UNL     1       1.529  -2.162  -0.206  0.00  0.00    -0.343 N 
ATOM     15  H   UNL     1       2.458  -2.110   0.230  0.00  0.00    +0.167 HD
BRANCH  10  16
ATOM     16  N   UNL     1       0.778  -0.457   1.196  0.00  0.00    -0.312 N 
ATOM     17  C   UNL     1      -0.171  -0.615   2.308  0.00  0.00    +0.134 C 
ATOM     18  C   UNL     1       0.201   0.355   3.432  0.00  0.00    +0.178 C 
ATOM     19  O   UNL     1       0.215   1.690   2.917  0.00  0.00    -0.377 OA
ATOM     20  C   UNL     1       1.129   1.879   1.834  0.00  0.00    +0.178 C 
ATOM     21  C   UNL     1       0.766   0.924   0.694  0.00  0.00    +0.134 C 
ENDBRANCH  10  16
ENDBRANCH   1   2
BRANCH   1  24
ATOM     22  C   UNL     1      -3.723  -0.453  -1.430  0.00  0.00    +0.252 C 
ATOM     23  O   UNL     1      -4.109  -1.491  -0.927  0.00  0.00    -0.270 OA
ATOM     24  N   UNL     1      -2.575   0.114  -1.008  0.00  0.00    -0.290 N 
BRANCH  22  28
ATOM     25  C   UNL     1      -4.400   0.719  -6.244  0.00  0.00    +0.045 C 
ATOM     26  C   UNL     1      -4.848   0.755  -4.805  0.00  0.00    -0.031 A 
ATOM     27  C   UNL     1      -4.076   0.139  -3.820  0.00  0.00    +0.023 A 
ATOM     28  C   UNL     1      -4.510   0.185  -2.497  0.00  0.00    +0.101 A 
ATOM     29  C   UNL     1      -5.726   0.851  -2.198  0.00  0.00    +0.261 A 
ATOM     30  O   UNL     1      -6.129   0.901  -1.049  0.00  0.00    -0.267 OA
ATOM     31  N   UNL     1      -6.430   1.435  -3.186  0.00  0.00    -0.326 N 
ATOM     32  H   UNL     1      -7.258   1.893  -2.976  0.00  0.00    +0.169 HD
ATOM     33  C   UNL     1      -6.002   1.387  -4.471  0.00  0.00    +0.019 A 
ATOM     34  C   UNL     1      -6.824   2.046  -5.548  0.00  0.00    +0.063 C 
ENDBRANCH  22  28
BRANCH  24  35
ATOM     35  C   UNL     1      -2.054   1.304  -1.686  0.00  0.00    +0.140 C 
BRANCH  35  36
ATOM     36  C   UNL     1      -2.537   2.559  -0.957  0.00  0.00    +0.136 C 
ATOM     37  C   UNL     1      -1.945   3.814  -1.627  0.00  0.00    +0.035 C 
ATOM     38  C   UNL     1      -3.185   4.638  -2.051  0.00  0.00    +0.031 C 
ATOM     39  C   UNL     1      -4.288   4.065  -1.125  0.00  0.00    +0.160 C 
ATOM     40  O   UNL     1      -3.967   2.659  -1.051  0.00  0.00    -0.375 OA
ENDBRANCH  35  36
ENDBRANCH  24  35
ENDBRANCH   1  24
TORSDOF 6
