REMARK  Name = ZINC20830607
REMARK  6 active torsions:
REMARK  status: ('A' for Active; 'I' for Inactive)
REMARK    1  A    between atoms: C_12  and  C_14
REMARK    2  A    between atoms: C_14  and  C_15
REMARK    3  A    between atoms: C_15  and  S_16
REMARK    4  A    between atoms: S_16  and  C_17
REMARK    5  A    between atoms: C_20  and  C_23
REMARK    6  A    between atoms: N_21  and  N_22
REMARK                            x       y       z     vdW  Elec       q    Type
REMARK                         _______ _______ _______ _____ _____    ______ ____
ROOT
ATOM      1  C   UNL     1       3.572   2.225   0.624  0.00  0.00    +0.086 C 
ENDROOT
BRANCH   1   2
ATOM      2  C   UNL     1       2.367   1.317   0.877  0.00  0.00    +0.107 C 
BRANCH   2  14
ATOM      3  C   UNL     1      -5.713   3.572   2.260  0.00  0.00    +0.017 A 
ATOM      4  C   UNL     1      -4.801   2.557   2.131  0.00  0.00    +0.030 A 
ATOM      5  C   UNL     1      -3.438   2.838   1.877  0.00  0.00    +0.080 A 
ATOM      6  C   UNL     1      -3.092   4.205   1.768  0.00  0.00    +0.042 A 
ATOM      7  C   UNL     1      -4.012   5.215   1.898  0.00  0.00    +0.032 A 
ATOM      8  C   UNL     1      -5.338   4.903   2.147  0.00  0.00    +0.019 A 
ATOM      9 BR   UNL     1      -6.623   6.278   2.330  0.00  0.00    -0.050 Br
ATOM     10  S   UNL     1      -1.343   4.129   1.465  0.00  0.00    -0.052 S 
ATOM     11  C   UNL     1      -1.188   2.348   1.491  0.00  0.00    +0.165 A 
ATOM     12  N   UNL     1      -2.421   1.963   1.725  0.00  0.00    -0.225 NA
ATOM     13  N   UNL     1      -0.054   1.572   1.314  0.00  0.00    -0.265 N 
ATOM     14  C   UNL     1       1.135   2.161   1.075  0.00  0.00    +0.219 C 
ATOM     15  O   UNL     1       1.212   3.370   1.020  0.00  0.00    -0.275 OA
ATOM     16  H   UNL     1      -0.124   0.476   1.369  0.00  0.00    +0.157 HD
ENDBRANCH   2  14
ENDBRANCH   1   2
BRANCH   1  17
ATOM     17  S   UNL     1       5.052   1.211   0.386  0.00  0.00    -0.084 S 
BRANCH  17  18
ATOM     18  C   UNL     1       6.250   2.475   0.122  0.00  0.00    +0.209 A 
ATOM     19  N   UNL     1       6.027   3.772   0.113  0.00  0.00    -0.121 NA
ATOM     20  N   UNL     1       7.123   4.407  -0.105  0.00  0.00    -0.127 NA
ATOM     21  C   UNL     1       8.111   3.555  -0.258  0.00  0.00    +0.182 A 
ATOM     22  N   UNL     1       7.582   2.292  -0.117  0.00  0.00    -0.224 N 
BRANCH  21  23
ATOM     23  C   UNL     1       9.525   3.889  -0.529  0.00  0.00    +0.024 A 
ATOM     24  C   UNL     1      10.012   5.184  -0.315  0.00  0.00    +0.031 A 
ATOM     25  C   UNL     1      11.340   5.450  -0.576  0.00  0.00    +0.111 A 
ATOM     26  N   UNL     1      12.143   4.508  -1.032  0.00  0.00    -0.263 NA
ATOM     27  C   UNL     1      11.723   3.276  -1.254  0.00  0.00    +0.111 A 
ATOM     28  C   UNL     1      10.413   2.921  -1.014  0.00  0.00    +0.031 A 
ENDBRANCH  21  23
BRANCH  22  29
ATOM     29  N   UNL     1       8.249   1.104  -0.198  0.00  0.00    -0.295 N 
ATOM     30  H   UNL     1       9.331   1.093  -0.398  0.00  0.00    +0.163 HD
ATOM     31  H   UNL     1       7.705   0.157  -0.065  0.00  0.00    +0.163 HD
ENDBRANCH  22  29
ENDBRANCH  17  18
ENDBRANCH   1  17
TORSDOF 6
