REMARK  Name = ZINC25336483
REMARK  13 active torsions:
REMARK  status: ('A' for Active; 'I' for Inactive)
REMARK    1  A    between atoms: C_1  and  C_2
REMARK    2  A    between atoms: C_2  and  O_3
REMARK    3  A    between atoms: O_3  and  C_4
REMARK    4  A    between atoms: C_6  and  C_11
REMARK    5  A    between atoms: C_9  and  O_10
REMARK    6  A    between atoms: N_12  and  N_13
REMARK    7  A    between atoms: N_13  and  C_14
REMARK    8  A    between atoms: C_17  and  N_32
REMARK    9  A    between atoms: C_19  and  S_20
REMARK   10  A    between atoms: S_20  and  N_23
REMARK   11  A    between atoms: N_23  and  C_24
REMARK   12  A    between atoms: C_27  and  C_31
REMARK   13  A    between atoms: C_29  and  C_30
REMARK                            x       y       z     vdW  Elec       q    Type
REMARK                         _______ _______ _______ _____ _____    ______ ____
ROOT
ATOM      1  C   UNL     1       1.141   0.883  -3.028  0.00  0.00    +0.075 A 
ATOM      2  C   UNL     1       1.109   1.454  -4.295  0.00  0.00    +0.029 A 
ATOM      3  C   UNL     1       2.123   1.189  -5.195  0.00  0.00    +0.035 A 
ATOM      4  C   UNL     1       3.169   0.358  -4.836  0.00  0.00    +0.128 A 
ATOM      5  C   UNL     1       3.207  -0.206  -3.575  0.00  0.00    +0.063 A 
ATOM      6  C   UNL     1       2.194   0.049  -2.671  0.00  0.00    +0.133 A 
ENDROOT
BRANCH   6   7
ATOM      7  S   UNL     1       2.240  -0.676  -1.066  0.00  0.00    +0.074 S 
ATOM      8  O   UNL     1       3.458  -1.403  -0.984  0.00  0.00    -0.150 OA
ATOM      9  O   UNL     1       0.973  -1.285  -0.859  0.00  0.00    -0.150 OA
BRANCH   7  10
ATOM     10  N   UNL     1       2.354   0.562   0.028  0.00  0.00    -0.216 N 
ATOM     11  H   UNL     1       1.515   0.776   0.706  0.00  0.00    +0.174 HD
BRANCH  10  12
ATOM     12  C   UNL     1       3.515   1.336   0.088  0.00  0.00    +0.051 A 
ATOM     13  C   UNL     1       4.220   1.627  -1.074  0.00  0.00    +0.025 A 
ATOM     14  C   UNL     1       5.370   2.388  -1.010  0.00  0.00    +0.005 A 
ATOM     15  C   UNL     1       5.816   2.870   0.207  0.00  0.00    -0.050 A 
ATOM     16  C   UNL     1       5.117   2.582   1.366  0.00  0.00    +0.008 A 
ATOM     17  C   UNL     1       3.969   1.817   1.310  0.00  0.00    -0.028 A 
ATOM     18  C   UNL     1       3.208   1.505   2.572  0.00  0.00    +0.046 C 
ATOM     19  C   UNL     1       7.068   3.705   0.272  0.00  0.00    +0.044 C 
ENDBRANCH  10  12
ENDBRANCH   7  10
ENDBRANCH   6   7
BRANCH   4  20
ATOM     20  N   UNL     1       4.254   0.077  -5.804  0.00  0.00    +0.056 N 
ATOM     21  O   UNL     1       4.224   0.578  -6.915  0.00  0.00    -0.126 OA
ATOM     22  O   UNL     1       5.176  -0.654  -5.490  0.00  0.00    -0.126 OA
ENDBRANCH   4  20
BRANCH   1  23
ATOM     23  N   UNL     1       0.119   1.149  -2.116  0.00  0.00    -0.236 N 
ATOM     24  H   UNL     1       0.181   0.754  -1.091  0.00  0.00    +0.174 HD
BRANCH  23  26
ATOM     25  C   UNL     1      -1.881   2.257  -1.629  0.00  0.00    +0.138 C 
ATOM     26  N   UNL     1      -0.985   1.917  -2.505  0.00  0.00    -0.190 NA
BRANCH  25  29
ATOM     27  C   UNL     1      -5.215   3.982  -1.528  0.00  0.00    +0.162 A 
ATOM     28  C   UNL     1      -4.070   3.325  -1.118  0.00  0.00    +0.059 A 
ATOM     29  C   UNL     1      -3.105   2.958  -2.060  0.00  0.00    -0.002 A 
ATOM     30  C   UNL     1      -3.299   3.262  -3.409  0.00  0.00    +0.013 A 
ATOM     31  C   UNL     1      -4.447   3.913  -3.811  0.00  0.00    +0.050 A 
ATOM     32  C   UNL     1      -5.405   4.277  -2.876  0.00  0.00    +0.158 A 
BRANCH  32  33
ATOM     33  O   UNL     1      -6.532   4.925  -3.276  0.00  0.00    -0.503 OA
ATOM     34  H   UNL     1      -6.683   5.158  -4.340  0.00  0.00    +0.292 HD
ENDBRANCH  32  33
BRANCH  27  35
ATOM     35  O   UNL     1      -6.157   4.340  -0.614  0.00  0.00    -0.489 OA
BRANCH  35  37
ATOM     36  C   UNL     1      -7.058   4.485   1.624  0.00  0.00    +0.048 C 
ATOM     37  C   UNL     1      -5.897   4.006   0.751  0.00  0.00    +0.226 C 
ENDBRANCH  35  37
ENDBRANCH  27  35
ENDBRANCH  25  29
ENDBRANCH  23  26
ENDBRANCH   1  23
TORSDOF 10
