REMARK  Name = ZINC09117629
REMARK  7 active torsions:
REMARK  status: ('A' for Active; 'I' for Inactive)
REMARK    1  A    between atoms: C_1  and  C_2
REMARK    2  A    between atoms: C_4  and  C_27
REMARK    3  A    between atoms: C_6  and  N_8
REMARK    4  A    between atoms: N_8  and  S_9
REMARK    5  A    between atoms: S_9  and  C_12
REMARK    6  A    between atoms: C_20  and  C_23
REMARK    7  A    between atoms: C_24  and  C_26
REMARK                            x       y       z     vdW  Elec       q    Type
REMARK                         _______ _______ _______ _____ _____    ______ ____
ROOT
ATOM      1  C   UNL     1       0.972  -0.897  -0.081  0.00  0.00    +0.110 A 
ATOM      2  C   UNL     1       1.992  -0.236  -0.740  0.00  0.00    +0.032 A 
ATOM      3  C   UNL     1       1.921   1.129  -0.943  0.00  0.00    +0.049 A 
ATOM      4  C   UNL     1       0.825   1.843  -0.484  0.00  0.00    +0.142 A 
ATOM      5  C   UNL     1      -0.199   1.176   0.182  0.00  0.00    +0.080 A 
ATOM      6  C   UNL     1      -0.124  -0.193   0.381  0.00  0.00    +0.056 A 
ATOM      7  N   UNL     1      -1.307   1.898   0.658  0.00  0.00    -0.265 N 
ATOM      8  C   UNL     1      -1.494   3.272   0.161  0.00  0.00    +0.158 C 
ATOM      9  C   UNL     1      -0.115   3.948   0.140  0.00  0.00    +0.188 C 
ATOM     10  O   UNL     1       0.760   3.184  -0.694  0.00  0.00    -0.486 OA
ATOM     11  C   UNL     1      -0.248   5.366  -0.418  0.00  0.00    +0.053 C 
ATOM     12  C   UNL     1      -2.170   1.351   1.538  0.00  0.00    +0.217 C 
ATOM     13  O   UNL     1      -1.941   0.258   2.012  0.00  0.00    -0.276 OA
ATOM     14  C   UNL     1      -3.418   2.098   1.932  0.00  0.00    +0.109 C 
ENDROOT
BRANCH   1  15
ATOM     15  S   UNL     1       1.070  -2.639   0.170  0.00  0.00    +0.072 S 
ATOM     16  O   UNL     1       2.452  -2.960   0.253  0.00  0.00    -0.150 OA
ATOM     17  O   UNL     1       0.152  -2.951   1.209  0.00  0.00    -0.150 OA
BRANCH  15  18
ATOM     18  N   UNL     1       0.497  -3.365  -1.203  0.00  0.00    -0.216 N 
ATOM     19  H   UNL     1       1.078  -3.936  -1.728  0.00  0.00    +0.174 HD
BRANCH  18  25
ATOM     20  C   UNL     1      -4.276  -3.079  -0.067  0.00  0.00    +0.044 C 
ATOM     21  C   UNL     1      -3.159  -3.009  -1.076  0.00  0.00    -0.048 A 
ATOM     22  C   UNL     1      -3.441  -2.737  -2.402  0.00  0.00    +0.006 A 
ATOM     23  C   UNL     1      -2.419  -2.672  -3.331  0.00  0.00    -0.048 A 
ATOM     24  C   UNL     1      -1.111  -2.880  -2.936  0.00  0.00    +0.028 A 
ATOM     25  C   UNL     1      -0.824  -3.154  -1.605  0.00  0.00    +0.049 A 
ATOM     26  C   UNL     1      -1.854  -3.223  -0.676  0.00  0.00    +0.028 A 
ATOM     27  C   UNL     1      -2.731  -2.375  -4.774  0.00  0.00    +0.044 C 
ENDBRANCH  18  25
ENDBRANCH  15  18
ENDBRANCH   1  15
TORSDOF 3
