REMARK  Name = ZINC17852105
REMARK  11 active torsions:
REMARK  status: ('A' for Active; 'I' for Inactive)
REMARK    1  A    between atoms: C_1  and  C_2
REMARK    2  A    between atoms: C_2  and  C_4
REMARK    3  A    between atoms: C_2  and  N_14
REMARK    4  A    between atoms: C_7  and  S_10
REMARK    5  A    between atoms: S_10  and  N_13
REMARK    6  A    between atoms: C_15  and  C_17
REMARK    7  A    between atoms: C_20  and  O_25
REMARK    8  A    between atoms: C_21  and  O_23
REMARK    9  A    between atoms: O_23  and  C_24
REMARK   10  A    between atoms: O_25  and  C_26
REMARK   11  A    between atoms: C_26  and  C_27
REMARK                            x       y       z     vdW  Elec       q    Type
REMARK                         _______ _______ _______ _____ _____    ______ ____
ROOT
ATOM      1  N   UNL     1      -3.522   4.478   4.784  0.00  0.00    -0.305 N 
ATOM      2  C   UNL     1      -4.600   4.938   5.449  0.00  0.00    +0.245 C 
ATOM      3  O   UNL     1      -5.248   4.185   6.150  0.00  0.00    -0.270 OA
ATOM      4  H   UNL     1      -3.004   5.079   4.225  0.00  0.00    +0.150 HD
ENDROOT
BRANCH   2   5
ATOM      5  C   UNL     1      -4.994   6.355   5.326  0.00  0.00    +0.040 A 
ATOM      6  C   UNL     1      -4.247   7.222   4.526  0.00  0.00    +0.017 A 
ATOM      7  C   UNL     1      -4.619   8.544   4.408  0.00  0.00    +0.050 A 
ATOM      8  C   UNL     1      -5.729   9.019   5.093  0.00  0.00    +0.162 A 
ATOM      9  C   UNL     1      -6.476   8.160   5.897  0.00  0.00    +0.162 A 
ATOM     10  C   UNL     1      -6.112   6.833   6.015  0.00  0.00    +0.062 A 
BRANCH   9  11
ATOM     11  O   UNL     1      -7.564   8.629   6.566  0.00  0.00    -0.491 OA
ATOM     12  C   UNL     1      -8.283   7.693   7.372  0.00  0.00    +0.277 C 
ENDBRANCH   9  11
BRANCH   8  13
ATOM     13  O   UNL     1      -6.089  10.324   4.977  0.00  0.00    -0.484 OA
BRANCH  13  14
ATOM     14  C   UNL     1      -5.280  11.148   4.136  0.00  0.00    +0.266 C 
BRANCH  14  15
ATOM     15  C   UNL     1      -5.828  12.552   4.131  0.00  0.00    +0.008 A 
ATOM     16  C   UNL     1      -6.955  12.856   4.870  0.00  0.00    +0.008 A 
ATOM     17  C   UNL     1      -7.456  14.145   4.870  0.00  0.00    +0.000 A 
ATOM     18  C   UNL     1      -6.834  15.128   4.122  0.00  0.00    +0.001 A 
ATOM     19  C   UNL     1      -5.709  14.823   3.378  0.00  0.00    +0.020 A 
ATOM     20  C   UNL     1      -5.205  13.535   3.383  0.00  0.00    +0.047 A 
ATOM     21 CL   UNL     1      -3.793  13.152   2.449  0.00  0.00    -0.083 Cl
ENDBRANCH  14  15
ENDBRANCH  13  14
ENDBRANCH   8  13
ENDBRANCH   2   5
BRANCH   1  23
ATOM     22  C   UNL     1      -2.258   2.891   6.150  0.00  0.00    +0.033 C 
ATOM     23  C   UNL     1      -3.131   3.072   4.906  0.00  0.00    +0.100 C 
BRANCH  23  24
ATOM     24  C   UNL     1      -2.353   2.659   3.683  0.00  0.00    -0.027 A 
ATOM     25  C   UNL     1      -2.559   1.412   3.122  0.00  0.00    +0.007 A 
ATOM     26  C   UNL     1      -1.846   1.033   2.000  0.00  0.00    +0.029 A 
ATOM     27  C   UNL     1      -0.927   1.900   1.439  0.00  0.00    +0.105 A 
ATOM     28  C   UNL     1      -0.717   3.145   2.004  0.00  0.00    +0.029 A 
ATOM     29  C   UNL     1      -1.434   3.526   3.123  0.00  0.00    +0.007 A 
BRANCH  27  30
ATOM     30  S   UNL     1      -0.017   1.417   0.010  0.00  0.00    +0.056 S 
ATOM     31  O   UNL     1       0.002  -0.004   0.002  0.00  0.00    -0.153 OA
ATOM     32  O   UNL     1       1.172   2.195   0.003  0.00  0.00    -0.153 OA
BRANCH  30  33
ATOM     33  N   UNL     1      -0.897   1.885  -1.312  0.00  0.00    -0.204 NA
ATOM     34  H   UNL     1      -1.201   1.223  -1.952  0.00  0.00    +0.144 HD
ATOM     35  H   UNL     1      -1.110   2.822  -1.446  0.00  0.00    +0.144 HD
ENDBRANCH  30  33
ENDBRANCH  27  30
ENDBRANCH  23  24
ENDBRANCH   1  23
TORSDOF 9
