REMARK  Name = ZINC14057728
REMARK  8 active torsions:
REMARK  status: ('A' for Active; 'I' for Inactive)
REMARK    1  A    between atoms: C_1  and  C_2
REMARK    2  A    between atoms: C_9  and  N_14
REMARK    3  A    between atoms: C_10  and  C_11
REMARK    4  A    between atoms: C_15  and  C_17
REMARK    5  A    between atoms: C_17  and  S_18
REMARK    6  A    between atoms: S_18  and  C_19
REMARK    7  A    between atoms: C_22  and  C_25
REMARK    8  A    between atoms: N_23  and  C_24
REMARK                            x       y       z     vdW  Elec       q    Type
REMARK                         _______ _______ _______ _____ _____    ______ ____
ROOT
ATOM      1  N   UNL     1       1.926  -5.851  -1.732  0.00  0.00    -0.279 N 
ATOM      2  C   UNL     1       2.131  -6.134  -3.033  0.00  0.00    +0.228 C 
ATOM      3  O   UNL     1       1.961  -5.277  -3.874  0.00  0.00    -0.275 OA
ATOM      4  H   UNL     1       2.079  -6.628  -0.969  0.00  0.00    +0.155 HD
ENDROOT
BRANCH   1  12
ATOM      5  C   UNL     1      -0.435   1.409  -0.028  0.00  0.00    +0.008 C 
ATOM      6  C   UNL     1      -0.296  -0.114   0.005  0.00  0.00    -0.009 C 
ATOM      7  C   UNL     1       0.586  -0.524   1.188  0.00  0.00    +0.008 C 
ATOM      8  C   UNL     1       0.530  -2.041   1.378  0.00  0.00    +0.037 C 
ATOM      9  C   UNL     1       0.850  -2.713   0.048  0.00  0.00    -0.023 A 
ATOM     10  C   UNL     1       0.762  -2.031  -1.115  0.00  0.00    -0.004 A 
ATOM     11  S   UNL     1       1.218  -3.203  -2.361  0.00  0.00    -0.077 S 
ATOM     12  C   UNL     1       1.522  -4.579  -1.354  0.00  0.00    +0.084 A 
ATOM     13  C   UNL     1       1.263  -4.100  -0.078  0.00  0.00    +0.068 A 
ATOM     14  C   UNL     1       0.363  -0.599  -1.294  0.00  0.00    +0.046 C 
BRANCH  13  15
ATOM     15  C   UNL     1       1.400  -4.962   1.100  0.00  0.00    +0.244 C 
ATOM     16  O   UNL     1       0.449  -5.612   1.494  0.00  0.00    -0.270 OA
ATOM     17  N   UNL     1       2.580  -5.035   1.748  0.00  0.00    -0.325 N 
ATOM     18  H   UNL     1       2.683  -5.682   2.631  0.00  0.00    +0.145 HD
ATOM     19  H   UNL     1       3.440  -4.449   1.392  0.00  0.00    +0.145 HD
ENDBRANCH  13  15
ENDBRANCH   1  12
BRANCH   2  20
ATOM     20  C   UNL     1       2.570  -7.516  -3.443  0.00  0.00    +0.173 C 
BRANCH  20  21
ATOM     21  S   UNL     1       2.758  -7.580  -5.242  0.00  0.00    -0.077 S 
BRANCH  21  22
ATOM     22  C   UNL     1       3.262  -9.257  -5.438  0.00  0.00    +0.192 A 
ATOM     23  N   UNL     1       3.426 -10.138  -4.478  0.00  0.00    -0.122 NA
ATOM     24  N   UNL     1       3.799 -11.264  -4.971  0.00  0.00    -0.128 NA
ATOM     25  C   UNL     1       3.896 -11.173  -6.278  0.00  0.00    +0.166 A 
ATOM     26  N   UNL     1       3.550  -9.886  -6.619  0.00  0.00    -0.305 N 
ATOM     27  C   UNL     1       3.501  -9.309  -7.964  0.00  0.00    +0.153 C 
BRANCH  25  28
ATOM     28  C   UNL     1       4.296 -12.249  -7.206  0.00  0.00    +0.034 A 
ATOM     29  C   UNL     1       5.212 -12.018  -8.178  0.00  0.00    +0.058 A 
ATOM     30  S   UNL     1       5.346 -13.591  -9.007  0.00  0.00    -0.096 S 
ATOM     31  C   UNL     1       4.182 -14.518  -8.040  0.00  0.00    +0.020 A 
ATOM     32  C   UNL     1       3.716 -13.588  -7.089  0.00  0.00    -0.000 A 
ATOM     33  C   UNL     1       2.760 -14.056  -6.160  0.00  0.00    +0.010 A 
ATOM     34  C   UNL     1       2.326 -15.355  -6.197  0.00  0.00    +0.001 A 
ATOM     35  C   UNL     1       2.807 -16.249  -7.143  0.00  0.00    +0.001 A 
ATOM     36  C   UNL     1       3.734 -15.821  -8.073  0.00  0.00    +0.015 A 
ENDBRANCH  25  28
ENDBRANCH  21  22
ENDBRANCH  20  21
ENDBRANCH   2  20
TORSDOF 6
