REMARK  Name = ZINC32535660
REMARK  13 active torsions:
REMARK  status: ('A' for Active; 'I' for Inactive)
REMARK    1  A    between atoms: C_1  and  C_2
REMARK    2  A    between atoms: C_2  and  C_3
REMARK    3  A    between atoms: C_3  and  C_5
REMARK    4  A    between atoms: C_3  and  N_20
REMARK    5  A    between atoms: C_10  and  C_19
REMARK    6  A    between atoms: C_11  and  C_13
REMARK    7  A    between atoms: C_13  and  O_15
REMARK    8  A    between atoms: O_15  and  C_16
REMARK    9  A    between atoms: C_16  and  C_17
REMARK   10  A    between atoms: C_16  and  C_18
REMARK   11  A    between atoms: C_24  and  S_25
REMARK   12  A    between atoms: S_25  and  C_26
REMARK   13  A    between atoms: C_26  and  C_27
REMARK                            x       y       z     vdW  Elec       q    Type
REMARK                         _______ _______ _______ _____ _____    ______ ____
ROOT
ATOM      1  C   UNL     1      -3.765   5.056   7.535  0.00  0.00    +0.178 C 
ENDROOT
BRANCH   1   2
ATOM      2  C   UNL     1      -3.279   4.083   6.493  0.00  0.00    +0.242 C 
ATOM      3  O   UNL     1      -2.352   4.381   5.770  0.00  0.00    -0.273 OA
ATOM      4  N   UNL     1      -3.875   2.881   6.363  0.00  0.00    -0.263 N 
ATOM      5  C   UNL     1      -3.498   2.029   5.340  0.00  0.00    +0.165 A 
ATOM      6  N   UNL     1      -3.962   0.822   5.054  0.00  0.00    -0.229 NA
ATOM      7  C   UNL     1      -3.504   0.135   4.041  0.00  0.00    +0.062 A 
ATOM      8  C   UNL     1      -2.499   0.707   3.272  0.00  0.00    +0.120 A 
ATOM      9  S   UNL     1      -2.297   2.273   4.110  0.00  0.00    -0.045 S 
ATOM     10  C   UNL     1      -4.046  -1.234   3.720  0.00  0.00    +0.067 C 
ATOM     11  H   UNL     1      -4.661   2.578   7.070  0.00  0.00    +0.157 HD
BRANCH   8  12
ATOM     12  C   UNL     1      -1.804   0.178   2.100  0.00  0.00    +0.348 C 
ATOM     13  O   UNL     1      -2.087  -0.925   1.672  0.00  0.00    -0.244 OA
BRANCH  12  14
ATOM     14  O   UNL     1      -0.850   0.914   1.493  0.00  0.00    -0.458 OA
BRANCH  14  15
ATOM     15  C   UNL     1      -0.212   0.335   0.353  0.00  0.00    +0.171 C 
ATOM     16  C   UNL     1       1.223   0.857   0.252  0.00  0.00    +0.052 C 
ATOM     17  C   UNL     1      -0.984   0.717  -0.912  0.00  0.00    +0.052 C 
ENDBRANCH  14  15
ENDBRANCH  12  14
ENDBRANCH   8  12
ENDBRANCH   1   2
BRANCH   1  18
ATOM     18  N   UNL     1      -3.024   6.314   7.413  0.00  0.00    -0.279 N 
ATOM     19  C   UNL     1      -2.988   7.121   6.311  0.00  0.00    +0.216 A 
ATOM     20  N   UNL     1      -2.222   8.148   6.585  0.00  0.00    -0.113 NA
ATOM     21  N   UNL     1      -1.752   8.000   7.897  0.00  0.00    -0.121 NA
ATOM     22  C   UNL     1      -2.252   6.889   8.383  0.00  0.00    +0.194 A 
ATOM     23  N   UNL     1      -3.648   6.893   5.110  0.00  0.00    -0.328 N 
ATOM     24  H   UNL     1      -3.550   7.611   4.283  0.00  0.00    +0.145 HD
ATOM     25  H   UNL     1      -4.270   5.993   4.987  0.00  0.00    +0.145 HD
BRANCH  22  26
ATOM     26  S   UNL     1      -1.973   6.249  10.000  0.00  0.00    -0.081 S 
BRANCH  26  27
ATOM     27  C   UNL     1      -0.876   7.470  10.773  0.00  0.00    +0.114 C 
BRANCH  27  28
ATOM     28  C   UNL     1      -0.555   7.037  12.180  0.00  0.00    -0.019 A 
ATOM     29  C   UNL     1      -1.357   7.445  13.229  0.00  0.00    +0.006 A 
ATOM     30  C   UNL     1      -1.065   7.045  14.519  0.00  0.00    +0.000 A 
ATOM     31  C   UNL     1       0.035   6.245  14.763  0.00  0.00    +0.001 A 
ATOM     32  C   UNL     1       0.842   5.841  13.716  0.00  0.00    +0.020 A 
ATOM     33  C   UNL     1       0.547   6.237  12.423  0.00  0.00    +0.045 A 
ATOM     34 CL   UNL     1       1.560   5.730  11.107  0.00  0.00    -0.083 Cl
ENDBRANCH  27  28
ENDBRANCH  26  27
ENDBRANCH  22  26
ENDBRANCH   1  18
BRANCH   1  36
ATOM     35  C   UNL     1      -5.782   6.199   8.468  0.00  0.00    +0.006 C 
ATOM     36  C   UNL     1      -5.258   5.322   7.329  0.00  0.00    +0.031 C 
ENDBRANCH   1  36
TORSDOF 9
