REMARK  Name = ZINC13662124
REMARK  5 active torsions:
REMARK  status: ('A' for Active; 'I' for Inactive)
REMARK    1  A    between atoms: C_4  and  N_7
REMARK    2  A    between atoms: C_11  and  C_12
REMARK    3  A    between atoms: C_21  and  C_22
REMARK    4  A    between atoms: C_21  and  C_24
REMARK    5  A    between atoms: N_26  and  C_27
REMARK                            x       y       z     vdW  Elec       q    Type
REMARK                         _______ _______ _______ _____ _____    ______ ____
ROOT
ATOM      1  N   UNL     1       3.127  -0.322   0.143  0.00  0.00    -0.269 N 
ATOM      2  C   UNL     1       4.122   0.493   0.451  0.00  0.00    +0.270 A 
ATOM      3  O   UNL     1       3.937   1.680   0.643  0.00  0.00    -0.266 OA
ATOM      4  C   UNL     1       5.467  -0.106   0.553  0.00  0.00    +0.079 A 
ATOM      5  C   UNL     1       6.653   0.484   0.850  0.00  0.00    +0.028 C 
ATOM      6  S   UNL     1       5.114  -1.817   0.179  0.00  0.00    -0.064 S 
ATOM      7  C   UNL     1       3.352  -1.660  -0.065  0.00  0.00    +0.111 A 
ATOM      8  C   UNL     1       2.427  -2.656  -0.389  0.00  0.00    +0.144 C 
ENDROOT
BRANCH   5   9
ATOM      9  C   UNL     1       6.684   1.878   1.313  0.00  0.00    -0.024 A 
ATOM     10  C   UNL     1       5.706   2.348   2.197  0.00  0.00    +0.009 A 
ATOM     11  C   UNL     1       5.742   3.657   2.627  0.00  0.00    +0.020 A 
ATOM     12  C   UNL     1       6.743   4.508   2.185  0.00  0.00    +0.041 A 
ATOM     13  C   UNL     1       7.715   4.050   1.310  0.00  0.00    +0.020 A 
ATOM     14  C   UNL     1       7.695   2.742   0.875  0.00  0.00    +0.009 A 
ATOM     15 CL   UNL     1       6.779   6.155   2.731  0.00  0.00    -0.084 Cl
ENDBRANCH   5   9
BRANCH   1  19
ATOM     16  C   UNL     1      -0.743   1.192  -0.188  0.00  0.00    +0.000 A 
ATOM     17  C   UNL     1      -0.199   0.955   1.062  0.00  0.00    +0.002 A 
ATOM     18  C   UNL     1       1.083   0.453   1.174  0.00  0.00    +0.026 A 
ATOM     19  C   UNL     1       1.826   0.187   0.032  0.00  0.00    +0.051 A 
ATOM     20  C   UNL     1       1.277   0.425  -1.221  0.00  0.00    +0.026 A 
ATOM     21  C   UNL     1      -0.006   0.927  -1.327  0.00  0.00    +0.002 A 
ENDBRANCH   1  19
BRANCH   8  22
ATOM     22  C   UNL     1       0.998  -2.350  -0.405  0.00  0.00    +0.261 C 
ATOM     23  O   UNL     1       0.444  -2.083  -1.456  0.00  0.00    -0.269 OA
ATOM     24  N   UNL     1       0.293  -2.364   0.744  0.00  0.00    -0.281 N 
ATOM     25  H   UNL     1       0.748  -2.493   1.591  0.00  0.00    +0.155 HD
BRANCH  24  26
ATOM     26  C   UNL     1      -1.095  -2.191   0.715  0.00  0.00    +0.034 A 
ATOM     27  C   UNL     1      -1.832  -2.662  -0.363  0.00  0.00    +0.025 A 
ATOM     28  C   UNL     1      -3.203  -2.491  -0.389  0.00  0.00    +0.022 A 
ATOM     29  C   UNL     1      -3.841  -1.850   0.659  0.00  0.00    +0.041 A 
ATOM     30  C   UNL     1      -3.108  -1.379   1.734  0.00  0.00    +0.022 A 
ATOM     31  C   UNL     1      -1.739  -1.553   1.768  0.00  0.00    +0.025 A 
ATOM     32 CL   UNL     1      -5.563  -1.636   0.623  0.00  0.00    -0.084 Cl
ENDBRANCH  24  26
ENDBRANCH   8  22
BRANCH   8  33
ATOM     33  C   UNL     1       2.880  -3.978  -0.706  0.00  0.00    +0.107 C 
ATOM     34  N   UNL     1       3.239  -5.026  -0.958  0.00  0.00    -0.191 NA
ENDBRANCH   8  33
TORSDOF 5
