REMARK  Name = ZINC20884014
REMARK  10 active torsions:
REMARK  status: ('A' for Active; 'I' for Inactive)
REMARK    1  A    between atoms: C_1  and  C_2
REMARK    2  A    between atoms: C_2  and  C_3
REMARK    3  A    between atoms: C_2  and  O_4
REMARK    4  A    between atoms: O_4  and  C_5
REMARK    5  A    between atoms: C_8  and  C_11
REMARK    6  A    between atoms: C_16  and  C_26
REMARK    7  A    between atoms: C_29  and  O_34
REMARK    8  A    between atoms: C_30  and  O_32
REMARK    9  A    between atoms: O_32  and  C_33
REMARK   10  A    between atoms: O_34  and  C_35
REMARK                            x       y       z     vdW  Elec       q    Type
REMARK                         _______ _______ _______ _____ _____    ______ ____
ROOT
ATOM      1  C   UNL     1       2.422   1.219   1.275  0.00  0.00    +0.032 C 
ATOM      2  C   UNL     1       1.623   1.933   0.186  0.00  0.00    +0.059 C 
ATOM      3  C   UNL     1       0.275   1.252   0.004  0.00  0.00    +0.017 C 
ATOM      4  C   UNL     1       0.156  -0.072   0.184  0.00  0.00    +0.036 C 
ATOM      5  C   UNL     1      -1.109  -0.881   0.009  0.00  0.00    +0.136 C 
ATOM      6  N   UNL     1      -2.310  -0.084  -0.128  0.00  0.00    -0.331 N 
ATOM      7  C   UNL     1      -2.491   0.761  -1.219  0.00  0.00    +0.049 A 
ATOM      8  C   UNL     1      -3.485   0.525  -2.157  0.00  0.00    +0.025 A 
ATOM      9  C   UNL     1      -3.600   1.363  -3.252  0.00  0.00    +0.002 A 
ATOM     10  C   UNL     1      -2.731   2.426  -3.416  0.00  0.00    +0.002 A 
ATOM     11  C   UNL     1      -1.749   2.676  -2.473  0.00  0.00    +0.025 A 
ATOM     12  C   UNL     1      -1.647   1.852  -1.366  0.00  0.00    +0.052 A 
ATOM     13  N   UNL     1      -0.737   2.091  -0.337  0.00  0.00    -0.316 N 
ATOM     14  C   UNL     1       1.276  -0.844   0.574  0.00  0.00    +0.163 C 
ATOM     15  O   UNL     1       1.142  -2.045   0.706  0.00  0.00    -0.292 OA
ATOM     16  C   UNL     1       2.621  -0.235   0.830  0.00  0.00    +0.088 C 
ATOM     17  H   UNL     1      -3.098  -0.141   0.638  0.00  0.00    +0.147 HD
ATOM     18  H   UNL     1      -0.880   3.032   0.213  0.00  0.00    +0.152 HD
ENDROOT
BRANCH   1  22
ATOM     19  C   UNL     1       6.220   3.117   1.764  0.00  0.00    +0.121 A 
ATOM     20  C   UNL     1       5.349   3.016   2.840  0.00  0.00    +0.046 A 
ATOM     21  C   UNL     1       4.122   2.402   2.679  0.00  0.00    +0.007 A 
ATOM     22  C   UNL     1       3.761   1.889   1.448  0.00  0.00    -0.043 A 
ATOM     23  C   UNL     1       4.629   1.983   0.375  0.00  0.00    +0.007 A 
ATOM     24  C   UNL     1       5.855   2.601   0.529  0.00  0.00    +0.046 A 
BRANCH  19  25
ATOM     25  O   UNL     1       7.427   3.721   1.919  0.00  0.00    -0.489 OA
BRANCH  25  27
ATOM     26  C   UNL     1       9.310   4.190   3.360  0.00  0.00    +0.051 C 
ATOM     27  C   UNL     1       7.787   4.122   3.243  0.00  0.00    +0.167 C 
ATOM     28  C   UNL     1       7.191   5.500   3.539  0.00  0.00    +0.051 C 
ENDBRANCH  25  27
ENDBRANCH  19  25
ENDBRANCH   1  22
BRANCH   5  29
ATOM     29  C   UNL     1      -0.962  -1.740  -1.220  0.00  0.00    -0.019 A 
ATOM     30  C   UNL     1      -0.810  -1.148  -2.461  0.00  0.00    +0.009 A 
ATOM     31  C   UNL     1      -0.673  -1.932  -3.592  0.00  0.00    +0.050 A 
ATOM     32  C   UNL     1      -0.689  -3.313  -3.483  0.00  0.00    +0.162 A 
ATOM     33  C   UNL     1      -0.843  -3.908  -2.235  0.00  0.00    +0.162 A 
ATOM     34  C   UNL     1      -0.973  -3.117  -1.105  0.00  0.00    +0.055 A 
BRANCH  33  35
ATOM     35  O   UNL     1      -0.859  -5.264  -2.123  0.00  0.00    -0.491 OA
ATOM     36  C   UNL     1      -1.020  -5.805  -0.811  0.00  0.00    +0.277 C 
ENDBRANCH  33  35
BRANCH  32  37
ATOM     37  O   UNL     1      -0.555  -4.085  -4.595  0.00  0.00    -0.491 OA
ATOM     38  C   UNL     1      -0.401  -3.406  -5.842  0.00  0.00    +0.277 C 
ENDBRANCH  32  37
ENDBRANCH   5  29
TORSDOF 6
