REMARK  Name = ZINC58996772
REMARK  7 active torsions:
REMARK  status: ('A' for Active; 'I' for Inactive)
REMARK    1  A    between atoms: C_4  and  O_27
REMARK    2  A    between atoms: C_5  and  C_7
REMARK    3  A    between atoms: N_8  and  N_9
REMARK    4  A    between atoms: C_12  and  S_15
REMARK    5  A    between atoms: S_15  and  C_16
REMARK    6  A    between atoms: C_16  and  C_17
REMARK    7  A    between atoms: N_19  and  C_20
REMARK                            x       y       z     vdW  Elec       q    Type
REMARK                         _______ _______ _______ _____ _____    ______ ____
ROOT
ATOM      1  N   UNL     1       2.414  -4.184   0.016  0.00  0.00    -0.205 N 
ATOM      2  C   UNL     1       3.624  -4.853  -0.010  0.00  0.00    +0.232 A 
ATOM      3  N   UNL     1       4.816  -4.295  -0.022  0.00  0.00    -0.186 NA
ATOM      4  C   UNL     1       5.757  -5.246  -0.046  0.00  0.00    +0.211 A 
ATOM      5  N   UNL     1       5.175  -6.421  -0.050  0.00  0.00    -0.144 NA
ATOM      6  N   UNL     1       3.790  -6.192  -0.021  0.00  0.00    -0.245 N 
ATOM      7  H   UNL     1       1.583  -4.684   0.027  0.00  0.00    +0.177 HD
ATOM      8  H   UNL     1       3.090  -6.864  -0.013  0.00  0.00    +0.192 HD
ENDROOT
BRANCH   1  10
ATOM      9  C   UNL     1       1.252  -2.155   0.049  0.00  0.00    +0.142 C 
ATOM     10  N   UNL     1       2.388  -2.783   0.025  0.00  0.00    -0.187 NA
BRANCH   9  15
ATOM     11  C   UNL     1      -0.013   1.378   0.092  0.00  0.00    +0.001 A 
ATOM     12  C   UNL     1       1.173   2.092   0.075  0.00  0.00    +0.004 A 
ATOM     13  C   UNL     1       2.387   1.430   0.051  0.00  0.00    +0.046 A 
ATOM     14  C   UNL     1       2.424   0.046   0.042  0.00  0.00    +0.125 A 
ATOM     15  C   UNL     1       1.226  -0.681   0.058  0.00  0.00    +0.036 A 
ATOM     16  C   UNL     1       0.006  -0.001   0.084  0.00  0.00    +0.013 A 
BRANCH  14  17
ATOM     17  O   UNL     1       3.616  -0.605   0.017  0.00  0.00    -0.506 OA
ATOM     18  H   UNL     1       3.977  -0.798   0.893  0.00  0.00    +0.292 HD
ENDBRANCH  14  17
ENDBRANCH   9  15
ENDBRANCH   1  10
BRANCH   4  19
ATOM     19  S   UNL     1       7.496  -4.965  -0.069  0.00  0.00    -0.075 S 
BRANCH  19  20
ATOM     20  C   UNL     1       8.210  -6.632  -0.097  0.00  0.00    +0.173 C 
BRANCH  20  21
ATOM     21  C   UNL     1       9.713  -6.535  -0.119  0.00  0.00    +0.228 C 
ATOM     22  O   UNL     1      10.251  -5.447  -0.116  0.00  0.00    -0.275 OA
ATOM     23  N   UNL     1      10.461  -7.656  -0.142  0.00  0.00    -0.284 N 
ATOM     24  H   UNL     1      10.035  -8.525  -0.079  0.00  0.00    +0.155 HD
BRANCH  23  25
ATOM     25  C   UNL     1      11.853  -7.566  -0.257  0.00  0.00    +0.047 A 
ATOM     26  C   UNL     1      12.535  -6.514   0.340  0.00  0.00    +0.024 A 
ATOM     27  C   UNL     1      13.908  -6.429   0.225  0.00  0.00    +0.002 A 
ATOM     28  C   UNL     1      14.606  -7.390  -0.484  0.00  0.00    +0.001 A 
ATOM     29  C   UNL     1      13.931  -8.439  -1.080  0.00  0.00    +0.017 A 
ATOM     30  C   UNL     1      12.557  -8.534  -0.964  0.00  0.00    +0.039 A 
ATOM     31 BR   UNL     1      11.635  -9.973  -1.773  0.00  0.00    -0.048 Br
ENDBRANCH  23  25
ENDBRANCH  20  21
ENDBRANCH  19  20
ENDBRANCH   4  19
TORSDOF 7
