REMARK  Name = ZINC40570187
REMARK  9 active torsions:
REMARK  status: ('A' for Active; 'I' for Inactive)
REMARK    1  A    between atoms: C_1  and  C_2
REMARK    2  A    between atoms: C_7  and  O_8
REMARK    3  A    between atoms: O_8  and  C_9
REMARK    4  A    between atoms: C_9  and  C_11
REMARK    5  A    between atoms: C_12  and  N_33
REMARK    6  A    between atoms: C_14  and  C_25
REMARK    7  A    between atoms: N_22  and  C_24
REMARK    8  A    between atoms: C_28  and  O_31
REMARK    9  A    between atoms: O_31  and  C_32
REMARK                            x       y       z     vdW  Elec       q    Type
REMARK                         _______ _______ _______ _____ _____    ______ ____
ROOT
ATOM      1  C   UNL     1      -1.114  -0.074   4.788  0.00  0.00    +0.120 A 
ATOM      2  C   UNL     1      -0.844  -0.648   6.015  0.00  0.00    +0.056 A 
ATOM      3  C   UNL     1      -0.512   0.226   7.125  0.00  0.00    +0.037 A 
ATOM      4  C   UNL     1      -0.200  -0.121   8.473  0.00  0.00    -0.003 A 
ATOM      5  C   UNL     1       0.092   0.890   9.385  0.00  0.00    -0.034 A 
ATOM      6  C   UNL     1       0.078   2.210   8.977  0.00  0.00    +0.043 A 
ATOM      7  N   UNL     1      -0.215   2.520   7.723  0.00  0.00    -0.244 NA
ATOM      8  C   UNL     1      -0.499   1.605   6.823  0.00  0.00    +0.112 A 
ATOM      9  S   UNL     1      -0.918   1.669   5.099  0.00  0.00    -0.060 S 
ATOM     10  C   UNL     1       0.397   3.330   9.936  0.00  0.00    +0.037 C 
ATOM     11  C   UNL     1       0.304   2.822  11.375  0.00  0.00    -0.073 C 
ATOM     12  N   UNL     1       1.109   1.596  11.492  0.00  0.00    +0.381 N 
ATOM     13  C   UNL     1       0.415   0.504  10.804  0.00  0.00    -0.041 C 
ATOM     14  C   UNL     1       1.280   1.254  12.910  0.00  0.00    -0.096 C 
ATOM     15  H   UNL     1       2.012   1.743  11.067  0.00  0.00    -0.082 HD
ENDROOT
BRANCH   4  16
ATOM     16  C   UNL     1      -0.187  -1.540   8.898  0.00  0.00    -0.017 A 
ATOM     17  C   UNL     1       0.855  -2.379   8.501  0.00  0.00    +0.012 A 
ATOM     18  C   UNL     1       0.864  -3.699   8.898  0.00  0.00    +0.046 A 
ATOM     19  C   UNL     1      -0.163  -4.194   9.692  0.00  0.00    +0.120 A 
ATOM     20  C   UNL     1      -1.201  -3.361  10.089  0.00  0.00    +0.046 A 
ATOM     21  C   UNL     1      -1.214  -2.039   9.700  0.00  0.00    +0.012 A 
BRANCH  19  22
ATOM     22  O   UNL     1      -0.151  -5.495  10.082  0.00  0.00    -0.495 OA
ATOM     23  C   UNL     1      -1.237  -5.938  10.898  0.00  0.00    +0.277 C 
ENDBRANCH  19  22
ENDBRANCH   4  16
BRANCH   2  24
ATOM     24  N   UNL     1      -0.890  -2.025   6.181  0.00  0.00    -0.356 N 
ATOM     25  H   UNL     1      -0.957  -2.605   5.407  0.00  0.00    +0.142 HD
ATOM     26  H   UNL     1      -0.856  -2.407   7.072  0.00  0.00    +0.142 HD
ENDBRANCH   2  24
BRANCH   1  27
ATOM     27  C   UNL     1      -1.457  -0.717   3.576  0.00  0.00    +0.353 C 
ATOM     28  O   UNL     1      -1.549  -1.930   3.535  0.00  0.00    -0.244 OA
BRANCH  27  29
ATOM     29  O   UNL     1      -1.681   0.016   2.465  0.00  0.00    -0.422 OA
BRANCH  29  36
ATOM     30  C   UNL     1       0.287  -1.077   0.758  0.00  0.00    +0.047 C 
ATOM     31  C   UNL     1      -1.188  -1.189   0.473  0.00  0.00    -0.008 A 
ATOM     32  C   UNL     1      -1.626  -1.852  -0.657  0.00  0.00    +0.007 A 
ATOM     33  C   UNL     1      -2.979  -1.956  -0.919  0.00  0.00    +0.000 A 
ATOM     34  C   UNL     1      -3.899  -1.397  -0.050  0.00  0.00    +0.004 A 
ATOM     35  C   UNL     1      -3.467  -0.733   1.081  0.00  0.00    +0.046 A 
ATOM     36  C   UNL     1      -2.109  -0.632   1.349  0.00  0.00    +0.135 A 
ENDBRANCH  29  36
ENDBRANCH  27  29
ENDBRANCH   1  27
TORSDOF 6
