REMARK  Name = ZINC59086940
REMARK  4 active torsions:
REMARK  status: ('A' for Active; 'I' for Inactive)
REMARK    1  A    between atoms: C_1  and  C_2
REMARK    2  A    between atoms: N_10  and  C_13
REMARK    3  A    between atoms: C_13  and  C_14
REMARK    4  A    between atoms: C_13  and  C_15
REMARK                            x       y       z     vdW  Elec       q    Type
REMARK                         _______ _______ _______ _____ _____    ______ ____
ROOT
ATOM      1  C   UNL     1      -0.019   1.526   0.010  0.00  0.00    +0.025 C 
ATOM      2  C   UNL     1       0.002  -0.004   0.002  0.00  0.00    +0.064 C 
ATOM      3  C   UNL     1      -1.397  -0.572   0.218  0.00  0.00    +0.107 C 
ATOM      4  C   UNL     1      -1.544  -0.187   1.736  0.00  0.00    +0.122 C 
ATOM      5  C   UNL     1      -2.963  -0.331   1.949  0.00  0.00    +0.228 C 
ATOM      6  O   UNL     1      -3.527  -0.682   2.963  0.00  0.00    -0.275 OA
ATOM      7  N   UNL     1      -3.537   0.019   0.750  0.00  0.00    -0.239 N 
ATOM      8  C   UNL     1      -2.615   0.146  -0.273  0.00  0.00    +0.227 C 
ATOM      9  O   UNL     1      -2.753   0.716  -1.333  0.00  0.00    -0.275 OA
ATOM     10  C   UNL     1      -0.249  -0.474   2.345  0.00  0.00    +0.136 C 
ATOM     11  N   UNL     1       0.730  -0.542   1.206  0.00  0.00    -0.296 NA
ATOM     12  C   UNL     1       0.232   0.568   3.324  0.00  0.00    +0.003 A 
ATOM     13  C   UNL     1       0.414   1.930   3.234  0.00  0.00    +0.008 A 
ATOM     14  C   UNL     1       0.882   2.638   4.327  0.00  0.00    +0.000 A 
ATOM     15  C   UNL     1       1.165   1.975   5.507  0.00  0.00    +0.002 A 
ATOM     16  C   UNL     1       0.982   0.611   5.601  0.00  0.00    +0.023 A 
ATOM     17  C   UNL     1       0.510  -0.110   4.505  0.00  0.00    +0.039 A 
ATOM     18  N   UNL     1       0.247  -1.472   4.354  0.00  0.00    -0.283 N 
ATOM     19  C   UNL     1      -0.200  -1.770   3.122  0.00  0.00    +0.243 C 
ATOM     20  O   UNL     1      -0.506  -2.869   2.711  0.00  0.00    -0.273 OA
ATOM     21  H   UNL     1       1.031  -1.492   1.052  0.00  0.00    +0.123 HD
ATOM     22  H   UNL     1       0.373  -2.128   5.057  0.00  0.00    +0.155 HD
ENDROOT
BRANCH   7  23
ATOM     23  C   UNL     1      -4.976   0.225   0.567  0.00  0.00    +0.078 C 
ATOM     24  C   UNL     1      -5.231   1.657   0.095  0.00  0.00    +0.028 C 
ATOM     25  C   UNL     1      -5.503  -0.759  -0.480  0.00  0.00    +0.028 C 
ENDBRANCH   7  23
TORSDOF 1
