REMARK  Name = ZINC01957474
REMARK  7 active torsions:
REMARK  status: ('A' for Active; 'I' for Inactive)
REMARK    1  A    between atoms: C_1  and  C_2
REMARK    2  A    between atoms: C_2  and  O_3
REMARK    3  A    between atoms: O_3  and  C_4
REMARK    4  A    between atoms: C_4  and  C_6
REMARK    5  A    between atoms: C_7  and  C_36
REMARK    6  A    between atoms: N_13  and  N_16
REMARK    7  A    between atoms: C_17  and  C_18
REMARK                            x       y       z     vdW  Elec       q    Type
REMARK                         _______ _______ _______ _____ _____    ______ ____
ROOT
ATOM      1  N   UNL     1       0.148  -2.871  -0.002  0.00  0.00    -0.170 NA
ATOM      2  C   UNL     1       1.271  -2.216  -0.022  0.00  0.00    +0.148 C 
ENDROOT
BRANCH   2   3
ATOM      3  C   UNL     1       1.265  -0.746  -0.023  0.00  0.00    +0.080 A 
ATOM      4  C   UNL     1       2.454  -0.034  -0.045  0.00  0.00    +0.028 A 
ATOM      5  C   UNL     1       2.384   1.381  -0.044  0.00  0.00    +0.019 A 
ATOM      6  C   UNL     1       3.557   2.145  -0.087  0.00  0.00    +0.017 A 
ATOM      7  C   UNL     1       3.497   3.513  -0.064  0.00  0.00    -0.025 A 
ATOM      8  C   UNL     1       2.261   4.163   0.013  0.00  0.00    +0.040 A 
ATOM      9  C   UNL     1       1.088   3.422   0.010  0.00  0.00    +0.017 A 
ATOM     10  C   UNL     1       1.139   2.027  -0.008  0.00  0.00    +0.144 A 
ATOM     11  O   UNL     1      -0.018   1.334   0.006  0.00  0.00    -0.421 OA
ATOM     12  C   UNL     1       0.001  -0.004   0.000  0.00  0.00    +0.346 A 
ATOM     13  O   UNL     1      -1.051  -0.616   0.014  0.00  0.00    -0.244 OA
ATOM     14  C   UNL     1      -0.281   4.044  -0.003  0.00  0.00    +0.042 C 
ATOM     15  C   UNL     1      -0.223   5.564  -0.012  0.00  0.00    +0.024 C 
ATOM     16  C   UNL     1       1.004   6.027   0.773  0.00  0.00    +0.105 C 
ATOM     17  N   UNL     1       2.210   5.550   0.084  0.00  0.00    -0.329 N 
ATOM     18  C   UNL     1       3.405   6.115   0.724  0.00  0.00    +0.105 C 
ATOM     19  C   UNL     1       4.629   5.755  -0.117  0.00  0.00    +0.024 C 
ATOM     20  C   UNL     1       4.809   4.245  -0.125  0.00  0.00    +0.038 C 
ENDBRANCH   2   3
BRANCH   1  28
ATOM     21  C   UNL     1      -1.811  -8.638  -0.503  0.00  0.00    +0.102 A 
ATOM     22  C   UNL     1      -2.058  -7.299  -0.409  0.00  0.00    -0.015 A 
ATOM     23  C   UNL     1      -0.994  -6.401  -0.307  0.00  0.00    +0.078 A 
ATOM     24  C   UNL     1       0.299  -6.975  -0.311  0.00  0.00    +0.116 A 
ATOM     25  S   UNL     1      -0.028  -8.714  -0.454  0.00  0.00    -0.062 S 
ATOM     26  N   UNL     1       1.394  -6.233  -0.220  0.00  0.00    -0.228 NA
ATOM     27  C   UNL     1       1.334  -4.932  -0.128  0.00  0.00    +0.227 A 
ATOM     28  N   UNL     1       0.150  -4.268  -0.108  0.00  0.00    -0.185 N 
ATOM     29  C   UNL     1      -1.023  -4.925  -0.195  0.00  0.00    +0.283 A 
ATOM     30  O   UNL     1      -2.080  -4.320  -0.182  0.00  0.00    -0.265 OA
ATOM     31  C   UNL     1      -3.477  -6.791  -0.414  0.00  0.00    +0.046 C 
BRANCH  21  32
ATOM     32  C   UNL     1      -2.770  -9.739  -0.617  0.00  0.00    +0.346 C 
ATOM     33  O   UNL     1      -3.963  -9.506  -0.635  0.00  0.00    -0.244 OA
BRANCH  32  34
ATOM     34  O   UNL     1      -2.329 -11.011  -0.701  0.00  0.00    -0.461 OA
BRANCH  34  36
ATOM     35  C   UNL     1      -2.651 -13.417  -0.895  0.00  0.00    +0.048 C 
ATOM     36  C   UNL     1      -3.336 -12.051  -0.811  0.00  0.00    +0.229 C 
ENDBRANCH  34  36
ENDBRANCH  32  34
ENDBRANCH  21  32
ENDBRANCH   1  28
TORSDOF 5
