REMARK  Name = ZINC36846832
REMARK  6 active torsions:
REMARK  status: ('A' for Active; 'I' for Inactive)
REMARK    1  A    between atoms: C_3  and  C_8
REMARK    2  A    between atoms: C_10  and  N_12
REMARK    3  A    between atoms: N_12  and  C_13
REMARK    4  A    between atoms: C_13  and  C_14
REMARK    5  A    between atoms: C_14  and  S_15
REMARK    6  A    between atoms: S_15  and  N_18
REMARK                            x       y       z     vdW  Elec       q    Type
REMARK                         _______ _______ _______ _____ _____    ______ ____
ROOT
ATOM      1  C   UNL     1       3.672   2.183  -0.022  0.00  0.00    +0.016 C 
ATOM      2  C   UNL     1       4.765   1.544  -0.894  0.00  0.00    -0.008 C 
ATOM      3  C   UNL     1       5.762   1.927   0.212  0.00  0.00    -0.071 C 
ATOM      4  C   UNL     1       4.574   1.887   1.188  0.00  0.00    -0.008 C 
ENDROOT
BRANCH   1   7
ATOM      5  C   UNL     1      -0.017   1.378   0.010  0.00  0.00    +0.001 A 
ATOM      6  C   UNL     1       1.171   2.086   0.002  0.00  0.00    +0.004 A 
ATOM      7  C   UNL     1       2.378   1.411  -0.013  0.00  0.00    -0.043 A 
ATOM      8  C   UNL     1       2.397   0.029  -0.022  0.00  0.00    +0.019 A 
ATOM      9  C   UNL     1       1.210  -0.679  -0.014  0.00  0.00    +0.018 A 
ATOM     10  C   UNL     1       0.002  -0.004   0.002  0.00  0.00    +0.015 A 
ATOM     11 BR   UNL     1       1.236  -2.570  -0.025  0.00  0.00    -0.050 Br
ENDBRANCH   1   7
BRANCH   3  12
ATOM     12  N   UNL     1       6.774   0.896   0.475  0.00  0.00    +0.382 N 
ATOM     13  H   UNL     1       6.325   0.070   0.841  0.00  0.00    -0.085 HD
ATOM     14  H   UNL     1       7.252   0.666  -0.384  0.00  0.00    -0.085 HD
BRANCH  12  15
ATOM     15  C   UNL     1       7.745   1.401   1.455  0.00  0.00    -0.058 C 
BRANCH  15  16
ATOM     16  C   UNL     1       8.799   0.327   1.730  0.00  0.00    +0.166 C 
BRANCH  16  17
ATOM     17  S   UNL     1       9.998   0.951   2.940  0.00  0.00    +0.025 S 
ATOM     18  O   UNL     1      10.764   2.004   2.372  0.00  0.00    -0.158 OA
ATOM     19  O   UNL     1       9.375   1.110   4.208  0.00  0.00    -0.158 OA
BRANCH  17  20
ATOM     20  N   UNL     1      11.075  -0.289   3.151  0.00  0.00    -0.208 NA
ATOM     21  H   UNL     1      10.961  -1.118   2.661  0.00  0.00    +0.144 HD
ATOM     22  H   UNL     1      11.819  -0.186   3.764  0.00  0.00    +0.144 HD
ENDBRANCH  17  20
ENDBRANCH  16  17
ENDBRANCH  15  16
ENDBRANCH  12  15
ENDBRANCH   3  12
TORSDOF 6
