REMARK  Name = ZINC06502267
REMARK  9 active torsions:
REMARK  status: ('A' for Active; 'I' for Inactive)
REMARK    1  A    between atoms: C_1  and  C_2
REMARK    2  A    between atoms: C_5  and  C_8
REMARK    3  A    between atoms: C_11  and  C_22
REMARK    4  A    between atoms: C_16  and  C_18
REMARK    5  A    between atoms: C_18  and  C_19
REMARK    6  A    between atoms: C_19  and  C_20
REMARK    7  A    between atoms: C_20  and  O_21
REMARK    8  A    between atoms: C_25  and  O_28
REMARK    9  A    between atoms: O_28  and  C_29
REMARK                            x       y       z     vdW  Elec       q    Type
REMARK                         _______ _______ _______ _____ _____    ______ ____
ROOT
ATOM      1  C   UNL     1       0.059  -4.275  -0.021  0.00  0.00    +0.147 C 
ATOM      2  C   UNL     1      -1.170  -4.814   0.719  0.00  0.00    +0.087 C 
ATOM      3  C   UNL     1      -0.995  -4.706   2.208  0.00  0.00    +0.055 C 
ATOM      4  N   UNL     1       0.166  -4.843   2.791  0.00  0.00    -0.217 NA
ATOM      5  C   UNL     1       1.270  -5.017   2.017  0.00  0.00    +0.227 A 
ATOM      6  N   UNL     1       1.253  -4.758   0.672  0.00  0.00    -0.223 N 
ATOM      7  N   UNL     1       2.528  -5.042   0.194  0.00  0.00    -0.155 NA
ATOM      8  C   UNL     1       3.243  -5.425   1.226  0.00  0.00    +0.130 A 
ATOM      9  N   UNL     1       2.483  -5.403   2.327  0.00  0.00    -0.311 N 
ATOM     10  H   UNL     1       2.784  -5.636   3.219  0.00  0.00    +0.170 HD
ENDROOT
BRANCH   1  15
ATOM     11  C   UNL     1      -0.018   1.503   0.010  0.00  0.00    +0.044 C 
ATOM     12  C   UNL     1       0.002  -0.004   0.002  0.00  0.00    -0.050 A 
ATOM     13  C   UNL     1       0.006  -0.689  -1.199  0.00  0.00    +0.004 A 
ATOM     14  C   UNL     1       0.025  -2.071  -1.206  0.00  0.00    +0.006 A 
ATOM     15  C   UNL     1       0.040  -2.768  -0.013  0.00  0.00    -0.023 A 
ATOM     16  C   UNL     1       0.037  -2.084   1.188  0.00  0.00    +0.006 A 
ATOM     17  C   UNL     1       0.023  -0.702   1.195  0.00  0.00    +0.004 A 
ENDBRANCH   1  15
BRANCH   3  18
ATOM     18  C   UNL     1      -2.176  -4.436   3.040  0.00  0.00    -0.003 A 
ATOM     19  C   UNL     1      -3.435  -4.290   2.446  0.00  0.00    +0.013 A 
ATOM     20  C   UNL     1      -4.538  -4.038   3.230  0.00  0.00    +0.046 A 
ATOM     21  C   UNL     1      -4.403  -3.928   4.609  0.00  0.00    +0.120 A 
ATOM     22  C   UNL     1      -3.154  -4.072   5.204  0.00  0.00    +0.046 A 
ATOM     23  C   UNL     1      -2.046  -4.330   4.430  0.00  0.00    +0.013 A 
BRANCH  21  24
ATOM     24  O   UNL     1      -5.493  -3.679   5.378  0.00  0.00    -0.495 OA
ATOM     25  C   UNL     1      -5.284  -3.578   6.788  0.00  0.00    +0.277 C 
ENDBRANCH  21  24
ENDBRANCH   3  18
BRANCH   8  26
ATOM     26  C   UNL     1       4.694  -5.828   1.179  0.00  0.00    +0.078 C 
BRANCH  26  27
ATOM     27  C   UNL     1       4.879  -6.945   0.150  0.00  0.00    +0.035 C 
BRANCH  27  28
ATOM     28  C   UNL     1       6.353  -7.354   0.102  0.00  0.00    +0.156 C 
BRANCH  28  29
ATOM     29  O   UNL     1       6.526  -8.399  -0.859  0.00  0.00    -0.395 OA
ATOM     30  H   UNL     1       7.438  -8.708  -0.943  0.00  0.00    +0.209 HD
ENDBRANCH  28  29
ENDBRANCH  27  28
ENDBRANCH  26  27
ENDBRANCH   8  26
TORSDOF 7
