REMARK  Name = ZINC12577807
REMARK  8 active torsions:
REMARK  status: ('A' for Active; 'I' for Inactive)
REMARK    1  A    between atoms: C_1  and  C_2
REMARK    2  A    between atoms: C_2  and  O_3
REMARK    3  A    between atoms: O_3  and  C_4
REMARK    4  A    between atoms: C_9  and  C_10
REMARK    5  A    between atoms: C_10  and  N_58
REMARK    6  A    between atoms: C_16  and  C_18
REMARK    7  A    between atoms: C_18  and  C_19
REMARK    8  A    between atoms: C_24  and  C_27
REMARK                            x       y       z     vdW  Elec       q    Type
REMARK                         _______ _______ _______ _____ _____    ______ ____
ROOT
ATOM      1  C   UNL     1      -1.320   6.038  -2.243  0.00  0.00    -0.058 C 
ATOM      2  C   UNL     1      -1.035   6.237  -3.732  0.00  0.00    +0.085 C 
ATOM      3  N   UNL     1      -0.099   7.341  -3.920  0.00  0.00    -0.318 N 
ATOM      4  C   UNL     1       0.673   7.814  -2.936  0.00  0.00    +0.200 C 
ATOM      5  O   UNL     1       1.447   8.714  -3.186  0.00  0.00    -0.278 OA
ATOM      6  C   UNL     1       0.624   7.277  -1.534  0.00  0.00    +0.028 C 
ATOM      7  H   UNL     1      -0.034   7.750  -4.797  0.00  0.00    +0.149 HD
ATOM      8  N   UNL     1      -0.026   5.953  -1.537  0.00  0.00    +0.391 N 
ATOM      9  H   UNL     1       0.579   5.283  -2.026  0.00  0.00    -0.080 HD
ENDROOT
BRANCH   8  10
ATOM     10  C   UNL     1      -0.235   5.488  -0.147  0.00  0.00    -0.038 C 
BRANCH  10  16
ATOM     11  C   UNL     1       0.102   3.014  -0.383  0.00  0.00    +0.122 A 
ATOM     12  C   UNL     1      -0.390   1.717  -0.409  0.00  0.00    +0.046 A 
ATOM     13  C   UNL     1      -1.740   1.487  -0.229  0.00  0.00    +0.004 A 
ATOM     14  C   UNL     1      -2.602   2.549  -0.027  0.00  0.00    +0.000 A 
ATOM     15  C   UNL     1      -2.115   3.842   0.004  0.00  0.00    +0.005 A 
ATOM     16  C   UNL     1      -0.765   4.078  -0.176  0.00  0.00    -0.022 A 
BRANCH  11  17
ATOM     17  O   UNL     1       1.429   3.243  -0.560  0.00  0.00    -0.492 OA
BRANCH  17  19
ATOM     18  C   UNL     1       3.740   2.549  -0.704  0.00  0.00    +0.048 C 
ATOM     19  C   UNL     1       2.279   2.098  -0.649  0.00  0.00    +0.225 C 
ENDBRANCH  17  19
ENDBRANCH  11  17
ENDBRANCH  10  16
ENDBRANCH   8  10
BRANCH   6  20
ATOM     20  C   UNL     1       2.048   7.131  -0.995  0.00  0.00    +0.090 C 
BRANCH  20  21
ATOM     21  C   UNL     1       2.854   6.269  -1.932  0.00  0.00    +0.214 C 
ATOM     22  O   UNL     1       2.311   5.715  -2.864  0.00  0.00    -0.276 OA
ATOM     23  N   UNL     1       4.178   6.115  -1.734  0.00  0.00    -0.301 N 
ATOM     24  C   UNL     1       4.832   6.695  -0.553  0.00  0.00    +0.108 C 
ATOM     25  C   UNL     1       6.009   7.556  -1.008  0.00  0.00    +0.022 C 
ATOM     26  C   UNL     1       6.936   6.721  -1.893  0.00  0.00    -0.011 C 
ATOM     27  C   UNL     1       6.173   6.249  -3.133  0.00  0.00    +0.022 C 
ATOM     28  C   UNL     1       4.997   5.369  -2.699  0.00  0.00    +0.108 C 
ATOM     29  C   UNL     1       8.133   7.572  -2.325  0.00  0.00    +0.007 C 
ENDBRANCH  20  21
ENDBRANCH   6  20
TORSDOF 6
