REMARK  Name = ZINC39306382
REMARK  4 active torsions:
REMARK  status: ('A' for Active; 'I' for Inactive)
REMARK    1  A    between atoms: C_8  and  S_11
REMARK    2  A    between atoms: S_11  and  C_12
REMARK    3  A    between atoms: C_12  and  C_13
REMARK    4  A    between atoms: C_19  and  N_23
REMARK                            x       y       z     vdW  Elec       q    Type
REMARK                         _______ _______ _______ _____ _____    ______ ____
ROOT
ATOM      1  C   UNL     1       3.035  -3.185   4.123  0.00  0.00    +0.118 A 
ATOM      2  H   UNL     1       1.133  -3.877   4.634  0.00  0.00    +0.167 HD
ATOM      3  N   UNL     1       4.187  -3.281   4.720  0.00  0.00    -0.232 NA
ATOM      4  C   UNL     1       4.045  -3.978   5.877  0.00  0.00    +0.089 A 
ATOM      5  C   UNL     1       4.933  -4.366   6.883  0.00  0.00    +0.032 A 
ATOM      6  C   UNL     1       4.478  -5.082   7.955  0.00  0.00    +0.035 A 
ATOM      7  C   UNL     1       3.139  -5.429   8.056  0.00  0.00    +0.128 A 
ATOM      8  C   UNL     1       2.244  -5.057   7.075  0.00  0.00    +0.060 A 
ATOM      9  C   UNL     1       2.688  -4.329   5.980  0.00  0.00    +0.068 A 
ATOM     10  N   UNL     1       2.074  -3.809   4.858  0.00  0.00    -0.341 N 
ENDROOT
BRANCH   7  11
ATOM     11  N   UNL     1       2.667  -6.204   9.225  0.00  0.00    +0.056 N 
ATOM     12  O   UNL     1       3.448  -6.533  10.088  0.00  0.00    -0.126 OA
ATOM     13  O   UNL     1       1.501  -6.509   9.318  0.00  0.00    -0.126 OA
ENDBRANCH   7  11
BRANCH   1  14
ATOM     14  C   UNL     1       2.797  -2.481   2.813  0.00  0.00    +0.146 C 
BRANCH  14  15
ATOM     15  S   UNL     1       3.016  -3.655   1.447  0.00  0.00    -0.120 S 
BRANCH  15  23
ATOM     16  C   UNL     1      -0.017   1.371   0.010  0.00  0.00    +0.002 A 
ATOM     17  C   UNL     1       1.157   2.102   0.002  0.00  0.00    +0.001 A 
ATOM     18  C   UNL     1       2.367   1.427  -0.013  0.00  0.00    +0.016 A 
ATOM     19  C   UNL     1       2.384   0.051  -0.020  0.00  0.00    +0.031 A 
ATOM     20  C   UNL     1       1.215  -0.716  -0.013  0.00  0.00    +0.042 A 
ATOM     21  C   UNL     1       0.002  -0.004   0.002  0.00  0.00    +0.024 A 
ATOM     22  N   UNL     1       1.341  -2.104  -0.022  0.00  0.00    -0.323 N 
ATOM     23  C   UNL     1       2.700  -2.663  -0.039  0.00  0.00    +0.193 C 
ATOM     24  S   UNL     1       3.714  -1.130  -0.039  0.00  0.00    -0.090 S 
ATOM     25  H   UNL     1       0.560  -2.680  -0.018  0.00  0.00    +0.148 HD
ENDBRANCH  15  23
ENDBRANCH  14  15
ENDBRANCH   1  14
TORSDOF 4
