REMARK  Name = ZINC03130039
REMARK  9 active torsions:
REMARK  status: ('A' for Active; 'I' for Inactive)
REMARK    1  A    between atoms: C_1  and  C_2
REMARK    2  A    between atoms: C_2  and  C_24
REMARK    3  A    between atoms: C_9  and  C_11
REMARK    4  A    between atoms: C_9  and  N_19
REMARK    5  A    between atoms: C_16  and  O_17
REMARK    6  A    between atoms: O_17  and  C_18
REMARK    7  A    between atoms: N_19  and  N_20
REMARK    8  A    between atoms: N_20  and  C_21
REMARK    9  A    between atoms: C_21  and  N_23
REMARK                            x       y       z     vdW  Elec       q    Type
REMARK                         _______ _______ _______ _____ _____    ______ ____
ROOT
ATOM      1  C   UNL     1       2.750   4.395   1.597  0.00  0.00    +0.046 C 
ATOM      2  C   UNL     1       2.160   4.065   0.225  0.00  0.00    +0.092 C 
ATOM      3  C   UNL     1       0.987   3.125   0.376  0.00  0.00    -0.009 A 
ATOM      4  C   UNL     1       0.899   1.765   0.592  0.00  0.00    +0.007 A 
ATOM      5  C   UNL     1      -0.341   1.161   0.691  0.00  0.00    +0.000 A 
ATOM      6  C   UNL     1      -1.491   1.917   0.566  0.00  0.00    +0.000 A 
ATOM      7  C   UNL     1      -1.404   3.281   0.354  0.00  0.00    +0.008 A 
ATOM      8  C   UNL     1      -0.167   3.884   0.257  0.00  0.00    +0.011 A 
ATOM      9  C   UNL     1       0.260   5.315   0.029  0.00  0.00    +0.192 C 
ATOM     10  O   UNL     1       1.635   5.256  -0.389  0.00  0.00    -0.339 OA
ATOM     11  C   UNL     1       3.228   3.435  -0.672  0.00  0.00    +0.046 C 
ENDROOT
BRANCH   9  12
ATOM     12  C   UNL     1      -0.585   5.943  -1.050  0.00  0.00    +0.047 A 
ATOM     13  C   UNL     1      -1.469   6.957  -0.734  0.00  0.00    +0.012 A 
ATOM     14  C   UNL     1      -2.244   7.533  -1.723  0.00  0.00    +0.001 A 
ATOM     15  C   UNL     1      -2.136   7.097  -3.031  0.00  0.00    +0.004 A 
ATOM     16  C   UNL     1      -1.253   6.085  -3.352  0.00  0.00    +0.046 A 
ATOM     17  C   UNL     1      -0.471   5.508  -2.362  0.00  0.00    +0.128 A 
BRANCH  17  18
ATOM     18  O   UNL     1       0.402   4.514  -2.676  0.00  0.00    -0.495 OA
ATOM     19  C   UNL     1       0.466   4.117  -4.047  0.00  0.00    +0.277 C 
ENDBRANCH  17  18
ENDBRANCH   9  12
BRANCH   9  20
ATOM     20  N   UNL     1       0.142   6.083   1.276  0.00  0.00    -0.203 NA
ATOM     21  H   UNL     1      -0.813   6.101   1.601  0.00  0.00    +0.148 HD
BRANCH  20  22
ATOM     22  N   UNL     1       0.630   7.349   1.119  0.00  0.00    -0.260 N 
ATOM     23  H   UNL     1       0.922   7.652   0.245  0.00  0.00    +0.168 HD
BRANCH  22  24
ATOM     24  C   UNL     1       0.705   8.179   2.179  0.00  0.00    +0.142 C 
ATOM     25  S   UNL     1       1.316   9.766   1.982  0.00  0.00    -0.018 S 
BRANCH  24  26
ATOM     26  N   UNL     1       0.299   7.759   3.393  0.00  0.00    -0.340 N 
ATOM     27  H   UNL     1      -0.047   6.859   3.505  0.00  0.00    +0.144 HD
ATOM     28  H   UNL     1       0.353   8.356   4.156  0.00  0.00    +0.144 HD
ENDBRANCH  24  26
ENDBRANCH  22  24
ENDBRANCH  20  22
ENDBRANCH   9  20
TORSDOF 6
