REMARK  Name = ZINC09023489
REMARK  10 active torsions:
REMARK  status: ('A' for Active; 'I' for Inactive)
REMARK    1  A    between atoms: C_1  and  C_2
REMARK    2  A    between atoms: C_2  and  C_3
REMARK    3  A    between atoms: C_2  and  C_4
REMARK    4  A    between atoms: C_4  and  C_6
REMARK    5  A    between atoms: C_4  and  S_12
REMARK    6  A    between atoms: S_12  and  C_13
REMARK    7  A    between atoms: C_16  and  C_27
REMARK    8  A    between atoms: N_17  and  C_18
REMARK    9  A    between atoms: C_23  and  O_24
REMARK   10  A    between atoms: O_24  and  C_25
REMARK                            x       y       z     vdW  Elec       q    Type
REMARK                         _______ _______ _______ _____ _____    ______ ____
ROOT
ATOM      1  C   UNL     1      -5.122   0.857   0.490  0.00  0.00    +0.197 A 
ATOM      2  N   UNL     1      -5.082  -0.408   0.136  0.00  0.00    -0.122 NA
ATOM      3  N   UNL     1      -6.263  -0.912   0.158  0.00  0.00    -0.128 NA
ATOM      4  C   UNL     1      -7.135   0.002   0.519  0.00  0.00    +0.170 A 
ATOM      5  N   UNL     1      -6.431   1.165   0.743  0.00  0.00    -0.267 N 
ENDROOT
BRANCH   5   6
ATOM      6  C   UNL     1      -6.948   2.405   1.147  0.00  0.00    +0.093 A 
ATOM      7  C   UNL     1      -7.354   3.332   0.198  0.00  0.00    +0.050 A 
ATOM      8  C   UNL     1      -7.863   4.553   0.599  0.00  0.00    +0.043 A 
ATOM      9  C   UNL     1      -7.970   4.853   1.945  0.00  0.00    +0.024 A 
ATOM     10  C   UNL     1      -7.568   3.934   2.896  0.00  0.00    +0.049 A 
ATOM     11  C   UNL     1      -7.061   2.706   2.502  0.00  0.00    +0.144 A 
ATOM     12 CL   UNL     1      -8.370   5.712  -0.590  0.00  0.00    -0.083 Cl
BRANCH  11  13
ATOM     13  O   UNL     1      -6.670   1.799   3.436  0.00  0.00    -0.493 OA
ATOM     14  C   UNL     1      -6.814   2.176   4.807  0.00  0.00    +0.277 C 
ENDBRANCH  11  13
ENDBRANCH   5   6
BRANCH   4  15
ATOM     15  C   UNL     1      -8.595  -0.182   0.658  0.00  0.00    +0.021 A 
ATOM     16  C   UNL     1      -9.358   0.763   1.345  0.00  0.00    +0.012 A 
ATOM     17  C   UNL     1     -10.721   0.588   1.468  0.00  0.00    +0.002 A 
ATOM     18  C   UNL     1     -11.331  -0.526   0.920  0.00  0.00    +0.020 A 
ATOM     19  C   UNL     1     -10.579  -1.471   0.242  0.00  0.00    +0.042 A 
ATOM     20  C   UNL     1      -9.215  -1.305   0.108  0.00  0.00    +0.031 A 
ATOM     21 CL   UNL     1     -11.353  -2.866  -0.441  0.00  0.00    -0.084 Cl
ENDBRANCH   4  15
BRANCH   1  22
ATOM     22  S   UNL     1      -3.749   1.954   0.609  0.00  0.00    -0.073 S 
BRANCH  22  23
ATOM     23  C   UNL     1      -2.431   0.876  -0.005  0.00  0.00    +0.143 C 
BRANCH  23  24
ATOM     24  C   UNL     1      -2.185  -0.231   0.988  0.00  0.00    +0.234 C 
ATOM     25  O   UNL     1      -2.546  -0.105   2.138  0.00  0.00    -0.274 OA
ATOM     26  N   UNL     1      -1.563  -1.361   0.596  0.00  0.00    -0.239 N 
ATOM     27  C   UNL     1      -1.338  -2.349   1.485  0.00  0.00    +0.303 C 
ATOM     28  O   UNL     1      -1.700  -2.223   2.638  0.00  0.00    -0.253 OA
ATOM     29  N   UNL     1      -0.711  -3.476   1.095  0.00  0.00    -0.313 N 
ATOM     30  H   UNL     1      -1.274  -1.461  -0.324  0.00  0.00    +0.159 HD
ATOM     31  H   UNL     1      -0.421  -3.576   0.175  0.00  0.00    +0.146 HD
ATOM     32  H   UNL     1      -0.549  -4.187   1.735  0.00  0.00    +0.146 HD
ENDBRANCH  23  24
BRANCH  23  34
ATOM     33  C   UNL     1      -0.032   0.777  -0.695  0.00  0.00    +0.009 C 
ATOM     34  C   UNL     1      -1.149   1.691  -0.188  0.00  0.00    +0.005 C 
ATOM     35  C   UNL     1      -1.395   2.807  -1.205  0.00  0.00    +0.009 C 
ENDBRANCH  23  34
ENDBRANCH  22  23
ENDBRANCH   1  22
TORSDOF 7
