REMARK  Name = ZINC66262412
REMARK  5 active torsions:
REMARK  status: ('A' for Active; 'I' for Inactive)
REMARK    1  A    between atoms: C_3  and  C_6
REMARK    2  A    between atoms: N_8  and  N_9
REMARK    3  A    between atoms: C_10  and  C_12
REMARK    4  A    between atoms: C_12  and  S_13
REMARK    5  A    between atoms: S_13  and  C_14
REMARK                            x       y       z     vdW  Elec       q    Type
REMARK                         _______ _______ _______ _____ _____    ______ ____
ROOT
ATOM      1  N   UNL     1       6.046   1.141  -0.050  0.00  0.00    -0.233 N 
ATOM      2  C   UNL     1       7.024   0.214  -0.065  0.00  0.00    +0.239 C 
ATOM      3  O   UNL     1       6.741  -0.965  -0.068  0.00  0.00    -0.273 OA
ATOM      4  H   UNL     1       6.272   2.085  -0.048  0.00  0.00    +0.173 HD
ENDROOT
BRANCH   1   7
ATOM      5  C   UNL     1       3.725   1.670  -0.025  0.00  0.00    +0.267 C 
ATOM      6  O   UNL     1       4.008   2.853  -0.022  0.00  0.00    -0.268 OA
ATOM      7  N   UNL     1       4.703   0.743  -0.039  0.00  0.00    -0.230 N 
ATOM      8  H   UNL     1       4.477  -0.201  -0.042  0.00  0.00    +0.173 HD
BRANCH   5  11
ATOM      9  C   UNL     1      -0.016   1.352   0.009  0.00  0.00    +0.008 A 
ATOM     10  C   UNL     1       1.175   2.036   0.002  0.00  0.00    +0.021 A 
ATOM     11  C   UNL     1       2.320   1.253  -0.013  0.00  0.00    +0.075 A 
ATOM     12  S   UNL     1       1.636  -0.394  -0.016  0.00  0.00    -0.092 S 
ATOM     13  C   UNL     1       0.002  -0.004   0.002  0.00  0.00    +0.046 A 
ENDBRANCH   5  11
ENDBRANCH   1   7
BRANCH   2  14
ATOM     14  C   UNL     1       8.469   0.643  -0.076  0.00  0.00    +0.171 C 
BRANCH  14  15
ATOM     15  S   UNL     1       9.535  -0.824  -0.094  0.00  0.00    -0.114 S 
BRANCH  15  16
ATOM     16  C   UNL     1      11.168  -0.164  -0.107  0.00  0.00    +0.030 A 
ATOM     17  C   UNL     1      11.362   1.211  -0.096  0.00  0.00    +0.065 A 
ATOM     18  C   UNL     1      12.648   1.730  -0.105  0.00  0.00    +0.163 A 
ATOM     19  C   UNL     1      13.742   0.873  -0.122  0.00  0.00    +0.164 A 
ATOM     20  C   UNL     1      13.545  -0.500  -0.135  0.00  0.00    +0.070 A 
ATOM     21  C   UNL     1      12.264  -1.019  -0.122  0.00  0.00    +0.058 A 
ATOM     22 CL   UNL     1      12.023  -2.738  -0.130  0.00  0.00    -0.082 Cl
ATOM     23  O   UNL     1      15.012   1.365  -0.123  0.00  0.00    -0.485 OA
ATOM     24  C   UNL     1      15.169   2.740  -0.486  0.00  0.00    +0.270 C 
ATOM     25  C   UNL     1      14.118   3.561   0.273  0.00  0.00    +0.270 C 
ATOM     26  O   UNL     1      12.821   3.080  -0.098  0.00  0.00    -0.485 OA
ENDBRANCH  15  16
ENDBRANCH  14  15
ENDBRANCH   2  14
TORSDOF 5
