REMARK  Name = ZINC67333095
REMARK  4 active torsions:
REMARK  status: ('A' for Active; 'I' for Inactive)
REMARK    1  A    between atoms: C_3  and  C_8
REMARK    2  A    between atoms: C_11  and  N_13
REMARK    3  A    between atoms: C_14  and  C_16
REMARK    4  A    between atoms: C_19  and  N_26
REMARK                            x       y       z     vdW  Elec       q    Type
REMARK                         _______ _______ _______ _____ _____    ______ ____
ROOT
ATOM      1  N   UNL     1       4.235   1.005   2.180  0.00  0.00    -0.307 N 
ATOM      2  C   UNL     1       4.738   1.112   3.426  0.00  0.00    +0.265 C 
ATOM      3  O   UNL     1       5.526   2.000   3.689  0.00  0.00    -0.268 OA
ATOM      4  H   UNL     1       3.607   0.297   1.970  0.00  0.00    +0.149 HD
ENDROOT
BRANCH   2   5
ATOM      5  C   UNL     1       4.333   0.153   4.469  0.00  0.00    +0.155 A 
ATOM      6  C   UNL     1       4.780   0.134   5.868  0.00  0.00    +0.034 A 
ATOM      7  C   UNL     1       5.639   0.903   6.648  0.00  0.00    +0.045 A 
ATOM      8  C   UNL     1       5.823   0.582   7.964  0.00  0.00    +0.127 A 
ATOM      9  C   UNL     1       5.160  -0.502   8.525  0.00  0.00    +0.035 A 
ATOM     10  C   UNL     1       4.312  -1.270   7.777  0.00  0.00    +0.030 A 
ATOM     11  C   UNL     1       4.107  -0.966   6.435  0.00  0.00    +0.067 A 
ATOM     12  N   UNL     1       3.351  -1.508   5.428  0.00  0.00    -0.276 N 
ATOM     13  H   UNL     1       2.778  -2.284   5.530  0.00  0.00    +0.189 HD
ATOM     14  N   UNL     1       3.495  -0.852   4.334  0.00  0.00    -0.168 NA
BRANCH   8  15
ATOM     15  N   UNL     1       6.736   1.396   8.798  0.00  0.00    +0.056 N 
ATOM     16  O   UNL     1       7.315   2.340   8.314  0.00  0.00    -0.126 OA
ATOM     17  O   UNL     1       6.902   1.116   9.962  0.00  0.00    -0.126 OA
ENDBRANCH   8  15
ENDBRANCH   2   5
BRANCH   1  20
ATOM     18  C   UNL     1       3.672   2.186  -0.021  0.00  0.00    +0.041 C 
ATOM     19  C   UNL     1       4.964   1.398  -0.244  0.00  0.00    +0.033 C 
ATOM     20  C   UNL     1       4.638   1.958   1.143  0.00  0.00    +0.081 C 
BRANCH  18  23
ATOM     21  C   UNL     1      -0.017   1.377   0.010  0.00  0.00    +0.003 A 
ATOM     22  C   UNL     1       1.171   2.086   0.002  0.00  0.00    +0.004 A 
ATOM     23  C   UNL     1       2.378   1.413  -0.013  0.00  0.00    -0.040 A 
ATOM     24  C   UNL     1       2.399   0.030  -0.021  0.00  0.00    +0.042 A 
ATOM     25  C   UNL     1       1.211  -0.679  -0.013  0.00  0.00    +0.124 A 
ATOM     26  C   UNL     1       0.002  -0.004   0.002  0.00  0.00    +0.038 A 
ATOM     27  F   UNL     1       1.230  -2.030  -0.022  0.00  0.00    -0.205 F 
ENDBRANCH  18  23
ENDBRANCH   1  20
TORSDOF 4
