REMARK  Name = ZINC21192997
REMARK  11 active torsions:
REMARK  status: ('A' for Active; 'I' for Inactive)
REMARK    1  A    between atoms: C_1  and  C_2
REMARK    2  A    between atoms: C_5  and  C_9
REMARK    3  A    between atoms: C_6  and  C_8
REMARK    4  A    between atoms: N_11  and  N_12
REMARK    5  A    between atoms: C_13  and  C_15
REMARK    6  A    between atoms: C_15  and  C_17
REMARK    7  A    between atoms: C_15  and  N_20
REMARK    8  A    between atoms: C_17  and  C_18
REMARK    9  A    between atoms: C_17  and  C_19
REMARK   10  A    between atoms: N_20  and  S_21
REMARK   11  A    between atoms: S_21  and  C_24
REMARK                            x       y       z     vdW  Elec       q    Type
REMARK                         _______ _______ _______ _____ _____    ______ ____
ROOT
ATOM      1  C   UNL     1       5.096  -0.376  -2.818  0.00  0.00    +0.166 C 
ENDROOT
BRANCH   1   3
ATOM      2  N   UNL     1       4.488   0.385  -5.091  0.00  0.00    -0.233 N 
ATOM      3  C   UNL     1       4.320  -0.515  -4.102  0.00  0.00    +0.248 C 
ATOM      4  O   UNL     1       3.545  -1.436  -4.246  0.00  0.00    -0.273 OA
ATOM      5  H   UNL     1       5.241   1.180  -4.989  0.00  0.00    +0.173 HD
BRANCH   2   8
ATOM      6  C   UNL     1       3.871   1.208  -7.239  0.00  0.00    +0.260 C 
ATOM      7  O   UNL     1       4.704   2.087  -7.126  0.00  0.00    -0.269 OA
ATOM      8  N   UNL     1       3.704   0.308  -6.249  0.00  0.00    -0.230 N 
ATOM      9  H   UNL     1       2.950  -0.487  -6.351  0.00  0.00    +0.173 HD
BRANCH   6  14
ATOM     10  C   UNL     1       0.648   0.891 -11.995  0.00  0.00    +0.044 C 
ATOM     11  C   UNL     1       1.492   0.974 -10.749  0.00  0.00    -0.050 A 
ATOM     12  C   UNL     1       1.413  -0.025  -9.796  0.00  0.00    +0.004 A 
ATOM     13  C   UNL     1       2.182   0.045  -8.653  0.00  0.00    +0.013 A 
ATOM     14  C   UNL     1       3.043   1.127  -8.460  0.00  0.00    +0.041 A 
ATOM     15  C   UNL     1       3.115   2.134  -9.424  0.00  0.00    -0.038 A 
ATOM     16  C   UNL     1       2.343   2.049 -10.564  0.00  0.00    +0.007 A 
ATOM     17  C   UNL     1       4.037   3.308  -9.221  0.00  0.00    +0.044 C 
ENDBRANCH   6  14
ENDBRANCH   2   8
ENDBRANCH   1   3
BRANCH   1  18
ATOM     18  C   UNL     1       6.558  -0.755  -3.061  0.00  0.00    +0.010 C 
ATOM     19  C   UNL     1       7.369  -0.503  -1.788  0.00  0.00    +0.009 C 
ATOM     20  C   UNL     1       6.646  -2.235  -3.437  0.00  0.00    +0.009 C 
ENDBRANCH   1  18
BRANCH   1  21
ATOM     21  N   UNL     1       4.524  -1.265  -1.803  0.00  0.00    -0.178 NA
ATOM     22  H   UNL     1       4.449  -2.345  -1.998  0.00  0.00    +0.149 HD
BRANCH  21  23
ATOM     23  S   UNL     1       3.766  -0.627  -0.476  0.00  0.00    +0.059 S 
ATOM     24  O   UNL     1       4.668   0.312   0.094  0.00  0.00    -0.153 OA
ATOM     25  O   UNL     1       3.244  -1.725   0.260  0.00  0.00    -0.153 OA
BRANCH  23  26
ATOM     26  C   UNL     1       2.381   0.293  -1.058  0.00  0.00    +0.109 A 
ATOM     27  C   UNL     1       1.154  -0.326  -1.207  0.00  0.00    +0.032 A 
ATOM     28  C   UNL     1       0.066   0.393  -1.665  0.00  0.00    +0.051 A 
ATOM     29  C   UNL     1       0.203   1.737  -1.977  0.00  0.00    +0.162 A 
ATOM     30  C   UNL     1       1.436   2.360  -1.826  0.00  0.00    +0.164 A 
ATOM     31  C   UNL     1       2.524   1.633  -1.366  0.00  0.00    +0.078 A 
ATOM     32  O   UNL     1       1.590   3.680  -2.119  0.00  0.00    -0.485 OA
ATOM     33  C   UNL     1       0.575   4.283  -2.928  0.00  0.00    +0.270 C 
ATOM     34  C   UNL     1      -0.794   3.859  -2.377  0.00  0.00    +0.270 C 
ATOM     35  O   UNL     1      -0.876   2.430  -2.435  0.00  0.00    -0.485 OA
ENDBRANCH  23  26
ENDBRANCH  21  23
ENDBRANCH   1  21
TORSDOF 7
