REMARK  Name = ZINC57778943
REMARK  6 active torsions:
REMARK  status: ('A' for Active; 'I' for Inactive)
REMARK    1  A    between atoms: C_1  and  N_2
REMARK    2  A    between atoms: N_2  and  C_3
REMARK    3  A    between atoms: N_2  and  C_4
REMARK    4  A    between atoms: C_7  and  N_10
REMARK    5  A    between atoms: N_21  and  C_23
REMARK    6  A    between atoms: C_23  and  C_24
REMARK                            x       y       z     vdW  Elec       q    Type
REMARK                         _______ _______ _______ _____ _____    ______ ____
ROOT
ATOM      1  N   UNL     1      -4.783  -2.854   0.033  0.00  0.00    -0.285 N 
ATOM      2  C   UNL     1      -5.976  -2.189   0.145  0.00  0.00    +0.200 A 
ATOM      3  N   UNL     1      -7.130  -2.901   0.260  0.00  0.00    -0.295 N 
ATOM      4  H   UNL     1      -7.108  -3.870   0.264  0.00  0.00    +0.172 HD
ATOM      5  C   UNL     1      -8.306  -2.249   0.368  0.00  0.00    +0.254 A 
ATOM      6  O   UNL     1      -9.352  -2.869   0.471  0.00  0.00    -0.268 OA
ATOM      7  C   UNL     1      -8.308  -0.840   0.360  0.00  0.00    +0.022 A 
ATOM      8  C   UNL     1      -7.123  -0.181   0.247  0.00  0.00    +0.050 A 
ATOM      9  N   UNL     1      -5.986  -0.873   0.146  0.00  0.00    -0.220 NA
ATOM     10  C   UNL     1      -7.057   1.325   0.245  0.00  0.00    +0.037 C 
ATOM     11  C   UNL     1      -8.445   1.904  -0.034  0.00  0.00    -0.072 C 
ATOM     12  N   UNL     1      -9.408   1.277   0.884  0.00  0.00    +0.385 N 
ATOM     13  C   UNL     1      -9.621  -0.114   0.473  0.00  0.00    -0.035 C 
ATOM     14  H   UNL     1      -4.772  -3.821  -0.051  0.00  0.00    +0.155 HD
ATOM     15  H   UNL     1      -9.042   1.299   1.825  0.00  0.00    -0.081 HD
ENDROOT
BRANCH   1  19
ATOM     16  C   UNL     1      -1.198  -0.724   0.051  0.00  0.00    +0.029 A 
ATOM     17  C   UNL     1      -2.273  -0.280   0.810  0.00  0.00    +0.025 A 
ATOM     18  C   UNL     1      -3.460  -0.985   0.803  0.00  0.00    +0.025 A 
ATOM     19  C   UNL     1      -3.579  -2.138   0.038  0.00  0.00    +0.034 A 
ATOM     20  C   UNL     1      -2.503  -2.582  -0.720  0.00  0.00    +0.025 A 
ATOM     21  C   UNL     1      -1.318  -1.874  -0.718  0.00  0.00    +0.025 A 
BRANCH  16  23
ATOM     22  C   UNL     1       1.138  -0.474  -0.748  0.00  0.00    +0.129 C 
ATOM     23  N   UNL     1       0.005  -0.009   0.057  0.00  0.00    -0.336 N 
ATOM     24  C   UNL     1       0.132   1.204   0.869  0.00  0.00    +0.129 C 
ENDBRANCH  16  23
ENDBRANCH   1  19
BRANCH  12  25
ATOM     25  C   UNL     1     -10.683   2.006   0.833  0.00  0.00    -0.043 C 
BRANCH  25  26
ATOM     26  C   UNL     1     -11.627   1.439   1.862  0.00  0.00    -0.064 A 
ATOM     27  C   UNL     1     -12.469   0.395   1.527  0.00  0.00    +0.002 A 
ATOM     28  C   UNL     1     -13.335  -0.124   2.471  0.00  0.00    +0.000 A 
ATOM     29  C   UNL     1     -13.359   0.400   3.750  0.00  0.00    +0.000 A 
ATOM     30  C   UNL     1     -12.516   1.443   4.085  0.00  0.00    +0.000 A 
ATOM     31  C   UNL     1     -11.647   1.960   3.142  0.00  0.00    +0.002 A 
ENDBRANCH  25  26
ENDBRANCH  12  25
TORSDOF 4
