REMARK  Name = ZINC63857143
REMARK  2 active torsions:
REMARK  status: ('A' for Active; 'I' for Inactive)
REMARK    1  A    between atoms: C_8  and  C_10
REMARK    2  A    between atoms: C_10  and  N_11
REMARK                            x       y       z     vdW  Elec       q    Type
REMARK                         _______ _______ _______ _____ _____    ______ ____
ROOT
ATOM      1  N   UNL     1       4.929   0.351   3.166  0.00  0.00    -0.286 N 
ATOM      2  C   UNL     1       4.731  -0.718   4.130  0.00  0.00    +0.193 C 
ATOM      3  N   UNL     1       5.887  -0.917   4.984  0.00  0.00    -0.288 NA
ATOM      4  C   UNL     1       7.170  -0.942   4.300  0.00  0.00    +0.133 C 
ATOM      5  C   UNL     1       7.392   0.324   3.454  0.00  0.00    +0.126 C 
ATOM      6  C   UNL     1       6.137   0.820   2.840  0.00  0.00    +0.226 C 
ATOM      7  O   UNL     1       6.210   1.688   1.996  0.00  0.00    -0.275 OA
ATOM      8  C   UNL     1       8.068   1.396   4.244  0.00  0.00    -0.005 C 
ATOM      9  C   UNL     1       8.705   1.078   5.357  0.00  0.00    +0.039 C 
ATOM     10  S   UNL     1       8.503  -0.705   5.553  0.00  0.00    -0.113 S 
ATOM     11  H   UNL     1       5.896  -0.252   5.743  0.00  0.00    +0.124 HD
ENDROOT
BRANCH   1  12
ATOM     12  C   UNL     1       3.752   0.937   2.518  0.00  0.00    +0.142 C 
BRANCH  12  20
ATOM     13  C   UNL     1      -0.019   1.540   0.011  0.00  0.00    +0.011 C 
ATOM     14  C   UNL     1       1.490   1.873  -0.002  0.00  0.00    +0.035 C 
ATOM     15  C   UNL     1       2.155   0.666   0.607  0.00  0.00    -0.019 C 
ATOM     16  C   UNL     1       1.337  -0.385   0.616  0.00  0.00    +0.065 C 
ATOM     17  C   UNL     1       0.002  -0.004   0.002  0.00  0.00    +0.057 C 
ATOM     18  N   UNL     1       1.966  -1.456   1.172  0.00  0.00    -0.158 NA
ATOM     19  N   UNL     1       3.122  -1.243   1.540  0.00  0.00    -0.178 NA
ATOM     20  C   UNL     1       3.438   0.163   1.236  0.00  0.00    +0.173 C 
ENDBRANCH  12  20
ENDBRANCH   1  12
TORSDOF 2
