REMARK  Name = ZINC40683068
REMARK  5 active torsions:
REMARK  status: ('A' for Active; 'I' for Inactive)
REMARK    1  A    between atoms: C_1  and  C_2
REMARK    2  A    between atoms: C_2  and  C_3
REMARK    3  A    between atoms: C_11  and  N_27
REMARK    4  A    between atoms: C_12  and  O_16
REMARK    5  A    between atoms: O_16  and  C_17
REMARK                            x       y       z     vdW  Elec       q    Type
REMARK                         _______ _______ _______ _____ _____    ______ ____
ROOT
ATOM      1  C   UNL     1      -2.651   0.175  -0.118  0.00  0.00    +0.075 C 
ATOM      2  C   UNL     1      -2.137  -0.382   1.213  0.00  0.00    +0.022 C 
ATOM      3  C   UNL     1      -2.124  -1.911   1.151  0.00  0.00    +0.003 C 
ATOM      4  C   UNL     1      -1.179  -2.369   0.038  0.00  0.00    +0.019 C 
ATOM      5  C   UNL     1      -1.682  -1.835  -1.307  0.00  0.00    +0.107 C 
ATOM      6  N   UNL     1      -1.838  -0.377  -1.211  0.00  0.00    -0.311 N 
ATOM      7  C   UNL     1      -1.226   0.464  -2.132  0.00  0.00    +0.149 A 
ATOM      8  C   UNL     1      -1.920   0.901  -3.264  0.00  0.00    +0.128 A 
ATOM      9  C   UNL     1      -1.260   1.743  -4.157  0.00  0.00    +0.246 A 
ATOM     10  N   UNL     1      -0.003   2.096  -3.901  0.00  0.00    -0.199 NA
ATOM     11  C   UNL     1       0.616   1.662  -2.822  0.00  0.00    +0.227 A 
ATOM     12  N   UNL     1       0.027   0.869  -1.949  0.00  0.00    -0.219 NA
ENDROOT
BRANCH   8  13
ATOM     13  N   UNL     1      -3.246   0.503  -3.495  0.00  0.00    -0.351 N 
ATOM     14  H   UNL     1      -3.669  -0.142  -2.906  0.00  0.00    +0.143 HD
ATOM     15  H   UNL     1      -3.740   0.873  -4.244  0.00  0.00    +0.143 HD
ENDBRANCH   8  13
BRANCH   1  17
ATOM     16  C   UNL     1      -3.495   2.282   0.927  0.00  0.00    +0.006 C 
ATOM     17  C   UNL     1      -2.536   1.701  -0.114  0.00  0.00    +0.019 C 
ENDBRANCH   1  17
BRANCH   9  18
ATOM     18  O   UNL     1      -1.888   2.195  -5.271  0.00  0.00    -0.436 OA
BRANCH  18  19
ATOM     19  C   UNL     1      -1.165   2.924  -6.160  0.00  0.00    +0.138 A 
ATOM     20  C   UNL     1      -1.191   4.299  -6.114  0.00  0.00    +0.047 A 
ATOM     21  C   UNL     1      -0.453   5.056  -7.020  0.00  0.00    +0.004 A 
ATOM     22  C   UNL     1       0.313   4.459  -7.974  0.00  0.00    +0.009 A 
ATOM     23  C   UNL     1       0.366   3.057  -8.054  0.00  0.00    -0.014 A 
ATOM     24  C   UNL     1      -0.377   2.277  -7.134  0.00  0.00    +0.024 A 
ATOM     25  C   UNL     1      -0.318   0.877  -7.212  0.00  0.00    +0.012 A 
ATOM     26  C   UNL     1       0.453   0.287  -8.166  0.00  0.00    +0.001 A 
ATOM     27  C   UNL     1       1.189   1.053  -9.068  0.00  0.00    +0.001 A 
ATOM     28  C   UNL     1       1.147   2.413  -9.029  0.00  0.00    +0.008 A 
ENDBRANCH  18  19
ENDBRANCH   9  18
TORSDOF 4
