REMARK  Name = ZINC44713722
REMARK  7 active torsions:
REMARK  status: ('A' for Active; 'I' for Inactive)
REMARK    1  A    between atoms: C_1  and  C_2
REMARK    2  A    between atoms: C_3  and  C_9
REMARK    3  A    between atoms: C_4  and  C_8
REMARK    4  A    between atoms: C_9  and  C_11
REMARK    5  A    between atoms: C_9  and  N_12
REMARK    6  A    between atoms: C_13  and  C_15
REMARK    7  A    between atoms: C_26  and  C_28
REMARK                            x       y       z     vdW  Elec       q    Type
REMARK                         _______ _______ _______ _____ _____    ______ ____
ROOT
ATOM      1  C   UNL     1       2.721  -0.845  -4.842  0.00  0.00    +0.100 C 
ATOM      2  C   UNL     1       4.029  -1.323  -4.173  0.00  0.00    +0.121 C 
ATOM      3  N   UNL     1       5.052  -1.229  -5.242  0.00  0.00    -0.296 N 
ATOM      4  C   UNL     1       4.717   0.022  -5.964  0.00  0.00    +0.115 C 
ATOM      5  C   UNL     1       3.177   0.038  -6.016  0.00  0.00    -0.004 C 
ATOM      6  C   UNL     1       2.658   1.462  -5.839  0.00  0.00    -0.010 C 
ATOM      7  C   UNL     1       3.075   2.306  -7.047  0.00  0.00    -0.082 C 
ATOM      8  N   UNL     1       2.527   1.713  -8.273  0.00  0.00    +0.379 N 
ATOM      9  C   UNL     1       3.103   0.380  -8.485  0.00  0.00    -0.082 C 
ATOM     10  C   UNL     1       2.687  -0.546  -7.338  0.00  0.00    -0.010 C 
ATOM     11  C   UNL     1       6.058  -2.088  -5.500  0.00  0.00    +0.247 C 
ATOM     12  O   UNL     1       6.137  -3.133  -4.885  0.00  0.00    -0.270 OA
ATOM     13  H   UNL     1       1.524   1.636  -8.189  0.00  0.00    -0.086 HD
ATOM     14  H   UNL     1       2.751   2.304  -9.060  0.00  0.00    -0.086 HD
ENDROOT
BRANCH  11  15
ATOM     15  C   UNL     1       7.066  -1.758  -6.531  0.00  0.00    +0.040 A 
ATOM     16  C   UNL     1       7.266  -0.431  -6.915  0.00  0.00    +0.033 A 
ATOM     17  C   UNL     1       8.208  -0.130  -7.878  0.00  0.00    +0.043 A 
ATOM     18  C   UNL     1       8.954  -1.140  -8.462  0.00  0.00    +0.040 A 
ATOM     19  C   UNL     1       8.759  -2.458  -8.085  0.00  0.00    +0.043 A 
ATOM     20  C   UNL     1       7.824  -2.771  -7.119  0.00  0.00    +0.033 A 
ATOM     21 CL   UNL     1       9.697  -3.717  -8.823  0.00  0.00    -0.083 Cl
ATOM     22 CL   UNL     1       8.459   1.520  -8.358  0.00  0.00    -0.083 Cl
ENDBRANCH  11  15
BRANCH   1  24
ATOM     23  N   UNL     1       0.555  -0.013  -3.984  0.00  0.00    -0.308 N 
ATOM     24  C   UNL     1       1.898  -0.040  -3.870  0.00  0.00    +0.219 C 
ATOM     25  O   UNL     1       2.443   0.583  -2.984  0.00  0.00    -0.275 OA
ATOM     26  H   UNL     1       0.119  -0.512  -4.693  0.00  0.00    +0.149 HD
BRANCH  23  27
ATOM     27  C   UNL     1      -0.245   0.768  -3.039  0.00  0.00    +0.104 C 
ATOM     28  C   UNL     1      -0.322   2.221  -3.514  0.00  0.00    +0.033 C 
BRANCH  27  31
ATOM     29  C   UNL     1      -1.875   0.242  -0.421  0.00  0.00    +0.065 C 
ATOM     30  C   UNL     1      -2.340  -0.035  -1.827  0.00  0.00    +0.038 A 
ATOM     31  C   UNL     1      -1.635   0.192  -2.960  0.00  0.00    +0.015 A 
ATOM     32  C   UNL     1      -2.425  -0.203  -4.044  0.00  0.00    +0.065 A 
ATOM     33  N   UNL     1      -3.563  -0.651  -3.579  0.00  0.00    -0.179 NA
ATOM     34  N   UNL     1      -3.531  -0.561  -2.182  0.00  0.00    -0.281 N 
ATOM     35  H   UNL     1      -4.241  -0.826  -1.576  0.00  0.00    +0.189 HD
ATOM     36  C   UNL     1      -2.034  -0.125  -5.497  0.00  0.00    +0.068 C 
ENDBRANCH  27  31
ENDBRANCH  23  27
ENDBRANCH   1  24
TORSDOF 4
