REMARK  Name = ZINC33921353
REMARK  15 active torsions:
REMARK  status: ('A' for Active; 'I' for Inactive)
REMARK    1  A    between atoms: C_1  and  C_2
REMARK    2  A    between atoms: C_2  and  C_3
REMARK    3  A    between atoms: C_3  and  O_4
REMARK    4  A    between atoms: O_4  and  C_5
REMARK    5  A    between atoms: C_8  and  C_11
REMARK    6  A    between atoms: N_12  and  N_13
REMARK    7  A    between atoms: N_18  and  C_19
REMARK    8  A    between atoms: C_19  and  C_20
REMARK    9  A    between atoms: C_20  and  C_22
REMARK   10  A    between atoms: C_20  and  O_32
REMARK   11  A    between atoms: C_22  and  O_23
REMARK   12  A    between atoms: O_23  and  C_24
REMARK   13  A    between atoms: C_27  and  C_30
REMARK   14  A    between atoms: C_30  and  C_31
REMARK   15  A    between atoms: N_39  and  C_40
REMARK                            x       y       z     vdW  Elec       q    Type
REMARK                         _______ _______ _______ _____ _____    ______ ____
ROOT
ATOM      1  N   UNL     1       2.790  -6.484  -4.634  0.00  0.00    -0.206 N 
ATOM      2  C   UNL     1       3.016  -7.841  -4.600  0.00  0.00    +0.218 A 
ATOM      3  N   UNL     1       3.754  -8.512  -5.462  0.00  0.00    -0.195 NA
ATOM      4  C   UNL     1       3.766  -9.806  -5.141  0.00  0.00    +0.170 A 
ATOM      5  C   UNL     1       2.984  -9.963  -4.001  0.00  0.00    +0.153 A 
ATOM      6  N   UNL     1       2.519  -8.699  -3.669  0.00  0.00    -0.302 N 
ATOM      7  C   UNL     1       2.828 -11.246  -3.447  0.00  0.00    +0.280 A 
ATOM      8  O   UNL     1       2.147 -11.408  -2.449  0.00  0.00    -0.265 OA
ATOM      9  N   UNL     1       3.439 -12.297  -4.031  0.00  0.00    -0.273 N 
ATOM     10  H   UNL     1       3.333 -13.183  -3.652  0.00  0.00    +0.173 HD
ATOM     11  C   UNL     1       4.193 -12.135  -5.133  0.00  0.00    +0.331 A 
ATOM     12  O   UNL     1       4.729 -13.105  -5.633  0.00  0.00    -0.246 OA
ATOM     13  N   UNL     1       4.368 -10.924  -5.696  0.00  0.00    -0.280 N 
ATOM     14  C   UNL     1       5.197 -10.789  -6.896  0.00  0.00    +0.155 C 
ATOM     15  H   UNL     1       2.235  -6.068  -3.956  0.00  0.00    +0.177 HD
ENDROOT
BRANCH   1  17
ATOM     16  C   UNL     1       3.253  -4.411  -5.611  0.00  0.00    +0.138 C 
ATOM     17  N   UNL     1       3.360  -5.704  -5.648  0.00  0.00    -0.188 NA
BRANCH  16  21
ATOM     18  C   UNL     1       2.719  -2.434  -1.892  0.00  0.00    +0.121 A 
ATOM     19  C   UNL     1       2.474  -1.755  -3.078  0.00  0.00    +0.046 A 
ATOM     20  C   UNL     1       2.646  -2.393  -4.288  0.00  0.00    +0.013 A 
ATOM     21  C   UNL     1       3.068  -3.724  -4.319  0.00  0.00    -0.005 A 
ATOM     22  C   UNL     1       3.313  -4.403  -3.123  0.00  0.00    +0.013 A 
ATOM     23  C   UNL     1       3.143  -3.756  -1.918  0.00  0.00    +0.046 A 
BRANCH  18  24
ATOM     24  O   UNL     1       2.548  -1.801  -0.702  0.00  0.00    -0.492 OA
BRANCH  24  25
ATOM     25  C   UNL     1       2.110  -0.442  -0.747  0.00  0.00    +0.229 C 
BRANCH  25  27
ATOM     26  C   UNL     1       1.506   1.554   0.630  0.00  0.00    +0.007 C 
ATOM     27  C   UNL     1       1.975   0.098   0.679  0.00  0.00    +0.038 C 
ENDBRANCH  25  27
ENDBRANCH  24  25
ENDBRANCH  18  24
ENDBRANCH  16  21
ENDBRANCH   1  17
BRANCH   6  28
ATOM     28  C   UNL     1       1.657  -8.354  -2.535  0.00  0.00    +0.160 C 
BRANCH  28  29
ATOM     29  C   UNL     1       0.191  -8.450  -2.962  0.00  0.00    +0.172 C 
BRANCH  29  30
ATOM     30  O   UNL     1      -0.125  -9.808  -3.278  0.00  0.00    -0.387 OA
ATOM     31  H   UNL     1      -0.002 -10.422  -2.542  0.00  0.00    +0.210 HD
ENDBRANCH  29  30
BRANCH  29  32
ATOM     32  C   UNL     1      -0.706  -7.971  -1.819  0.00  0.00    +0.262 C 
BRANCH  32  33
ATOM     33  O   UNL     1      -2.066  -7.951  -2.256  0.00  0.00    -0.489 OA
BRANCH  33  34
ATOM     34  C   UNL     1      -2.998  -7.546  -1.354  0.00  0.00    +0.121 A 
ATOM     35  C   UNL     1      -2.611  -7.170  -0.076  0.00  0.00    +0.046 A 
ATOM     36  C   UNL     1      -3.561  -6.759   0.839  0.00  0.00    +0.007 A 
ATOM     37  C   UNL     1      -4.896  -6.721   0.482  0.00  0.00    -0.047 A 
ATOM     38  C   UNL     1      -5.285  -7.095  -0.791  0.00  0.00    +0.007 A 
ATOM     39  C   UNL     1      -4.338  -7.502  -1.712  0.00  0.00    +0.046 A 
BRANCH  37  40
ATOM     40  C   UNL     1      -5.930  -6.272   1.482  0.00  0.00    +0.032 C 
ATOM     41  C   UNL     1      -6.122  -4.758   1.373  0.00  0.00    +0.009 C 
ENDBRANCH  37  40
ENDBRANCH  33  34
ENDBRANCH  32  33
ENDBRANCH  29  32
ENDBRANCH  28  29
ENDBRANCH   6  28
TORSDOF 12
