REMARK  Name = ZINC11526493
REMARK  8 active torsions:
REMARK  status: ('A' for Active; 'I' for Inactive)
REMARK    1  A    between atoms: C_1  and  C_2
REMARK    2  A    between atoms: C_2  and  C_23
REMARK    3  A    between atoms: N_5  and  N_9
REMARK    4  A    between atoms: C_10  and  C_12
REMARK    5  A    between atoms: C_12  and  S_13
REMARK    6  A    between atoms: S_13  and  C_14
REMARK    7  A    between atoms: N_19  and  C_20
REMARK    8  A    between atoms: C_20  and  C_21
REMARK                            x       y       z     vdW  Elec       q    Type
REMARK                         _______ _______ _______ _____ _____    ______ ____
ROOT
ATOM      1  N   UNL     1       6.704  -2.128  -0.073  0.00  0.00    -0.223 N 
ATOM      2  C   UNL     1       5.369  -2.315  -0.061  0.00  0.00    +0.240 C 
ATOM      3  O   UNL     1       4.914  -3.439  -0.062  0.00  0.00    -0.273 OA
ATOM      4  H   UNL     1       7.068  -1.229  -0.072  0.00  0.00    +0.174 HD
ENDROOT
BRANCH   1   9
ATOM      5  C   UNL     1       8.623  -6.100  -1.512  0.00  0.00    +0.047 C 
ATOM      6  C   UNL     1       9.040  -4.859  -0.720  0.00  0.00    +0.137 C 
ATOM      7  C   UNL     1       8.249  -3.647  -1.172  0.00  0.00    +0.267 C 
ATOM      8  O   UNL     1       8.233  -3.154  -2.279  0.00  0.00    -0.271 OA
ATOM      9  N   UNL     1       7.566  -3.233  -0.086  0.00  0.00    -0.137 N 
ATOM     10  C   UNL     1       7.817  -4.003   0.979  0.00  0.00    +0.327 C 
ATOM     11  O   UNL     1       7.321  -3.825   2.074  0.00  0.00    -0.251 OA
ATOM     12  N   UNL     1       8.677  -5.000   0.700  0.00  0.00    -0.280 N 
ATOM     13  H   UNL     1       8.998  -5.677   1.316  0.00  0.00    +0.152 HD
BRANCH   6  14
ATOM     14  C   UNL     1      10.519  -4.611  -0.868  0.00  0.00    -0.015 A 
ATOM     15  C   UNL     1      10.984  -3.772  -1.863  0.00  0.00    +0.006 A 
ATOM     16  C   UNL     1      12.340  -3.540  -1.995  0.00  0.00    +0.000 A 
ATOM     17  C   UNL     1      13.233  -4.156  -1.138  0.00  0.00    +0.000 A 
ATOM     18  C   UNL     1      12.769  -5.000  -0.146  0.00  0.00    +0.000 A 
ATOM     19  C   UNL     1      11.412  -5.227  -0.011  0.00  0.00    +0.006 A 
ENDBRANCH   6  14
ENDBRANCH   1   9
BRANCH   2  20
ATOM     20  C   UNL     1       4.442  -1.127  -0.046  0.00  0.00    +0.173 C 
BRANCH  20  21
ATOM     21  S   UNL     1       2.722  -1.703  -0.032  0.00  0.00    -0.088 S 
BRANCH  21  22
ATOM     22  C   UNL     1       1.776  -0.216  -0.016  0.00  0.00    +0.160 A 
ATOM     23  N   UNL     1       2.187   1.037  -0.013  0.00  0.00    -0.133 NA
ATOM     24  N   UNL     1       1.267   2.059   0.001  0.00  0.00    -0.125 NA
ATOM     25  C   UNL     1      -0.022   1.782   0.012  0.00  0.00    +0.183 A 
ATOM     26  S   UNL     1       0.002  -0.004   0.002  0.00  0.00    -0.025 S 
ATOM     27  N   UNL     1      -1.109   2.648   0.022  0.00  0.00    -0.319 N 
ATOM     28  H   UNL     1      -2.012   2.293   0.025  0.00  0.00    +0.148 HD
BRANCH  27  29
ATOM     29  C   UNL     1      -0.892   4.097   0.029  0.00  0.00    +0.130 C 
BRANCH  29  30
ATOM     30  C   UNL     1      -2.222   4.805   0.039  0.00  0.00    -0.016 C 
ATOM     31  C   UNL     1      -2.490   5.682   0.975  0.00  0.00    +0.005 C 
ENDBRANCH  29  30
ENDBRANCH  27  29
ENDBRANCH  21  22
ENDBRANCH  20  21
ENDBRANCH   2  20
TORSDOF 7
