REMARK  Name = ZINC01347628
REMARK  5 active torsions:
REMARK  status: ('A' for Active; 'I' for Inactive)
REMARK    1  A    between atoms: C_1  and  C_2
REMARK    2  A    between atoms: N_8  and  S_9
REMARK    3  A    between atoms: S_9  and  C_12
REMARK    4  A    between atoms: C_15  and  S_18
REMARK    5  A    between atoms: S_18  and  N_21
REMARK                            x       y       z     vdW  Elec       q    Type
REMARK                         _______ _______ _______ _____ _____    ______ ____
ROOT
ATOM      1  C   UNL     1       0.653   5.340  -0.914  0.00  0.00    +0.106 A 
ATOM      2  C   UNL     1       1.608   6.248  -1.330  0.00  0.00    +0.030 A 
ATOM      3  C   UNL     1       1.229   7.372  -2.040  0.00  0.00    +0.030 A 
ATOM      4  C   UNL     1      -0.104   7.587  -2.334  0.00  0.00    +0.105 A 
ATOM      5  C   UNL     1      -1.059   6.678  -1.919  0.00  0.00    +0.030 A 
ATOM      6  C   UNL     1      -0.680   5.554  -1.209  0.00  0.00    +0.030 A 
ENDROOT
BRANCH   1   7
ATOM      7  S   UNL     1       1.135   3.907  -0.009  0.00  0.00    +0.061 S 
ATOM      8  O   UNL     1       0.043   3.001  -0.070  0.00  0.00    -0.153 OA
ATOM      9  O   UNL     1       2.438   3.561  -0.460  0.00  0.00    -0.153 OA
BRANCH   7  16
ATOM     10  C   UNL     1      -1.134   3.998   1.681  0.00  0.00    +0.026 C 
ATOM     11  C   UNL     1       0.103   4.489   2.436  0.00  0.00    +0.077 C 
ATOM     12  C   UNL     1       0.314   3.634   3.694  0.00  0.00    +0.020 C 
ATOM     13  C   UNL     1       1.626   4.044   4.368  0.00  0.00    +0.003 C 
ATOM     14  C   UNL     1       2.794   3.789   3.412  0.00  0.00    +0.017 C 
ATOM     15  C   UNL     1       2.611   4.641   2.151  0.00  0.00    +0.110 C 
ATOM     16  N   UNL     1       1.288   4.358   1.577  0.00  0.00    -0.174 NA
ENDBRANCH   7  16
ENDBRANCH   1   7
BRANCH   4  17
ATOM     17  S   UNL     1      -0.587   9.021  -3.239  0.00  0.00    +0.056 S 
ATOM     18  O   UNL     1      -1.948   9.268  -2.912  0.00  0.00    -0.153 OA
ATOM     19  O   UNL     1       0.433   9.990  -3.038  0.00  0.00    -0.153 OA
BRANCH  17  20
ATOM     20  N   UNL     1      -0.551   8.621  -4.845  0.00  0.00    -0.204 NA
ATOM     21  H   UNL     1      -1.155   9.056  -5.467  0.00  0.00    +0.144 HD
ATOM     22  H   UNL     1       0.075   7.952  -5.165  0.00  0.00    +0.144 HD
ENDBRANCH  17  20
ENDBRANCH   4  17
TORSDOF 4
