REMARK  Name = ZINC12931933
REMARK  4 active torsions:
REMARK  status: ('A' for Active; 'I' for Inactive)
REMARK    1  A    between atoms: C_15  and  C_17
REMARK    2  A    between atoms: C_17  and  O_18
REMARK    3  A    between atoms: O_18  and  C_19
REMARK    4  A    between atoms: C_19  and  C_21
REMARK                            x       y       z     vdW  Elec       q    Type
REMARK                         _______ _______ _______ _____ _____    ______ ____
ROOT
ATOM      1  C   UNL     1       4.752   4.108   0.614  0.00  0.00    +0.328 C 
ENDROOT
BRANCH   1  16
ATOM      2  C   UNL     1      -0.186   1.381  -0.071  0.00  0.00    +0.002 A 
ATOM      3  C   UNL     1      -1.345   2.018   0.333  0.00  0.00    +0.001 A 
ATOM      4  C   UNL     1      -1.303   3.336   0.753  0.00  0.00    +0.017 A 
ATOM      5  C   UNL     1      -0.098   4.015   0.759  0.00  0.00    +0.035 A 
ATOM      6  C   UNL     1       1.075   3.379   0.346  0.00  0.00    +0.055 A 
ATOM      7  C   UNL     1       1.021   2.057  -0.068  0.00  0.00    +0.025 A 
ATOM      8  N   UNL     1       2.293   4.069   0.348  0.00  0.00    -0.235 N 
ATOM      9  C   UNL     1       2.376   5.422  -0.005  0.00  0.00    +0.055 A 
ATOM     10  C   UNL     1       3.462   5.892  -0.726  0.00  0.00    +0.025 A 
ATOM     11  C   UNL     1       3.537   7.229  -1.072  0.00  0.00    +0.002 A 
ATOM     12  C   UNL     1       2.534   8.105  -0.703  0.00  0.00    +0.001 A 
ATOM     13  C   UNL     1       1.444   7.648   0.019  0.00  0.00    +0.017 A 
ATOM     14  C   UNL     1       1.365   6.312   0.366  0.00  0.00    +0.035 A 
ATOM     15  S   UNL     1      -0.013   5.698   1.285  0.00  0.00    -0.086 S 
ATOM     16  C   UNL     1       3.417   3.414   0.700  0.00  0.00    +0.262 C 
ATOM     17  O   UNL     1       3.354   2.265   1.085  0.00  0.00    -0.271 OA
ENDBRANCH   1  16
BRANCH   1  18
ATOM     18  O   UNL     1       5.741   3.349   1.359  0.00  0.00    -0.455 OA
BRANCH  18  19
ATOM     19  C   UNL     1       6.991   3.836   1.383  0.00  0.00    +0.316 C 
ATOM     20  O   UNL     1       7.252   4.862   0.799  0.00  0.00    -0.250 OA
BRANCH  19  21
ATOM     21  C   UNL     1       8.071   3.103   2.136  0.00  0.00    +0.138 C 
ATOM     22  C   UNL     1       8.229   1.696   1.560  0.00  0.00    +0.115 C 
ATOM     23  C   UNL     1       8.881   1.770   0.204  0.00  0.00    +0.218 C 
ATOM     24  O   UNL     1       8.523   1.016  -0.676  0.00  0.00    -0.275 OA
ATOM     25  N   UNL     1       9.855   2.663  -0.040  0.00  0.00    -0.285 N 
ATOM     26  C   UNL     1      10.201   3.621   0.917  0.00  0.00    +0.040 A 
ATOM     27  C   UNL     1       9.372   3.853   2.005  0.00  0.00    -0.012 A 
ATOM     28  C   UNL     1       9.737   4.774   2.969  0.00  0.00    +0.009 A 
ATOM     29  C   UNL     1      10.923   5.472   2.845  0.00  0.00    +0.039 A 
ATOM     30  C   UNL     1      11.748   5.253   1.755  0.00  0.00    +0.125 A 
ATOM     31  C   UNL     1      11.389   4.329   0.790  0.00  0.00    +0.062 A 
ATOM     32  F   UNL     1      12.904   5.942   1.633  0.00  0.00    -0.205 F 
ATOM     33  H   UNL     1      10.323   2.642  -0.889  0.00  0.00    +0.155 HD
ENDBRANCH  19  21
ENDBRANCH  18  19
ENDBRANCH   1  18
TORSDOF 4
