REMARK  Name = ZINC49305844
REMARK  5 active torsions:
REMARK  status: ('A' for Active; 'I' for Inactive)
REMARK    1  A    between atoms: C_1  and  C_2
REMARK    2  A    between atoms: C_5  and  S_10
REMARK    3  A    between atoms: S_10  and  C_11
REMARK    4  A    between atoms: C_14  and  C_17
REMARK    5  A    between atoms: N_15  and  N_16
REMARK                            x       y       z     vdW  Elec       q    Type
REMARK                         _______ _______ _______ _____ _____    ______ ____
ROOT
ATOM      1  C   UNL     1      -2.056  -3.938   2.533  0.00  0.00    +0.209 A 
ATOM      2  N   UNL     1      -1.072  -4.692   2.098  0.00  0.00    -0.121 NA
ATOM      3  N   UNL     1      -1.085  -5.828   2.699  0.00  0.00    -0.126 NA
ATOM      4  C   UNL     1      -2.081  -5.870   3.557  0.00  0.00    +0.188 A 
ATOM      5  N   UNL     1      -2.729  -4.657   3.481  0.00  0.00    -0.223 N 
ENDROOT
BRANCH   4   6
ATOM      6  C   UNL     1      -2.431  -6.997   4.436  0.00  0.00    +0.058 A 
ATOM      7  C   UNL     1      -1.682  -8.096   4.773  0.00  0.00    +0.019 A 
ATOM      8  C   UNL     1      -2.227  -9.031   5.625  0.00  0.00    +0.008 A 
ATOM      9  C   UNL     1      -3.483  -8.838   6.104  0.00  0.00    +0.046 A 
ATOM     10  S   UNL     1      -3.938  -7.286   5.349  0.00  0.00    -0.093 S 
ENDBRANCH   4   6
BRANCH   5  11
ATOM     11  N   UNL     1      -3.819  -4.258   4.201  0.00  0.00    -0.295 N 
ATOM     12  H   UNL     1      -4.676  -4.500   3.725  0.00  0.00    +0.163 HD
ATOM     13  H   UNL     1      -3.801  -4.647   5.131  0.00  0.00    +0.163 HD
ENDBRANCH   5  11
BRANCH   1  14
ATOM     14  S   UNL     1      -2.432  -2.301   2.001  0.00  0.00    -0.070 S 
BRANCH  14  18
ATOM     15  C   UNL     1      -0.019   1.526   0.010  0.00  0.00    +0.052 C 
ATOM     16  C   UNL     1       0.002  -0.004   0.002  0.00  0.00    +0.175 C 
ATOM     17  C   UNL     1      -1.440  -0.575   0.077  0.00  0.00    +0.070 C 
ATOM     18  C   UNL     1      -1.172  -1.948   0.744  0.00  0.00    +0.166 C 
ATOM     19  C   UNL     1       0.192  -1.783   1.387  0.00  0.00    +0.321 C 
ATOM     20  O   UNL     1       0.805  -2.649   1.965  0.00  0.00    -0.250 OA
ATOM     21  O   UNL     1       0.613  -0.514   1.206  0.00  0.00    -0.461 OA
ENDBRANCH  14  18
ENDBRANCH   1  14
TORSDOF 4
