REMARK  Name = ZINC02153181
REMARK  9 active torsions:
REMARK  status: ('A' for Active; 'I' for Inactive)
REMARK    1  A    between atoms: C_1  and  C_2
REMARK    2  A    between atoms: C_2  and  C_3
REMARK    3  A    between atoms: C_2  and  C_4
REMARK    4  A    between atoms: C_4  and  N_5
REMARK    5  A    between atoms: C_25  and  C_27
REMARK    6  A    between atoms: C_30  and  O_35
REMARK    7  A    between atoms: C_32  and  O_33
REMARK    8  A    between atoms: O_33  and  C_34
REMARK    9  A    between atoms: O_35  and  C_36
REMARK                            x       y       z     vdW  Elec       q    Type
REMARK                         _______ _______ _______ _____ _____    ______ ____
ROOT
ATOM      1  N   UNL     1       1.221  -0.884   3.920  0.00  0.00    -0.291 N 
ATOM      2  C   UNL     1       1.245   0.391   4.618  0.00  0.00    +0.203 C 
ATOM      3  C   UNL     1      -0.052   0.683   5.299  0.00  0.00    +0.234 C 
ATOM      4  O   UNL     1      -0.139   1.714   5.933  0.00  0.00    -0.274 OA
ATOM      5  N   UNL     1      -1.123  -0.113   5.257  0.00  0.00    -0.276 N 
ATOM      6  C   UNL     1      -1.175  -1.339   4.462  0.00  0.00    +0.167 C 
ATOM      7  C   UNL     1       0.145  -1.664   3.841  0.00  0.00    +0.237 C 
ATOM      8  O   UNL     1       0.243  -2.707   3.229  0.00  0.00    -0.274 OA
ATOM      9  C   UNL     1      -2.234  -1.181   3.362  0.00  0.00    +0.069 C 
ATOM     10  C   UNL     1      -3.480  -0.589   3.969  0.00  0.00    -0.015 A 
ATOM     11  C   UNL     1      -4.825  -0.582   3.431  0.00  0.00    +0.003 A 
ATOM     12  C   UNL     1      -5.377  -1.090   2.251  0.00  0.00    +0.010 A 
ATOM     13  C   UNL     1      -6.724  -0.899   2.063  0.00  0.00    +0.001 A 
ATOM     14  C   UNL     1      -7.509  -0.235   2.992  0.00  0.00    +0.002 A 
ATOM     15  C   UNL     1      -6.989   0.279   4.167  0.00  0.00    +0.026 A 
ATOM     16  C   UNL     1      -5.625   0.100   4.385  0.00  0.00    +0.047 A 
ATOM     17  N   UNL     1      -4.805   0.470   5.412  0.00  0.00    -0.356 N 
ATOM     18  H   UNL     1      -5.086   0.955   6.203  0.00  0.00    +0.166 HD
ATOM     19  C   UNL     1      -3.526   0.052   5.157  0.00  0.00    +0.046 A 
ATOM     20  C   UNL     1      -2.319   0.251   6.046  0.00  0.00    +0.157 C 
ENDROOT
BRANCH  20  21
ATOM     21  C   UNL     1      -2.231   1.693   6.474  0.00  0.00    +0.021 A 
ATOM     22  C   UNL     1      -2.658   2.693   5.622  0.00  0.00    +0.013 A 
ATOM     23  C   UNL     1      -2.579   4.017   6.011  0.00  0.00    +0.046 A 
ATOM     24  C   UNL     1      -2.069   4.344   7.260  0.00  0.00    +0.124 A 
ATOM     25  C   UNL     1      -1.640   3.342   8.117  0.00  0.00    +0.091 A 
ATOM     26  C   UNL     1      -1.726   2.015   7.726  0.00  0.00    +0.129 A 
BRANCH  26  27
ATOM     27  O   UNL     1      -1.312   1.030   8.566  0.00  0.00    -0.495 OA
ATOM     28  C   UNL     1      -0.803   1.434   9.838  0.00  0.00    +0.277 C 
ENDBRANCH  26  27
BRANCH  24  29
ATOM     29  O   UNL     1      -1.991   5.646   7.643  0.00  0.00    -0.495 OA
ATOM     30  C   UNL     1      -2.450   6.625   6.710  0.00  0.00    +0.277 C 
ENDBRANCH  24  29
ENDBRANCH  20  21
BRANCH   1  31
ATOM     31  C   UNL     1       2.450  -1.333   3.262  0.00  0.00    +0.111 C 
BRANCH  31  33
ATOM     32  C   UNL     1       3.893  -1.055   1.242  0.00  0.00    +0.009 C 
ATOM     33  C   UNL     1       2.547  -0.697   1.874  0.00  0.00    +0.000 C 
ATOM     34  C   UNL     1       1.413  -1.223   0.991  0.00  0.00    +0.009 C 
ENDBRANCH  31  33
ENDBRANCH   1  31
TORSDOF 5
