REMARK  Name = ZINC36660441
REMARK  10 active torsions:
REMARK  status: ('A' for Active; 'I' for Inactive)
REMARK    1  A    between atoms: C_1  and  C_2
REMARK    2  A    between atoms: C_2  and  N_3
REMARK    3  A    between atoms: C_9  and  N_16
REMARK    4  A    between atoms: C_10  and  C_11
REMARK    5  A    between atoms: C_11  and  O_13
REMARK    6  A    between atoms: O_13  and  C_14
REMARK    7  A    between atoms: C_14  and  C_15
REMARK    8  A    between atoms: C_17  and  C_19
REMARK    9  A    between atoms: N_24  and  S_25
REMARK   10  A    between atoms: S_25  and  C_28
REMARK                            x       y       z     vdW  Elec       q    Type
REMARK                         _______ _______ _______ _____ _____    ______ ____
ROOT
ATOM      1  N   UNL     1       1.639  -1.947   7.268  0.00  0.00    -0.278 N 
ATOM      2  C   UNL     1       1.067  -1.198   8.232  0.00  0.00    +0.236 C 
ATOM      3  O   UNL     1       0.317  -0.293   7.932  0.00  0.00    -0.274 OA
ATOM      4  H   UNL     1       2.239  -2.670   7.507  0.00  0.00    +0.155 HD
ENDROOT
BRANCH   1  11
ATOM      5  N   UNL     1       0.713  -0.491   1.192  0.00  0.00    +0.383 N 
ATOM      6  C   UNL     1       0.841  -1.952   1.122  0.00  0.00    -0.074 C 
ATOM      7  C   UNL     1       1.837  -2.447   2.176  0.00  0.00    +0.018 C 
ATOM      8  C   UNL     1       1.421  -1.867   3.520  0.00  0.00    -0.025 A 
ATOM      9  C   UNL     1       0.569  -0.818   3.574  0.00  0.00    -0.021 A 
ATOM     10  S   UNL     1       0.370  -0.490   5.299  0.00  0.00    -0.079 S 
ATOM     11  C   UNL     1       1.369  -1.683   5.934  0.00  0.00    +0.086 A 
ATOM     12  C   UNL     1       1.862  -2.343   4.817  0.00  0.00    +0.091 A 
ATOM     13  C   UNL     1      -0.043  -0.117   2.402  0.00  0.00    -0.035 C 
ATOM     14  H   UNL     1       1.631  -0.075   1.228  0.00  0.00    -0.081 HD
BRANCH   5  16
ATOM     15  C   UNL     1      -0.019   1.526   0.010  0.00  0.00    -0.017 C 
ATOM     16  C   UNL     1       0.002  -0.004   0.002  0.00  0.00    -0.082 C 
ENDBRANCH   5  16
BRANCH  12  17
ATOM     17  C   UNL     1       2.787  -3.471   4.942  0.00  0.00    +0.342 C 
ATOM     18  O   UNL     1       3.987  -3.275   4.961  0.00  0.00    -0.245 OA
BRANCH  17  19
ATOM     19  O   UNL     1       2.308  -4.729   5.037  0.00  0.00    -0.461 OA
BRANCH  19  20
ATOM     20  C   UNL     1       3.268  -5.781   5.156  0.00  0.00    +0.229 C 
ATOM     21  C   UNL     1       2.542  -7.125   5.251  0.00  0.00    +0.048 C 
ENDBRANCH  19  20
ENDBRANCH  17  19
ENDBRANCH  12  17
ENDBRANCH   1  11
BRANCH   2  22
ATOM     22  C   UNL     1       1.361  -1.485   9.682  0.00  0.00    +0.166 C 
ATOM     23  C   UNL     1       2.867  -1.294   9.960  0.00  0.00    +0.031 C 
ATOM     24  C   UNL     1       2.934   0.144  10.539  0.00  0.00    +0.019 C 
ATOM     25  C   UNL     1       1.613   0.216  11.346  0.00  0.00    +0.110 C 
ATOM     26  N   UNL     1       0.632  -0.536  10.536  0.00  0.00    -0.165 NA
BRANCH  26  27
ATOM     27  S   UNL     1      -1.012  -0.344  10.581  0.00  0.00    +0.062 S 
ATOM     28  O   UNL     1      -1.254   0.971  11.064  0.00  0.00    -0.153 OA
ATOM     29  O   UNL     1      -1.508  -0.799   9.329  0.00  0.00    -0.153 OA
BRANCH  27  30
ATOM     30  C   UNL     1      -1.633  -1.451  11.802  0.00  0.00    +0.106 A 
ATOM     31  C   UNL     1      -1.994  -2.738  11.448  0.00  0.00    +0.030 A 
ATOM     32  C   UNL     1      -2.481  -3.608  12.406  0.00  0.00    +0.022 A 
ATOM     33  C   UNL     1      -2.609  -3.190  13.719  0.00  0.00    +0.041 A 
ATOM     34  C   UNL     1      -2.248  -1.902  14.072  0.00  0.00    +0.022 A 
ATOM     35  C   UNL     1      -1.755  -1.035  13.115  0.00  0.00    +0.030 A 
ATOM     36 CL   UNL     1      -3.221  -4.281  14.922  0.00  0.00    -0.084 Cl
ENDBRANCH  27  30
ENDBRANCH  26  27
ENDBRANCH   2  22
TORSDOF 8
