REMARK  Name = ZINC63572371
REMARK  2 active torsions:
REMARK  status: ('A' for Active; 'I' for Inactive)
REMARK    1  A    between atoms: C_5  and  N_7
REMARK    2  A    between atoms: C_23  and  C_25
REMARK                            x       y       z     vdW  Elec       q    Type
REMARK                         _______ _______ _______ _____ _____    ______ ____
ROOT
ATOM      1  N   UNL     1       0.951  -2.588  -1.788  0.00  0.00    -0.268 N 
ATOM      2  C   UNL     1      -0.081  -3.082  -1.075  0.00  0.00    +0.307 C 
ATOM      3  O   UNL     1      -1.105  -2.436  -0.961  0.00  0.00    -0.252 OA
ATOM      4  N   UNL     1       0.022  -4.291  -0.489  0.00  0.00    -0.276 N 
ATOM      5  C   UNL     1       1.300  -5.009  -0.528  0.00  0.00    +0.114 C 
ATOM      6  C   UNL     1       1.763  -5.309   0.909  0.00  0.00    +0.052 C 
ATOM      7  C   UNL     1       0.560  -5.835   1.651  0.00  0.00    -0.035 C 
ATOM      8  C   UNL     1       0.388  -6.933   2.377  0.00  0.00    +0.001 A 
ATOM      9  C   UNL     1       1.329  -7.976   2.814  0.00  0.00    +0.030 A 
ATOM     10  C   UNL     1       0.800  -8.993   3.547  0.00  0.00    +0.042 A 
ATOM     11  C   UNL     1      -0.556  -9.074   3.884  0.00  0.00    +0.022 A 
ATOM     12  C   UNL     1      -1.490  -8.155   3.531  0.00  0.00    +0.027 A 
ATOM     13  C   UNL     1      -1.052  -7.035   2.765  0.00  0.00    +0.043 A 
ATOM     14  N   UNL     1      -1.717  -6.011   2.319  0.00  0.00    -0.375 N 
ATOM     15  C   UNL     1      -0.779  -5.108   1.651  0.00  0.00    +0.131 C 
ATOM     16  C   UNL     1      -1.147  -4.874   0.187  0.00  0.00    +0.134 C 
ATOM     17 CL   UNL     1       1.861 -10.254   4.092  0.00  0.00    -0.084 Cl
ATOM     18  H   UNL     1       1.740  -3.131  -1.939  0.00  0.00    +0.156 HD
ATOM     19  H   UNL     1      -2.672  -5.869   2.413  0.00  0.00    +0.160 HD
ENDROOT
BRANCH   1  24
ATOM     20  C   UNL     1      -0.409   0.543  -3.157  0.00  0.00    +0.002 A 
ATOM     21  C   UNL     1       0.751   1.273  -3.344  0.00  0.00    +0.002 A 
ATOM     22  C   UNL     1       1.977   0.725  -3.015  0.00  0.00    +0.022 A 
ATOM     23  C   UNL     1       2.047  -0.555  -2.499  0.00  0.00    +0.062 A 
ATOM     24  C   UNL     1       0.883  -1.291  -2.310  0.00  0.00    +0.053 A 
ATOM     25  C   UNL     1      -0.346  -0.737  -2.641  0.00  0.00    +0.025 A 
ATOM     26 CL   UNL     1       3.587  -1.243  -2.088  0.00  0.00    -0.082 Cl
ENDBRANCH   1  24
BRANCH  16  27
ATOM     27  C   UNL     1      -2.313  -3.923   0.103  0.00  0.00    -0.025 A 
ATOM     28  C   UNL     1      -2.332  -2.782   0.883  0.00  0.00    +0.008 A 
ATOM     29  C   UNL     1      -3.400  -1.909   0.806  0.00  0.00    +0.038 A 
ATOM     30  C   UNL     1      -4.452  -2.177  -0.054  0.00  0.00    +0.123 A 
ATOM     31  C   UNL     1      -4.432  -3.320  -0.835  0.00  0.00    +0.038 A 
ATOM     32  C   UNL     1      -3.360  -4.189  -0.760  0.00  0.00    +0.008 A 
ATOM     33  F   UNL     1      -5.497  -1.324  -0.130  0.00  0.00    -0.205 F 
ENDBRANCH  16  27
TORSDOF 2
