REMARK  Name = ZINC13064878
REMARK  12 active torsions:
REMARK  status: ('A' for Active; 'I' for Inactive)
REMARK    1  A    between atoms: C_1  and  C_2
REMARK    2  A    between atoms: C_2  and  C_3
REMARK    3  A    between atoms: C_3  and  C_5
REMARK    4  A    between atoms: C_3  and  N_66
REMARK    5  A    between atoms: N_9  and  C_10
REMARK    6  A    between atoms: C_10  and  C_11
REMARK    7  A    between atoms: C_17  and  C_18
REMARK    8  A    between atoms: C_17  and  N_66
REMARK    9  A    between atoms: C_23  and  C_24
REMARK   10  A    between atoms: C_23  and  N_66
REMARK   11  A    between atoms: C_27  and  C_37
REMARK   12  A    between atoms: C_29  and  C_36
REMARK                            x       y       z     vdW  Elec       q    Type
REMARK                         _______ _______ _______ _____ _____    ______ ____
ROOT
ATOM      1  N   UNL     1       0.751   6.886  -2.619  0.00  0.00    +0.392 N 
ATOM      2  H   UNL     1       0.197   6.058  -2.867  0.00  0.00    -0.080 HD
ENDROOT
BRANCH   1   3
ATOM      3  C   UNL     1       1.469   6.622  -1.354  0.00  0.00    +0.003 C 
BRANCH   3   4
ATOM      4  C   UNL     1       1.907   7.915  -0.717  0.00  0.00    +0.138 A 
ATOM      5  N   UNL     1       1.141   8.931  -0.401  0.00  0.00    -0.115 NA
ATOM      6  N   UNL     1       1.886   9.844   0.121  0.00  0.00    -0.023 NA
ATOM      7  N   UNL     1       3.106   9.435   0.150  0.00  0.00    -0.044 NA
ATOM      8  N   UNL     1       3.161   8.252  -0.363  0.00  0.00    -0.226 N 
BRANCH   8   9
ATOM      9  C   UNL     1       4.362   7.429  -0.523  0.00  0.00    +0.182 C 
BRANCH   9  10
ATOM     10  C   UNL     1       5.287   8.078  -1.520  0.00  0.00    -0.026 A 
ATOM     11  C   UNL     1       6.254   8.967  -1.089  0.00  0.00    +0.005 A 
ATOM     12  C   UNL     1       7.102   9.563  -2.003  0.00  0.00    +0.000 A 
ATOM     13  C   UNL     1       6.980   9.274  -3.349  0.00  0.00    +0.000 A 
ATOM     14  C   UNL     1       6.017   8.382  -3.780  0.00  0.00    +0.000 A 
ATOM     15  C   UNL     1       5.168   7.785  -2.866  0.00  0.00    +0.005 A 
ENDBRANCH   9  10
ENDBRANCH   8   9
ENDBRANCH   3   4
BRANCH   3  17
ATOM     16  C   UNL     1       0.224   4.490  -0.970  0.00  0.00    +0.002 C 
ATOM     17  C   UNL     1       0.529   5.878  -0.403  0.00  0.00    -0.011 C 
ENDBRANCH   3  17
ENDBRANCH   1   3
BRANCH   1  18
ATOM     18  C   UNL     1       1.719   7.159  -3.702  0.00  0.00    -0.034 C 
BRANCH  18  19
ATOM     19  C   UNL     1       2.266   5.846  -4.201  0.00  0.00    -0.027 A 
ATOM     20  C   UNL     1       1.856   5.094  -5.251  0.00  0.00    +0.009 A 
ATOM     21  C   UNL     1       2.516   3.911  -5.527  0.00  0.00    +0.008 A 
ATOM     22  C   UNL     1       3.553   3.538  -4.738  0.00  0.00    +0.045 A 
ATOM     23  S   UNL     1       3.628   4.883  -3.566  0.00  0.00    -0.103 S 
ENDBRANCH  18  19
ENDBRANCH   1  18
BRANCH   1  24
ATOM     24  C   UNL     1      -0.159   8.039  -2.452  0.00  0.00    -0.036 C 
BRANCH  24  25
ATOM     25  C   UNL     1      -1.132   8.058  -3.602  0.00  0.00    +0.001 A 
ATOM     26  C   UNL     1      -2.345   7.466  -3.471  0.00  0.00    +0.017 A 
ATOM     27  C   UNL     1      -3.267   7.502  -4.607  0.00  0.00    +0.002 A 
ATOM     28  C   UNL     1      -4.532   6.908  -4.531  0.00  0.00    -0.041 A 
ATOM     29  C   UNL     1      -5.370   6.960  -5.609  0.00  0.00    +0.007 A 
ATOM     30  C   UNL     1      -4.977   7.596  -6.779  0.00  0.00    -0.048 A 
ATOM     31  C   UNL     1      -3.736   8.187  -6.876  0.00  0.00    +0.029 A 
ATOM     32  C   UNL     1      -2.866   8.148  -5.791  0.00  0.00    +0.050 A 
ATOM     33  N   UNL     1      -1.619   8.732  -5.860  0.00  0.00    -0.322 N 
ATOM     34  H   UNL     1      -1.344   9.176  -6.677  0.00  0.00    +0.169 HD
ATOM     35  C   UNL     1      -0.781   8.698  -4.810  0.00  0.00    +0.251 A 
ATOM     36  O   UNL     1       0.312   9.229  -4.905  0.00  0.00    -0.268 OA
ATOM     37  C   UNL     1      -5.918   7.640  -7.955  0.00  0.00    +0.044 C 
ATOM     38  C   UNL     1      -4.968   6.215  -3.266  0.00  0.00    +0.044 C 
ENDBRANCH  24  25
ENDBRANCH   1  24
TORSDOF 9
