REMARK  Name = ZINC34788218
REMARK  5 active torsions:
REMARK  status: ('A' for Active; 'I' for Inactive)
REMARK    1  A    between atoms: C_3  and  C_8
REMARK    2  A    between atoms: N_17  and  C_18
REMARK    3  A    between atoms: C_18  and  C_19
REMARK    4  A    between atoms: C_27  and  C_29
REMARK    5  A    between atoms: C_32  and  N_35
REMARK                            x       y       z     vdW  Elec       q    Type
REMARK                         _______ _______ _______ _____ _____    ______ ____
ROOT
ATOM      1  C   UNL     1       5.970   1.205   3.765  0.00  0.00    +0.230 C 
ATOM      2  O   UNL     1       6.908   0.636   3.248  0.00  0.00    -0.274 OA
ATOM      3  N   UNL     1       5.505   0.790   4.960  0.00  0.00    -0.297 N 
ATOM      4  C   UNL     1       4.365   1.466   5.595  0.00  0.00    +0.127 C 
ATOM      5  C   UNL     1       3.282   0.422   5.897  0.00  0.00    +0.127 C 
ATOM      6  N   UNL     1       3.906  -0.716   6.587  0.00  0.00    -0.295 N 
ATOM      7  C   UNL     1       5.046  -1.392   5.952  0.00  0.00    +0.127 C 
ATOM      8  C   UNL     1       6.125  -0.351   5.648  0.00  0.00    +0.127 C 
ATOM      9  C   UNL     1       3.441  -1.131   7.782  0.00  0.00    +0.247 C 
ATOM     10  O   UNL     1       3.920  -2.115   8.312  0.00  0.00    -0.270 OA
ENDROOT
BRANCH   9  11
ATOM     11  C   UNL     1       2.349  -0.391   8.449  0.00  0.00    +0.037 A 
ATOM     12  C   UNL     1       1.175  -0.097   7.754  0.00  0.00    +0.015 A 
ATOM     13  C   UNL     1       0.160   0.594   8.382  0.00  0.00    +0.033 A 
ATOM     14  C   UNL     1       0.304   0.997   9.698  0.00  0.00    +0.126 A 
ATOM     15  C   UNL     1       1.466   0.709  10.393  0.00  0.00    +0.033 A 
ATOM     16  C   UNL     1       2.486   0.013   9.778  0.00  0.00    +0.015 A 
BRANCH  14  17
ATOM     17  N   UNL     1      -0.789   1.738  10.366  0.00  0.00    +0.056 N 
ATOM     18  O   UNL     1      -1.806   1.991   9.761  0.00  0.00    -0.126 OA
ATOM     19  O   UNL     1      -0.666   2.091  11.515  0.00  0.00    -0.126 OA
ENDBRANCH  14  17
ENDBRANCH   9  11
BRANCH   1  20
ATOM     20  C   UNL     1       5.324   2.377   3.071  0.00  0.00    +0.181 C 
BRANCH  20  29
ATOM     21  C   UNL     1       5.266   3.603   0.985  0.00  0.00    +0.118 C 
ATOM     22  C   UNL     1       6.032   3.845  -0.312  0.00  0.00    -0.016 A 
ATOM     23  C   UNL     1       5.466   4.404  -1.456  0.00  0.00    +0.013 A 
ATOM     24  C   UNL     1       6.220   4.583  -2.566  0.00  0.00    +0.046 A 
ATOM     25  S   UNL     1       7.808   3.954  -2.039  0.00  0.00    -0.101 S 
ATOM     26  C   UNL     1       7.350   3.505  -0.389  0.00  0.00    -0.004 A 
ATOM     27  C   UNL     1       8.179   2.897   0.695  0.00  0.00    +0.058 C 
ATOM     28  C   UNL     1       7.402   3.042   2.015  0.00  0.00    +0.091 C 
ATOM     29  N   UNL     1       6.008   2.629   1.796  0.00  0.00    -0.283 NA
BRANCH  21  32
ATOM     30  C   UNL     1       1.542   3.401   0.399  0.00  0.00    +0.003 A 
ATOM     31  C   UNL     1       2.799   3.899   0.689  0.00  0.00    +0.006 A 
ATOM     32  C   UNL     1       3.897   3.059   0.669  0.00  0.00    -0.023 A 
ATOM     33  C   UNL     1       3.739   1.721   0.359  0.00  0.00    +0.043 A 
ATOM     34  C   UNL     1       2.481   1.222   0.069  0.00  0.00    +0.124 A 
ATOM     35  C   UNL     1       1.381   2.064   0.090  0.00  0.00    +0.038 A 
ATOM     36  F   UNL     1       2.325  -0.085  -0.234  0.00  0.00    -0.205 F 
ENDBRANCH  21  32
ENDBRANCH  20  29
ENDBRANCH   1  20
TORSDOF 5
