REMARK  Name = ZINC39634770
REMARK  12 active torsions:
REMARK  status: ('A' for Active; 'I' for Inactive)
REMARK    1  A    between atoms: C_1  and  C_2
REMARK    2  A    between atoms: C_2  and  C_3
REMARK    3  A    between atoms: C_2  and  N_4
REMARK    4  A    between atoms: N_4  and  C_5
REMARK    5  A    between atoms: N_4  and  C_30
REMARK    6  A    between atoms: C_5  and  C_6
REMARK    7  A    between atoms: C_6  and  N_7
REMARK    8  A    between atoms: C_8  and  C_10
REMARK    9  A    between atoms: C_21  and  C_23
REMARK   10  A    between atoms: C_23  and  C_29
REMARK   11  A    between atoms: C_30  and  C_31
REMARK   12  A    between atoms: C_30  and  C_32
REMARK                            x       y       z     vdW  Elec       q    Type
REMARK                         _______ _______ _______ _____ _____    ______ ____
ROOT
ATOM      1  C   UNL     1       5.677   2.991  -1.649  0.00  0.00    +0.100 C 
ATOM      2  C   UNL     1       5.975   2.444  -3.063  0.00  0.00    +0.121 C 
ATOM      3  N   UNL     1       5.921   3.635  -3.944  0.00  0.00    -0.300 N 
ATOM      4  C   UNL     1       6.563   4.710  -3.151  0.00  0.00    +0.115 C 
ATOM      5  C   UNL     1       6.068   4.477  -1.710  0.00  0.00    -0.004 C 
ATOM      6  C   UNL     1       7.185   4.771  -0.714  0.00  0.00    -0.010 C 
ATOM      7  C   UNL     1       7.516   6.266  -0.751  0.00  0.00    -0.082 C 
ATOM      8  N   UNL     1       6.317   7.043  -0.415  0.00  0.00    +0.379 N 
ATOM      9  C   UNL     1       5.279   6.826  -1.431  0.00  0.00    -0.082 C 
ATOM     10  C   UNL     1       4.854   5.355  -1.422  0.00  0.00    -0.010 C 
ATOM     11  C   UNL     1       5.404   3.720  -5.186  0.00  0.00    +0.222 C 
ATOM     12  O   UNL     1       4.824   2.770  -5.668  0.00  0.00    -0.275 OA
ATOM     13  H   UNL     1       5.970   6.751   0.486  0.00  0.00    -0.086 HD
ATOM     14  H   UNL     1       6.552   8.024  -0.381  0.00  0.00    -0.086 HD
ENDROOT
BRANCH  11  15
ATOM     15  C   UNL     1       5.547   4.996  -5.975  0.00  0.00    +0.044 C 
ATOM     16  C   UNL     1       4.720   6.100  -5.314  0.00  0.00    +0.016 C 
ATOM     17  C   UNL     1       3.248   5.684  -5.280  0.00  0.00    +0.001 C 
ATOM     18  C   UNL     1       2.748   5.458  -6.708  0.00  0.00    +0.000 C 
ATOM     19  C   UNL     1       3.575   4.354  -7.370  0.00  0.00    +0.001 C 
ATOM     20  C   UNL     1       5.047   4.771  -7.404  0.00  0.00    +0.016 C 
ATOM     21  C   UNL     1       7.019   5.412  -6.010  0.00  0.00    +0.021 C 
ENDBRANCH  11  15
BRANCH   1  23
ATOM     22  N   UNL     1       3.799   2.839  -0.046  0.00  0.00    -0.317 N 
ATOM     23  C   UNL     1       4.211   2.847  -1.329  0.00  0.00    +0.218 C 
ATOM     24  O   UNL     1       3.402   2.738  -2.226  0.00  0.00    -0.275 OA
ATOM     25  H   UNL     1       4.446   2.927   0.672  0.00  0.00    +0.149 HD
BRANCH  22  26
ATOM     26  C   UNL     1       2.375   2.699   0.266  0.00  0.00    +0.085 C 
BRANCH  26  27
ATOM     27  C   UNL     1       2.180   2.721   1.783  0.00  0.00    -0.059 C 
BRANCH  27  28
ATOM     28  N   UNL     1       0.780   2.407   2.101  0.00  0.00    +0.384 N 
ATOM     29  H   UNL     1       0.518   1.544   1.649  0.00  0.00    -0.081 HD
BRANCH  28  31
ATOM     30  C   UNL     1       0.714   4.796   1.569  0.00  0.00    -0.014 C 
ATOM     31  C   UNL     1      -0.086   3.493   1.624  0.00  0.00    -0.074 C 
ATOM     32  C   UNL     1      -0.606   3.154   0.226  0.00  0.00    -0.014 C 
ENDBRANCH  28  31
BRANCH  28  33
ATOM     33  C   UNL     1       0.629   2.263   3.555  0.00  0.00    -0.074 C 
ATOM     34  C   UNL     1      -0.795   1.805   3.877  0.00  0.00    -0.014 C 
ATOM     35  C   UNL     1       1.627   1.224   4.071  0.00  0.00    -0.014 C 
ENDBRANCH  28  33
ENDBRANCH  27  28
ENDBRANCH  26  27
ENDBRANCH  22  26
ENDBRANCH   1  23
TORSDOF 7
