REMARK  Name = ZINC33657858
REMARK  6 active torsions:
REMARK  status: ('A' for Active; 'I' for Inactive)
REMARK    1  A    between atoms: C_6  and  S_11
REMARK    2  A    between atoms: S_11  and  C_14
REMARK    3  A    between atoms: C_14  and  C_15
REMARK    4  A    between atoms: N_17  and  C_18
REMARK    5  A    between atoms: C_23  and  N_24
REMARK    6  A    between atoms: N_27  and  C_30
REMARK                            x       y       z     vdW  Elec       q    Type
REMARK                         _______ _______ _______ _____ _____    ______ ____
ROOT
ATOM      1  C   UNL     1       8.671  -4.811   3.149  0.00  0.00    +0.055 A 
ATOM      2  C   UNL     1       9.398  -5.196   2.033  0.00  0.00    +0.025 A 
ATOM      3  C   UNL     1      10.557  -5.934   2.183  0.00  0.00    +0.002 A 
ATOM      4  C   UNL     1      10.996  -6.290   3.446  0.00  0.00    +0.002 A 
ATOM      5  C   UNL     1      10.278  -5.910   4.564  0.00  0.00    +0.025 A 
ATOM      6  C   UNL     1       9.117  -5.164   4.423  0.00  0.00    +0.051 A 
ENDROOT
BRANCH   6   7
ATOM      7  N   UNL     1       8.392  -4.773   5.553  0.00  0.00    -0.332 N 
ATOM      8  C   UNL     1       7.334  -5.632   6.107  0.00  0.00    +0.086 C 
ATOM      9  C   UNL     1       7.578  -5.795   7.611  0.00  0.00    -0.059 C 
ATOM     10  N   UNL     1       7.673  -4.470   8.237  0.00  0.00    +0.384 N 
ATOM     11  C   UNL     1       8.848  -3.757   7.721  0.00  0.00    -0.059 C 
ATOM     12  C   UNL     1       8.671  -3.495   6.226  0.00  0.00    +0.086 C 
ATOM     13  H   UNL     1       6.841  -3.940   8.028  0.00  0.00    -0.081 HD
BRANCH  10  14
ATOM     14  C   UNL     1       7.797  -4.626   9.693  0.00  0.00    -0.068 C 
ATOM     15  C   UNL     1       6.568  -5.359  10.233  0.00  0.00    -0.015 C 
ATOM     16  C   UNL     1       6.697  -5.522  11.749  0.00  0.00    -0.002 C 
ATOM     17  C   UNL     1       6.796  -4.142  12.403  0.00  0.00    -0.000 C 
ATOM     18  C   UNL     1       8.026  -3.409  11.863  0.00  0.00    -0.002 C 
ATOM     19  C   UNL     1       7.897  -3.246  10.347  0.00  0.00    -0.015 C 
ENDBRANCH  10  14
ENDBRANCH   6   7
BRANCH   1  22
ATOM     20  C   UNL     1       6.692  -4.276   1.938  0.00  0.00    +0.239 C 
ATOM     21  O   UNL     1       7.026  -5.056   1.072  0.00  0.00    -0.274 OA
ATOM     22  N   UNL     1       7.496  -4.063   2.999  0.00  0.00    -0.283 N 
ATOM     23  H   UNL     1       7.260  -3.392   3.659  0.00  0.00    +0.155 HD
BRANCH  20  24
ATOM     24  C   UNL     1       5.380  -3.544   1.828  0.00  0.00    +0.267 C 
BRANCH  24  25
ATOM     25  S   UNL     1       4.536  -4.042   0.301  0.00  0.00    +0.005 S 
ATOM     26  O   UNL     1       4.131  -5.402   0.387  0.00  0.00    -0.169 OA
ATOM     27  O   UNL     1       5.254  -3.570  -0.831  0.00  0.00    -0.169 OA
BRANCH  25  33
ATOM     28  C   UNL     1      -0.588   0.248  -0.288  0.00  0.00    +0.001 A 
ATOM     29  C   UNL     1       0.549   0.790  -0.883  0.00  0.00    +0.001 A 
ATOM     30  C   UNL     1       1.727   0.108  -0.895  0.00  0.00    +0.008 A 
ATOM     31  C   UNL     1       1.800  -1.163  -0.300  0.00  0.00    -0.016 A 
ATOM     32  C   UNL     1       2.998  -1.897  -0.292  0.00  0.00    +0.035 A 
ATOM     33  C   UNL     1       3.032  -3.125   0.294  0.00  0.00    +0.089 A 
ATOM     34  C   UNL     1       1.894  -3.667   0.889  0.00  0.00    +0.027 A 
ATOM     35  C   UNL     1       0.717  -2.985   0.901  0.00  0.00    +0.010 A 
ATOM     36  C   UNL     1       0.643  -1.714   0.306  0.00  0.00    -0.018 A 
ATOM     37  C   UNL     1      -0.555  -0.980   0.298  0.00  0.00    +0.008 A 
ENDBRANCH  25  33
ENDBRANCH  24  25
ENDBRANCH  20  24
ENDBRANCH   1  22
TORSDOF 6
