REMARK  Name = ZINC35175128
REMARK  10 active torsions:
REMARK  status: ('A' for Active; 'I' for Inactive)
REMARK    1  A    between atoms: C_1  and  C_2
REMARK    2  A    between atoms: C_9  and  C_18
REMARK    3  A    between atoms: C_10  and  N_11
REMARK    4  A    between atoms: N_11  and  C_12
REMARK    5  A    between atoms: C_22  and  O_24
REMARK    6  A    between atoms: O_24  and  S_25
REMARK    7  A    between atoms: S_25  and  C_28
REMARK    8  A    between atoms: C_29  and  C_36
REMARK    9  A    between atoms: C_31  and  C_35
REMARK   10  A    between atoms: C_33  and  C_34
REMARK                            x       y       z     vdW  Elec       q    Type
REMARK                         _______ _______ _______ _____ _____    ______ ____
ROOT
ATOM      1  C   UNL     1      -1.735   2.354   1.550  0.00  0.00    +0.044 C 
ATOM      2  C   UNL     1      -1.655   0.868   1.314  0.00  0.00    -0.046 A 
ATOM      3  C   UNL     1      -1.984   0.335   0.055  0.00  0.00    +0.021 A 
ATOM      4  C   UNL     1      -1.915  -0.994  -0.161  0.00  0.00    +0.094 A 
ATOM      5  N   UNL     1      -1.524  -1.843   0.839  0.00  0.00    -0.289 N 
ATOM      6  C   UNL     1      -1.196  -1.351   2.081  0.00  0.00    +0.117 A 
ATOM      7  C   UNL     1      -1.260   0.039   2.317  0.00  0.00    +0.048 A 
ATOM      8  N   UNL     1      -0.856  -2.365   2.860  0.00  0.00    -0.338 N 
ATOM      9  C   UNL     1      -0.952  -3.512   2.163  0.00  0.00    +0.087 A 
ATOM     10  C   UNL     1      -1.372  -3.201   0.886  0.00  0.00    +0.129 A 
ATOM     11  H   UNL     1      -0.581  -2.293   3.788  0.00  0.00    +0.167 HD
ENDROOT
BRANCH   9  12
ATOM     12  C   UNL     1      -0.658  -4.870   2.677  0.00  0.00    +0.005 A 
ATOM     13  C   UNL     1       0.101  -5.758   1.913  0.00  0.00    +0.010 A 
ATOM     14  C   UNL     1       0.373  -7.022   2.395  0.00  0.00    +0.004 A 
ATOM     15  C   UNL     1      -0.103  -7.413   3.632  0.00  0.00    +0.048 A 
ATOM     16  C   UNL     1      -0.859  -6.536   4.398  0.00  0.00    +0.157 A 
ATOM     17  C   UNL     1      -1.133  -5.263   3.926  0.00  0.00    +0.058 A 
BRANCH  16  18
ATOM     18  O   UNL     1      -1.327  -6.925   5.614  0.00  0.00    -0.342 OA
BRANCH  18  19
ATOM     19  S   UNL     1      -0.379  -6.625   6.766  0.00  0.00    +0.151 S 
ATOM     20  O   UNL     1      -0.915  -7.272   7.912  0.00  0.00    -0.131 OA
ATOM     21  O   UNL     1       0.935  -6.884   6.290  0.00  0.00    -0.131 OA
BRANCH  19  22
ATOM     22  C   UNL     1      -0.469  -4.893   7.078  0.00  0.00    +0.134 A 
ATOM     23  C   UNL     1      -1.480  -4.386   7.873  0.00  0.00    -0.022 A 
ATOM     24  C   UNL     1      -1.551  -3.027   8.117  0.00  0.00    +0.008 A 
ATOM     25  C   UNL     1      -0.611  -2.176   7.567  0.00  0.00    -0.050 A 
ATOM     26  C   UNL     1       0.400  -2.683   6.773  0.00  0.00    +0.008 A 
ATOM     27  C   UNL     1       0.474  -4.042   6.532  0.00  0.00    -0.022 A 
ATOM     28  C   UNL     1       1.579  -4.596   5.670  0.00  0.00    +0.046 C 
ATOM     29  C   UNL     1      -0.689  -0.694   7.832  0.00  0.00    +0.044 C 
ATOM     30  C   UNL     1      -2.505  -5.314   8.473  0.00  0.00    +0.046 C 
ENDBRANCH  19  22
ENDBRANCH  18  19
ENDBRANCH  16  18
ENDBRANCH   9  12
BRANCH  10  31
ATOM     31  N   UNL     1      -1.598  -4.101  -0.156  0.00  0.00    -0.326 N 
ATOM     32  H   UNL     1      -1.526  -5.055   0.002  0.00  0.00    +0.148 HD
BRANCH  31  33
ATOM     33  C   UNL     1      -1.944  -3.603  -1.490  0.00  0.00    +0.072 C 
ATOM     34  C   UNL     1      -3.391  -3.107  -1.490  0.00  0.00    +0.022 C 
ATOM     35  C   UNL     1      -3.752  -2.587  -2.883  0.00  0.00    +0.002 C 
ATOM     36  C   UNL     1      -3.600  -3.717  -3.904  0.00  0.00    +0.000 C 
ATOM     37  C   UNL     1      -2.153  -4.214  -3.904  0.00  0.00    +0.002 C 
ATOM     38  C   UNL     1      -1.792  -4.733  -2.510  0.00  0.00    +0.022 C 
ENDBRANCH  31  33
ENDBRANCH  10  31
TORSDOF 6
