REMARK  Name = ZINC18198150
REMARK  8 active torsions:
REMARK  status: ('A' for Active; 'I' for Inactive)
REMARK    1  A    between atoms: C_1  and  O_2
REMARK    2  A    between atoms: O_2  and  C_3
REMARK    3  A    between atoms: C_5  and  C_13
REMARK    4  A    between atoms: C_7  and  O_11
REMARK    5  A    between atoms: C_8  and  O_9
REMARK    6  A    between atoms: O_9  and  C_10
REMARK    7  A    between atoms: O_11  and  C_12
REMARK    8  A    between atoms: C_18  and  C_26
REMARK                            x       y       z     vdW  Elec       q    Type
REMARK                         _______ _______ _______ _____ _____    ______ ____
ROOT
ATOM      1  C   UNL     1       1.530   0.033   6.147  0.00  0.00    +0.032 C 
ATOM      2  C   UNL     1       2.229  -1.321   6.008  0.00  0.00    +0.060 C 
ATOM      3  C   UNL     1       2.783  -1.746   7.348  0.00  0.00    +0.020 C 
ATOM      4  C   UNL     1       2.177  -1.381   8.497  0.00  0.00    +0.041 C 
ATOM      5  C   UNL     1       2.711  -1.787   9.853  0.00  0.00    +0.177 C 
ATOM      6  N   UNL     1       3.703  -2.845   9.701  0.00  0.00    -0.221 N 
ATOM      7  C   UNL     1       4.266  -3.175   8.513  0.00  0.00    +0.218 A 
ATOM      8  N   UNL     1       5.111  -4.147   8.723  0.00  0.00    -0.201 NA
ATOM      9  C   UNL     1       5.111  -4.466  10.021  0.00  0.00    +0.247 A 
ATOM     10  N   UNL     1       4.262  -3.694  10.655  0.00  0.00    -0.156 NA
ATOM     11  N   UNL     1       3.918  -2.521   7.342  0.00  0.00    -0.287 N 
ATOM     12  C   UNL     1       1.012  -0.593   8.480  0.00  0.00    +0.164 C 
ATOM     13  O   UNL     1       0.475  -0.301   9.530  0.00  0.00    -0.292 OA
ATOM     14  C   UNL     1       0.415  -0.104   7.189  0.00  0.00    +0.088 C 
ATOM     15  H   UNL     1       4.459  -2.609   6.541  0.00  0.00    +0.155 HD
ENDROOT
BRANCH   5  16
ATOM     16  C   UNL     1       3.350  -0.595  10.517  0.00  0.00    +0.001 A 
ATOM     17  C   UNL     1       4.418   0.043   9.913  0.00  0.00    +0.007 A 
ATOM     18  C   UNL     1       5.003   1.137  10.522  0.00  0.00    +0.002 A 
ATOM     19  C   UNL     1       4.523   1.595  11.735  0.00  0.00    +0.021 A 
ATOM     20  C   UNL     1       3.456   0.957  12.341  0.00  0.00    +0.060 A 
ATOM     21  C   UNL     1       2.864  -0.135  11.728  0.00  0.00    +0.065 A 
ATOM     22 CL   UNL     1       1.519  -0.931  12.482  0.00  0.00    -0.082 Cl
ATOM     23 CL   UNL     1       2.852   1.530  13.864  0.00  0.00    -0.082 Cl
ENDBRANCH   5  16
BRANCH   1  26
ATOM     24  C   UNL     1      -0.560   0.006   2.998  0.00  0.00    +0.165 A 
ATOM     25  C   UNL     1      -0.010  -0.365   4.216  0.00  0.00    +0.053 A 
ATOM     26  C   UNL     1       0.939   0.438   4.821  0.00  0.00    -0.036 A 
ATOM     27  C   UNL     1       1.347   1.610   4.213  0.00  0.00    +0.053 A 
ATOM     28  C   UNL     1       0.806   1.986   2.993  0.00  0.00    +0.165 A 
ATOM     29  C   UNL     1      -0.148   1.182   2.381  0.00  0.00    +0.204 A 
BRANCH  24  31
ATOM     30  C   UNL     1      -1.873  -1.974   3.098  0.00  0.00    +0.277 C 
ATOM     31  O   UNL     1      -1.497  -0.781   2.406  0.00  0.00    -0.491 OA
ENDBRANCH  24  31
BRANCH  29  32
ATOM     32  O   UNL     1      -0.682   1.547   1.184  0.00  0.00    -0.488 OA
ATOM     33  C   UNL     1      -0.013   1.086   0.008  0.00  0.00    +0.277 C 
ENDBRANCH  29  32
BRANCH  28  34
ATOM     34  O   UNL     1       1.208   3.140   2.396  0.00  0.00    -0.491 OA
ATOM     35  C   UNL     1       2.192   3.917   3.083  0.00  0.00    +0.277 C 
ENDBRANCH  28  34
ENDBRANCH   1  26
TORSDOF 5
