REMARK  Name = ZINC23741996
REMARK  9 active torsions:
REMARK  status: ('A' for Active; 'I' for Inactive)
REMARK    1  A    between atoms: C_4  and  C_7
REMARK    2  A    between atoms: C_7  and  C_9
REMARK    3  A    between atoms: C_7  and  N_29
REMARK    4  A    between atoms: C_9  and  N_10
REMARK    5  A    between atoms: C_11  and  C_13
REMARK    6  A    between atoms: C_13  and  N_14
REMARK    7  A    between atoms: C_15  and  C_17
REMARK    8  A    between atoms: C_17  and  N_18
REMARK    9  A    between atoms: C_19  and  C_21
REMARK                            x       y       z     vdW  Elec       q    Type
REMARK                         _______ _______ _______ _____ _____    ______ ____
ROOT
ATOM      1  N   UNL     1       7.267   0.374  -0.082  0.00  0.00    -0.315 N 
ATOM      2  C   UNL     1       6.081   1.012  -0.017  0.00  0.00    +0.230 C 
ATOM      3  O   UNL     1       6.046   2.216   0.126  0.00  0.00    -0.274 OA
ATOM      4  H   UNL     1       7.298  -0.718  -0.211  0.00  0.00    +0.149 HD
ENDROOT
BRANCH   1   5
ATOM      5  C   UNL     1       8.514   1.136   0.021  0.00  0.00    +0.093 C 
BRANCH   5   6
ATOM      6  C   UNL     1       9.701   0.170   0.036  0.00  0.00    -0.020 C 
BRANCH   6  10
ATOM      7  C   UNL     1       9.942  -1.848  -3.721  0.00  0.00    +0.000 A 
ATOM      8  C   UNL     1       9.371  -2.480  -2.632  0.00  0.00    +0.000 A 
ATOM      9  C   UNL     1       9.292  -1.827  -1.417  0.00  0.00    +0.002 A 
ATOM     10  C   UNL     1       9.786  -0.542  -1.289  0.00  0.00    -0.059 A 
ATOM     11  C   UNL     1      10.353   0.092  -2.379  0.00  0.00    +0.002 A 
ATOM     12  C   UNL     1      10.435  -0.563  -3.594  0.00  0.00    +0.000 A 
ENDBRANCH   6  10
BRANCH   6  13
ATOM     13  N   UNL     1      10.941   0.923   0.269  0.00  0.00    +0.385 N 
ATOM     14  C   UNL     1      10.882   1.662   1.556  0.00  0.00    -0.078 C 
ATOM     15  C   UNL     1      12.373   1.931   1.879  0.00  0.00    -0.020 C 
ATOM     16  C   UNL     1      13.070   0.636   1.401  0.00  0.00    -0.020 C 
ATOM     17  C   UNL     1      12.101   0.011   0.380  0.00  0.00    -0.078 C 
ATOM     18  H   UNL     1      11.044   1.603  -0.590  0.00  0.00    -0.081 HD
ENDBRANCH   6  13
ENDBRANCH   5   6
ENDBRANCH   1   5
BRANCH   2  19
ATOM     19  C   UNL     1       4.798   0.229  -0.123  0.00  0.00    +0.200 C 
BRANCH  19  20
ATOM     20  N   UNL     1       3.658   1.144  -0.025  0.00  0.00    -0.305 N 
ATOM     21  C   UNL     1       2.400   0.663  -0.094  0.00  0.00    +0.231 C 
ATOM     22  O   UNL     1       2.212  -0.526  -0.238  0.00  0.00    -0.274 OA
ATOM     23  H   UNL     1       3.828   2.223   0.105  0.00  0.00    +0.149 HD
BRANCH  21  24
ATOM     24  C   UNL     1       1.228   1.605   0.007  0.00  0.00    +0.200 C 
BRANCH  24  25
ATOM     25  N   UNL     1      -0.020   0.843  -0.096  0.00  0.00    -0.303 N 
ATOM     26  C   UNL     1      -1.206   1.481  -0.037  0.00  0.00    +0.246 C 
ATOM     27  O   UNL     1      -1.240   2.688   0.106  0.00  0.00    -0.270 OA
ATOM     28  H   UNL     1       0.011  -0.249  -0.221  0.00  0.00    +0.150 HD
BRANCH  26  29
ATOM     29  C   UNL     1      -2.463   0.714  -0.147  0.00  0.00    +0.055 A 
ATOM     30  C   UNL     1      -2.427  -0.672  -0.312  0.00  0.00    +0.016 A 
ATOM     31  C   UNL     1      -3.604  -1.382  -0.413  0.00  0.00    +0.021 A 
ATOM     32  C   UNL     1      -4.822  -0.724  -0.352  0.00  0.00    +0.042 A 
ATOM     33  C   UNL     1      -4.866   0.649  -0.188  0.00  0.00    +0.040 A 
ATOM     34  C   UNL     1      -3.694   1.372  -0.080  0.00  0.00    +0.054 A 
ATOM     35 CL   UNL     1      -3.750   3.094   0.132  0.00  0.00    -0.083 Cl
ATOM     36 CL   UNL     1      -6.299  -1.627  -0.481  0.00  0.00    -0.083 Cl
ENDBRANCH  26  29
ENDBRANCH  24  25
ENDBRANCH  21  24
ENDBRANCH  19  20
ENDBRANCH   2  19
TORSDOF 9
