REMARK  Name = ZINC09981075
REMARK  8 active torsions:
REMARK  status: ('A' for Active; 'I' for Inactive)
REMARK    1  A    between atoms: C_4  and  C_7
REMARK    2  A    between atoms: C_7  and  N_8
REMARK    3  A    between atoms: C_9  and  N_36
REMARK    4  A    between atoms: C_10  and  N_17
REMARK    5  A    between atoms: N_17  and  C_18
REMARK    6  A    between atoms: C_18  and  C_19
REMARK    7  A    between atoms: C_25  and  C_27
REMARK    8  A    between atoms: C_27  and  C_28
REMARK                            x       y       z     vdW  Elec       q    Type
REMARK                         _______ _______ _______ _____ _____    ______ ____
ROOT
ATOM      1  N   UNL     1       6.790   1.125  -2.369  0.00  0.00    -0.276 N 
ATOM      2  C   UNL     1       5.969   0.288  -1.649  0.00  0.00    +0.128 A 
ATOM      3  C   UNL     1       4.729  -0.040  -2.158  0.00  0.00    +0.140 A 
ATOM      4  C   UNL     1       4.337   0.502  -3.396  0.00  0.00    +0.277 A 
ATOM      5  O   UNL     1       3.245   0.232  -3.866  0.00  0.00    -0.266 OA
ATOM      6  N   UNL     1       5.177   1.321  -4.059  0.00  0.00    -0.273 N 
ATOM      7  H   UNL     1       4.900   1.706  -4.939  0.00  0.00    +0.173 HD
ATOM      8  C   UNL     1       6.384   1.625  -3.550  0.00  0.00    +0.331 A 
ATOM      9  O   UNL     1       7.123   2.367  -4.170  0.00  0.00    -0.246 OA
ENDROOT
BRANCH   3  10
ATOM     10  N   UNL     1       3.865  -0.899  -1.445  0.00  0.00    -0.260 N 
ATOM     11  C   UNL     1       3.565  -2.117  -1.942  0.00  0.00    +0.225 C 
ATOM     12  O   UNL     1       3.967  -2.440  -3.040  0.00  0.00    -0.275 OA
BRANCH  10  13
ATOM     13  C   UNL     1       3.295  -0.468  -0.166  0.00  0.00    +0.149 C 
BRANCH  13  14
ATOM     14  C   UNL     1       2.060   0.356  -0.419  0.00  0.00    -0.030 A 
ATOM     15  C   UNL     1       0.819  -0.252  -0.459  0.00  0.00    +0.005 A 
ATOM     16  C   UNL     1      -0.315   0.505  -0.691  0.00  0.00    +0.000 A 
ATOM     17  C   UNL     1      -0.207   1.869  -0.884  0.00  0.00    +0.000 A 
ATOM     18  C   UNL     1       1.034   2.478  -0.844  0.00  0.00    +0.000 A 
ATOM     19  C   UNL     1       2.167   1.721  -0.612  0.00  0.00    +0.005 A 
ENDBRANCH  13  14
ENDBRANCH  10  13
BRANCH  11  20
ATOM     20  C   UNL     1       2.731  -3.076  -1.132  0.00  0.00    +0.135 C 
BRANCH  20  21
ATOM     21  C   UNL     1       2.446  -4.309  -1.951  0.00  0.00    +0.015 A 
ATOM     22  C   UNL     1       3.313  -5.387  -1.905  0.00  0.00    +0.128 A 
ATOM     23  C   UNL     1       3.050  -6.519  -2.658  0.00  0.00    +0.039 A 
ATOM     24  C   UNL     1       1.922  -6.572  -3.455  0.00  0.00    +0.004 A 
ATOM     25  C   UNL     1       1.056  -5.495  -3.501  0.00  0.00    +0.020 A 
ATOM     26  C   UNL     1       1.315  -4.365  -2.745  0.00  0.00    +0.047 A 
ATOM     27 CL   UNL     1       0.223  -3.017  -2.798  0.00  0.00    -0.083 Cl
ATOM     28  F   UNL     1       4.415  -5.335  -1.126  0.00  0.00    -0.205 F 
ENDBRANCH  20  21
ENDBRANCH  11  20
ENDBRANCH   3  10
BRANCH   2  29
ATOM     29  N   UNL     1       6.381  -0.219  -0.440  0.00  0.00    -0.343 N 
ATOM     30  H   UNL     1       5.829  -0.864   0.029  0.00  0.00    +0.144 HD
ATOM     31  H   UNL     1       7.224   0.068  -0.056  0.00  0.00    +0.144 HD
ENDBRANCH   2  29
BRANCH   1  32
ATOM     32  C   UNL     1       8.111   1.478  -1.844  0.00  0.00    +0.163 C 
BRANCH  32  36
ATOM     33  C   UNL     1       7.796   4.995   0.560  0.00  0.00    +0.000 A 
ATOM     34  C   UNL     1       7.644   3.748   1.136  0.00  0.00    +0.000 A 
ATOM     35  C   UNL     1       7.746   2.610   0.358  0.00  0.00    +0.005 A 
ATOM     36  C   UNL     1       8.000   2.718  -0.996  0.00  0.00    -0.028 A 
ATOM     37  C   UNL     1       8.157   3.965  -1.572  0.00  0.00    +0.005 A 
ATOM     38  C   UNL     1       8.050   5.104  -0.795  0.00  0.00    +0.000 A 
ENDBRANCH  32  36
ENDBRANCH   1  32
TORSDOF 8
