REMARK  Name = ZINC08680912
REMARK  9 active torsions:
REMARK  status: ('A' for Active; 'I' for Inactive)
REMARK    1  A    between atoms: C_1  and  C_2
REMARK    2  A    between atoms: C_2  and  C_3
REMARK    3  A    between atoms: C_6  and  C_9
REMARK    4  A    between atoms: C_14  and  C_27
REMARK    5  A    between atoms: N_16  and  C_19
REMARK    6  A    between atoms: C_24  and  O_25
REMARK    7  A    between atoms: O_25  and  C_26
REMARK    8  A    between atoms: C_30  and  C_33
REMARK    9  A    between atoms: C_33  and  C_34
REMARK                            x       y       z     vdW  Elec       q    Type
REMARK                         _______ _______ _______ _____ _____    ______ ____
ROOT
ATOM      1  C   UNL     1       3.476  -2.009  -4.520  0.00  0.00    +0.141 C 
ATOM      2  C   UNL     1       3.840  -0.790  -5.318  0.00  0.00    +0.075 C 
ATOM      3  C   UNL     1       5.131  -0.538  -5.672  0.00  0.00    +0.101 C 
ATOM      4  N   UNL     1       5.421   0.608  -6.377  0.00  0.00    -0.310 N 
ATOM      5  C   UNL     1       4.389   1.169  -7.259  0.00  0.00    +0.199 C 
ATOM      6  N   UNL     1       3.094   1.104  -6.575  0.00  0.00    -0.241 N 
ATOM      7  C   UNL     1       2.833   0.116  -5.701  0.00  0.00    +0.254 C 
ATOM      8  O   UNL     1       1.712   0.003  -5.236  0.00  0.00    -0.270 OA
ATOM      9  N   UNL     1       6.138  -1.407  -5.334  0.00  0.00    -0.285 N 
ATOM     10  C   UNL     1       5.878  -2.520  -4.630  0.00  0.00    +0.136 C 
ATOM     11  N   UNL     1       4.641  -2.830  -4.228  0.00  0.00    -0.315 N 
ATOM     12  S   UNL     1       7.169  -3.573  -4.234  0.00  0.00    -0.019 S 
ATOM     13  H   UNL     1       6.287   1.036  -6.294  0.00  0.00    +0.149 HD
ATOM     14  H   UNL     1       4.515  -3.644  -3.716  0.00  0.00    +0.149 HD
ATOM     15  H   UNL     1       7.049  -1.214  -5.606  0.00  0.00    +0.155 HD
ENDROOT
BRANCH   1  19
ATOM     16  C   UNL     1       1.682  -0.784  -0.842  0.00  0.00    -0.048 A 
ATOM     17  C   UNL     1       0.887  -1.177  -1.902  0.00  0.00    +0.004 A 
ATOM     18  C   UNL     1       1.467  -1.573  -3.092  0.00  0.00    +0.006 A 
ATOM     19  C   UNL     1       2.843  -1.577  -3.223  0.00  0.00    -0.023 A 
ATOM     20  C   UNL     1       3.639  -1.183  -2.163  0.00  0.00    +0.006 A 
ATOM     21  C   UNL     1       3.058  -0.783  -0.974  0.00  0.00    +0.004 A 
BRANCH  16  23
ATOM     22  C   UNL     1       0.788   1.154   0.419  0.00  0.00    +0.009 C 
ATOM     23  C   UNL     1       1.050  -0.353   0.456  0.00  0.00    +0.032 C 
ENDBRANCH  16  23
ENDBRANCH   1  19
BRANCH   6  24
ATOM     24  C   UNL     1       2.121   2.079  -6.833  0.00  0.00    +0.080 A 
ATOM     25  C   UNL     1       1.170   1.868  -7.821  0.00  0.00    +0.027 A 
ATOM     26  C   UNL     1       0.211   2.830  -8.073  0.00  0.00    +0.002 A 
ATOM     27  C   UNL     1       0.198   4.005  -7.344  0.00  0.00    +0.004 A 
ATOM     28  C   UNL     1       1.143   4.223  -6.359  0.00  0.00    +0.047 A 
ATOM     29  C   UNL     1       2.104   3.260  -6.096  0.00  0.00    +0.141 A 
BRANCH  29  30
ATOM     30  O   UNL     1       3.031   3.471  -5.123  0.00  0.00    -0.493 OA
ATOM     31  C   UNL     1       2.951   4.705  -4.407  0.00  0.00    +0.277 C 
ENDBRANCH  29  30
ENDBRANCH   6  24
BRANCH   5  32
ATOM     32  C   UNL     1       4.329   0.371  -8.536  0.00  0.00    -0.009 A 
ATOM     33  C   UNL     1       4.683   0.960  -9.736  0.00  0.00    +0.007 A 
ATOM     34  C   UNL     1       4.627   0.228 -10.908  0.00  0.00    +0.004 A 
ATOM     35  C   UNL     1       4.218  -1.092 -10.879  0.00  0.00    -0.048 A 
ATOM     36  C   UNL     1       3.865  -1.681  -9.679  0.00  0.00    +0.004 A 
ATOM     37  C   UNL     1       3.924  -0.950  -8.507  0.00  0.00    +0.007 A 
BRANCH  35  38
ATOM     38  C   UNL     1       4.156  -1.889 -12.157  0.00  0.00    +0.032 C 
ATOM     39  C   UNL     1       5.502  -2.578 -12.393  0.00  0.00    +0.009 C 
ENDBRANCH  35  38
ENDBRANCH   5  32
TORSDOF 6
