REMARK  Name = ZINC21818725
REMARK  7 active torsions:
REMARK  status: ('A' for Active; 'I' for Inactive)
REMARK    1  A    between atoms: C_1  and  C_2
REMARK    2  A    between atoms: C_5  and  N_8
REMARK    3  A    between atoms: N_8  and  C_9
REMARK    4  A    between atoms: C_9  and  C_11
REMARK    5  A    between atoms: C_9  and  C_12
REMARK    6  A    between atoms: N_14  and  C_15
REMARK    7  A    between atoms: C_18  and  N_22
REMARK                            x       y       z     vdW  Elec       q    Type
REMARK                         _______ _______ _______ _____ _____    ______ ____
ROOT
ATOM      1  C   UNL     1       0.688  -6.265   1.024  0.00  0.00    +0.237 C 
ATOM      2  O   UNL     1       1.082  -6.580  -0.079  0.00  0.00    -0.273 OA
ATOM      3  N   UNL     1       0.812  -7.124   2.055  0.00  0.00    -0.283 N 
ATOM      4  H   UNL     1       0.571  -6.843   2.952  0.00  0.00    +0.155 HD
ENDROOT
BRANCH   3   5
ATOM      5  C   UNL     1       1.288  -8.421   1.832  0.00  0.00    +0.052 A 
ATOM      6  C   UNL     1       1.151  -9.007   0.581  0.00  0.00    +0.027 A 
ATOM      7  C   UNL     1       1.623 -10.287   0.364  0.00  0.00    +0.034 A 
ATOM      8  C   UNL     1       2.231 -10.986   1.391  0.00  0.00    +0.128 A 
ATOM      9  C   UNL     1       2.369 -10.406   2.638  0.00  0.00    +0.054 A 
ATOM     10  C   UNL     1       1.904  -9.123   2.861  0.00  0.00    +0.064 A 
ATOM     11 CL   UNL     1       2.085  -8.393   4.426  0.00  0.00    -0.082 Cl
BRANCH   8  12
ATOM     12  N   UNL     1       2.734 -12.357   1.154  0.00  0.00    +0.056 N 
ATOM     13  O   UNL     1       2.613 -12.866   0.064  0.00  0.00    -0.126 OA
ATOM     14  O   UNL     1       3.266 -12.969   2.051  0.00  0.00    -0.126 OA
ENDBRANCH   8  12
ENDBRANCH   3   5
BRANCH   1  15
ATOM     15  C   UNL     1       0.060  -4.912   1.241  0.00  0.00    +0.154 C 
ATOM     16  C   UNL     1      -1.373  -5.091   1.748  0.00  0.00    +0.038 C 
BRANCH  15  17
ATOM     17  N   UNL     1       0.042  -4.174  -0.024  0.00  0.00    -0.333 N 
ATOM     18  H   UNL     1       0.051  -4.654  -0.866  0.00  0.00    +0.147 HD
BRANCH  17  23
ATOM     19  C   UNL     1      -0.077   1.496   0.006  0.00  0.00    +0.044 C 
ATOM     20  C   UNL     1      -0.045  -0.011  -0.002  0.00  0.00    -0.050 A 
ATOM     21  C   UNL     1      -0.033  -0.694  -1.204  0.00  0.00    +0.005 A 
ATOM     22  C   UNL     1      -0.004  -2.075  -1.215  0.00  0.00    +0.023 A 
ATOM     23  C   UNL     1       0.013  -2.777  -0.017  0.00  0.00    +0.028 A 
ATOM     24  C   UNL     1       0.000  -2.087   1.189  0.00  0.00    +0.023 A 
ATOM     25  C   UNL     1      -0.023  -0.707   1.193  0.00  0.00    +0.005 A 
ENDBRANCH  17  23
ENDBRANCH  15  17
ENDBRANCH   1  15
TORSDOF 5
