REMARK  Name = ZINC40013905
REMARK  17 active torsions:
REMARK  status: ('A' for Active; 'I' for Inactive)
REMARK    1  A    between atoms: C_1  and  C_2
REMARK    2  A    between atoms: C_2  and  C_3
REMARK    3  A    between atoms: C_3  and  C_4
REMARK    4  A    between atoms: C_4  and  C_5
REMARK    5  A    between atoms: C_5  and  O_6
REMARK    6  A    between atoms: O_6  and  C_7
REMARK    7  A    between atoms: C_10  and  C_15
REMARK    8  A    between atoms: C_12  and  O_13
REMARK    9  A    between atoms: O_13  and  C_14
REMARK   10  A    between atoms: N_30  and  C_31
REMARK   11  A    between atoms: C_31  and  C_32
REMARK   12  A    between atoms: C_32  and  C_33
REMARK   13  A    between atoms: C_33  and  N_34
REMARK   14  A    between atoms: N_34  and  C_35
REMARK   15  A    between atoms: N_34  and  C_37
REMARK   16  A    between atoms: C_35  and  C_36
REMARK   17  A    between atoms: C_37  and  C_38
REMARK                            x       y       z     vdW  Elec       q    Type
REMARK                         _______ _______ _______ _____ _____    ______ ____
ROOT
ATOM      1  C   UNL     1      -7.961  -5.463  -1.046  0.00  0.00    +0.145 C 
ATOM      2  C   UNL     1      -8.647  -5.098  -2.322  0.00  0.00    +0.072 A 
ATOM      3  C   UNL     1      -8.236  -5.261  -3.720  0.00  0.00    +0.199 A 
ATOM      4  O   UNL     1      -7.266  -5.917  -4.059  0.00  0.00    -0.287 OA
ATOM      5  C   UNL     1      -9.114  -4.550  -4.684  0.00  0.00    +0.067 A 
ATOM      6  C   UNL     1      -8.746  -4.441  -6.025  0.00  0.00    +0.053 A 
ATOM      7  C   UNL     1      -9.571  -3.773  -6.906  0.00  0.00    +0.124 A 
ATOM      8  C   UNL     1     -10.761  -3.212  -6.455  0.00  0.00    +0.042 A 
ATOM      9  C   UNL     1     -11.132  -3.315  -5.134  0.00  0.00    +0.050 A 
ATOM     10  C   UNL     1     -10.316  -3.989  -4.225  0.00  0.00    +0.140 A 
ATOM     11  O   UNL     1     -10.712  -4.084  -2.935  0.00  0.00    -0.450 OA
ATOM     12  C   UNL     1      -9.843  -4.522  -2.002  0.00  0.00    +0.199 A 
ATOM     13  C   UNL     1      -9.963  -4.491  -0.534  0.00  0.00    +0.283 C 
ATOM     14  O   UNL     1     -10.910  -4.037   0.077  0.00  0.00    -0.267 OA
ATOM     15  N   UNL     1      -8.868  -5.040   0.034  0.00  0.00    -0.284 N 
ATOM     16  F   UNL     1      -9.222  -3.662  -8.206  0.00  0.00    -0.205 F 
ENDROOT
BRANCH   1  20
ATOM     17  C   UNL     1      -4.234  -3.389  -0.731  0.00  0.00    +0.162 A 
ATOM     18  C   UNL     1      -5.423  -2.727  -0.469  0.00  0.00    +0.050 A 
ATOM     19  C   UNL     1      -6.626  -3.400  -0.572  0.00  0.00    +0.009 A 
ATOM     20  C   UNL     1      -6.647  -4.734  -0.936  0.00  0.00    -0.019 A 
ATOM     21  C   UNL     1      -5.464  -5.400  -1.199  0.00  0.00    +0.055 A 
ATOM     22  C   UNL     1      -4.255  -4.730  -1.103  0.00  0.00    +0.162 A 
BRANCH  22  23
ATOM     23  O   UNL     1      -3.092  -5.383  -1.367  0.00  0.00    -0.491 OA
ATOM     24  C   UNL     1      -3.190  -6.758  -1.744  0.00  0.00    +0.277 C 
ENDBRANCH  22  23
BRANCH  17  25
ATOM     25  O   UNL     1      -3.050  -2.729  -0.631  0.00  0.00    -0.488 OA
BRANCH  25  26
ATOM     26  C   UNL     1      -3.104  -1.354  -0.244  0.00  0.00    +0.229 C 
BRANCH  26  27
ATOM     27  C   UNL     1      -1.685  -0.784  -0.186  0.00  0.00    +0.041 C 
BRANCH  27  28
ATOM     28  C   UNL     1      -1.744   0.687   0.229  0.00  0.00    +0.003 C 
BRANCH  28  30
ATOM     29  C   UNL     1      -0.383   2.729   0.701  0.00  0.00    +0.004 C 
ATOM     30  C   UNL     1      -0.325   1.257   0.287  0.00  0.00    -0.003 C 
ENDBRANCH  28  30
ENDBRANCH  27  28
ENDBRANCH  26  27
ENDBRANCH  25  26
ENDBRANCH  17  25
ENDBRANCH   1  20
BRANCH  15  31
ATOM     31  C   UNL     1      -8.625  -5.191   1.470  0.00  0.00    +0.107 C 
BRANCH  31  32
ATOM     32  C   UNL     1      -7.904  -3.948   1.998  0.00  0.00    +0.000 C 
BRANCH  32  33
ATOM     33  C   UNL     1      -7.650  -4.105   3.499  0.00  0.00    -0.077 C 
BRANCH  33  34
ATOM     34  N   UNL     1      -6.958  -2.913   4.005  0.00  0.00    +0.379 N 
ATOM     35  H   UNL     1      -6.117  -2.758   3.469  0.00  0.00    -0.082 HD
BRANCH  34  36
ATOM     36  C   UNL     1      -7.840  -1.745   3.881  0.00  0.00    -0.082 C 
ATOM     37  C   UNL     1      -7.072  -0.481   4.274  0.00  0.00    -0.017 C 
ENDBRANCH  34  36
BRANCH  34  38
ATOM     38  C   UNL     1      -6.607  -3.113   5.418  0.00  0.00    -0.082 C 
ATOM     39  C   UNL     1      -5.577  -4.239   5.533  0.00  0.00    -0.017 C 
ENDBRANCH  34  38
ENDBRANCH  33  34
ENDBRANCH  32  33
ENDBRANCH  31  32
ENDBRANCH  15  31
TORSDOF 13
