REMARK  Name = ZINC09093914
REMARK  13 active torsions:
REMARK  status: ('A' for Active; 'I' for Inactive)
REMARK    1  A    between atoms: C_1  and  C_2
REMARK    2  A    between atoms: C_2  and  O_3
REMARK    3  A    between atoms: O_3  and  C_4
REMARK    4  A    between atoms: C_7  and  N_10
REMARK    5  A    between atoms: C_11  and  C_32
REMARK    6  A    between atoms: C_13  and  C_16
REMARK    7  A    between atoms: C_14  and  C_15
REMARK    8  A    between atoms: C_17  and  C_18
REMARK    9  A    between atoms: C_17  and  C_20
REMARK   10  A    between atoms: C_20  and  O_22
REMARK   11  A    between atoms: O_22  and  C_23
REMARK   12  A    between atoms: C_23  and  C_25
REMARK   13  A    between atoms: C_23  and  C_26
REMARK                            x       y       z     vdW  Elec       q    Type
REMARK                         _______ _______ _______ _____ _____    ______ ____
ROOT
ATOM      1  C   UNL     1       1.870   3.107   0.001  0.00  0.00    +0.035 C 
ATOM      2  C   UNL     1       1.089   4.122   0.521  0.00  0.00    +0.136 C 
ENDROOT
BRANCH   1   6
ATOM      3  N   UNL     1       1.253  -0.424  -0.184  0.00  0.00    -0.317 N 
ATOM      4  C   UNL     1      -0.029   0.015   0.000  0.00  0.00    +0.022 A 
ATOM      5  C   UNL     1      -0.028   1.354   0.099  0.00  0.00    +0.031 A 
ATOM      6  C   UNL     1       1.373   1.780  -0.037  0.00  0.00    -0.003 A 
ATOM      7  C   UNL     1       2.107   0.617  -0.210  0.00  0.00    +0.028 A 
ATOM      8  C   UNL     1       3.600   0.533  -0.394  0.00  0.00    +0.064 C 
ATOM      9  C   UNL     1      -1.249  -0.866   0.082  0.00  0.00    +0.064 C 
BRANCH   3  13
ATOM     10  C   UNL     1       2.362  -4.422  -0.612  0.00  0.00    +0.121 A 
ATOM     11  C   UNL     1       1.563  -3.818  -1.572  0.00  0.00    +0.047 A 
ATOM     12  C   UNL     1       1.196  -2.495  -1.431  0.00  0.00    +0.030 A 
ATOM     13  C   UNL     1       1.626  -1.769  -0.328  0.00  0.00    +0.047 A 
ATOM     14  C   UNL     1       2.430  -2.372   0.629  0.00  0.00    +0.030 A 
ATOM     15  C   UNL     1       2.793  -3.697   0.490  0.00  0.00    +0.047 A 
BRANCH  10  16
ATOM     16  O   UNL     1       2.724  -5.725  -0.751  0.00  0.00    -0.492 OA
BRANCH  16  18
ATOM     17  C   UNL     1       3.848  -7.747  -0.053  0.00  0.00    +0.048 C 
ATOM     18  C   UNL     1       3.547  -6.283   0.275  0.00  0.00    +0.225 C 
ENDBRANCH  16  18
ENDBRANCH  10  16
ENDBRANCH   3  13
ENDBRANCH   1   6
BRANCH   2  19
ATOM     19  C   UNL     1      -0.159   3.815   1.152  0.00  0.00    +0.106 C 
ATOM     20  N   UNL     1      -1.149   3.571   1.653  0.00  0.00    -0.191 NA
ENDBRANCH   2  19
BRANCH   2  21
ATOM     21  C   UNL     1       1.540   5.516   0.425  0.00  0.00    +0.350 C 
ATOM     22  O   UNL     1       2.599   5.777  -0.111  0.00  0.00    -0.244 OA
BRANCH  21  23
ATOM     23  O   UNL     1       0.778   6.507   0.931  0.00  0.00    -0.448 OA
BRANCH  23  24
ATOM     24  C   UNL     1       1.286   7.861   0.801  0.00  0.00    +0.259 C 
ATOM     25  C   UNL     1       2.138   8.206   2.024  0.00  0.00    +0.062 C 
BRANCH  24  26
ATOM     26  C   UNL     1       0.131   8.824   0.706  0.00  0.00    +0.261 C 
ATOM     27  O   UNL     1      -1.006   8.422   0.836  0.00  0.00    -0.271 OA
ATOM     28  N   UNL     1       0.361  10.132   0.478  0.00  0.00    -0.237 N 
ATOM     29  C   UNL     1      -0.673  10.993   0.393  0.00  0.00    +0.303 C 
ATOM     30  O   UNL     1      -1.812  10.590   0.522  0.00  0.00    -0.253 OA
ATOM     31  N   UNL     1      -0.443  12.301   0.164  0.00  0.00    -0.313 N 
ATOM     32  H   UNL     1       1.270  10.454   0.374  0.00  0.00    +0.159 HD
ATOM     33  H   UNL     1       0.467  12.623   0.061  0.00  0.00    +0.146 HD
ATOM     34  H   UNL     1      -1.186  12.921   0.103  0.00  0.00    +0.146 HD
ENDBRANCH  24  26
ENDBRANCH  23  24
ENDBRANCH  21  23
ENDBRANCH   2  21
TORSDOF 9
