REMARK  Name = ZINC21257055
REMARK  4 active torsions:
REMARK  status: ('A' for Active; 'I' for Inactive)
REMARK    1  A    between atoms: C_1  and  O_2
REMARK    2  A    between atoms: O_2  and  C_3
REMARK    3  A    between atoms: C_8  and  C_9
REMARK    4  A    between atoms: C_14  and  C_24
REMARK                            x       y       z     vdW  Elec       q    Type
REMARK                         _______ _______ _______ _____ _____    ______ ____
ROOT
ATOM      1  C   UNL     1       2.348   1.364  -0.786  0.00  0.00    +0.035 C 
ATOM      2  C   UNL     1       1.284   2.126   0.001  0.00  0.00    +0.060 C 
ATOM      3  C   UNL     1      -0.016   1.339   0.009  0.00  0.00    +0.017 C 
ATOM      4  C   UNL     1       0.002  -0.004   0.002  0.00  0.00    +0.037 C 
ATOM      5  C   UNL     1      -1.208  -0.907   0.032  0.00  0.00    +0.143 C 
ATOM      6  N   UNL     1      -2.467  -0.229  -0.196  0.00  0.00    -0.331 N 
ATOM      7  C   UNL     1      -2.945   0.721   0.704  0.00  0.00    +0.049 A 
ATOM      8  C   UNL     1      -4.107   0.512   1.430  0.00  0.00    +0.025 A 
ATOM      9  C   UNL     1      -4.519   1.465   2.345  0.00  0.00    +0.002 A 
ATOM     10  C   UNL     1      -3.778   2.617   2.538  0.00  0.00    +0.002 A 
ATOM     11  C   UNL     1      -2.625   2.837   1.803  0.00  0.00    +0.025 A 
ATOM     12  C   UNL     1      -2.224   1.894   0.872  0.00  0.00    +0.052 A 
ATOM     13  N   UNL     1      -1.139   2.101   0.030  0.00  0.00    -0.316 N 
ATOM     14  C   UNL     1       1.233  -0.700  -0.038  0.00  0.00    +0.163 C 
ATOM     15  O   UNL     1       1.220  -1.915  -0.021  0.00  0.00    -0.292 OA
ATOM     16  C   UNL     1       2.554   0.007  -0.102  0.00  0.00    +0.088 C 
ATOM     17  H   UNL     1      -3.063  -0.462  -1.091  0.00  0.00    +0.147 HD
ATOM     18  H   UNL     1      -1.237   2.955  -0.656  0.00  0.00    +0.152 HD
ENDROOT
BRANCH   1  24
ATOM     19  C   UNL     1       4.225   2.521  -1.981  0.00  0.00    +0.124 A 
ATOM     20  C   UNL     1       5.413   3.238  -1.974  0.00  0.00    +0.046 A 
ATOM     21  C   UNL     1       6.016   3.560  -0.774  0.00  0.00    +0.004 A 
ATOM     22  C   UNL     1       5.435   3.173   0.419  0.00  0.00    +0.001 A 
ATOM     23  C   UNL     1       4.249   2.463   0.415  0.00  0.00    +0.007 A 
ATOM     24  C   UNL     1       3.641   2.139  -0.782  0.00  0.00    -0.002 A 
BRANCH  19  26
ATOM     25  C   UNL     1       4.289   2.624  -4.355  0.00  0.00    +0.277 C 
ATOM     26  O   UNL     1       3.632   2.198  -3.160  0.00  0.00    -0.495 OA
ENDBRANCH  19  26
ENDBRANCH   1  24
BRANCH   5  27
ATOM     27  C   UNL     1      -1.266  -1.585   1.377  0.00  0.00    +0.014 A 
ATOM     28  C   UNL     1      -0.877  -2.837   1.719  0.00  0.00    +0.013 A 
ATOM     29  C   UNL     1      -1.025  -3.250   3.030  0.00  0.00    +0.008 A 
ATOM     30  C   UNL     1      -1.555  -2.390   3.934  0.00  0.00    +0.045 A 
ATOM     31  S   UNL     1      -1.858  -0.943   2.934  0.00  0.00    -0.099 S 
ENDBRANCH   5  27
TORSDOF 3
