REMARK  Name = ZINC62839068
REMARK  10 active torsions:
REMARK  status: ('A' for Active; 'I' for Inactive)
REMARK    1  A    between atoms: C_1  and  C_2
REMARK    2  A    between atoms: C_7  and  C_9
REMARK    3  A    between atoms: C_7  and  N_11
REMARK    4  A    between atoms: C_9  and  O_10
REMARK    5  A    between atoms: N_11  and  C_12
REMARK    6  A    between atoms: C_12  and  C_13
REMARK    7  A    between atoms: C_16  and  C_18
REMARK    8  A    between atoms: C_18  and  C_19
REMARK    9  A    between atoms: C_18  and  C_20
REMARK   10  A    between atoms: C_18  and  C_21
REMARK                            x       y       z     vdW  Elec       q    Type
REMARK                         _______ _______ _______ _____ _____    ______ ____
ROOT
ATOM      1  N   UNL     1       1.543  -2.420   2.335  0.00  0.00    +0.387 N 
ATOM      2  H   UNL     1       2.409  -1.903   2.350  0.00  0.00    -0.085 HD
ATOM      3  H   UNL     1       1.039  -2.259   3.194  0.00  0.00    -0.085 HD
ENDROOT
BRANCH   1   9
ATOM      4  C   UNL     1      -2.844  -2.910   0.100  0.00  0.00    +0.007 C 
ATOM      5  C   UNL     1      -1.484  -2.210   0.057  0.00  0.00    -0.015 C 
ATOM      6  C   UNL     1      -1.687  -0.696   0.138  0.00  0.00    +0.003 C 
ATOM      7  C   UNL     1      -0.328   0.004   0.095  0.00  0.00    -0.001 C 
ATOM      8  C   UNL     1       0.523  -0.460   1.279  0.00  0.00    -0.010 C 
ATOM      9  C   UNL     1       0.726  -1.974   1.198  0.00  0.00    -0.044 C 
ATOM     10  C   UNL     1      -0.633  -2.675   1.241  0.00  0.00    -0.007 C 
BRANCH   9  11
ATOM     11  C   UNL     1       1.439  -2.324  -0.110  0.00  0.00    +0.143 C 
BRANCH  11  12
ATOM     12  O   UNL     1       2.757  -1.772  -0.097  0.00  0.00    -0.396 OA
ATOM     13  H   UNL     1       3.268  -1.955  -0.897  0.00  0.00    +0.209 HD
ENDBRANCH  11  12
ENDBRANCH   9  11
ENDBRANCH   1   9
BRANCH   1  14
ATOM     14  C   UNL     1       1.832  -3.854   2.197  0.00  0.00    -0.037 C 
BRANCH  14  15
ATOM     15  C   UNL     1       2.561  -4.339   3.424  0.00  0.00    -0.007 A 
ATOM     16  C   UNL     1       2.068  -4.851   4.580  0.00  0.00    +0.120 A 
ATOM     17  N   UNL     1       2.944  -5.200   5.501  0.00  0.00    -0.252 NA
ATOM     18  C   UNL     1       4.231  -5.058   5.305  0.00  0.00    +0.084 A 
ATOM     19  S   UNL     1       4.314  -4.407   3.755  0.00  0.00    -0.078 S 
BRANCH  18  20
ATOM     20  C   UNL     1       5.364  -5.400   6.239  0.00  0.00    +0.011 C 
ATOM     21  C   UNL     1       5.326  -6.895   6.561  0.00  0.00    +0.017 C 
ATOM     22  C   UNL     1       6.697  -5.055   5.572  0.00  0.00    +0.017 C 
ATOM     23  C   UNL     1       5.218  -4.596   7.533  0.00  0.00    +0.017 C 
ENDBRANCH  18  20
ENDBRANCH  14  15
ENDBRANCH   1  14
TORSDOF 6
