REMARK  Name = ZINC65259916
REMARK  6 active torsions:
REMARK  status: ('A' for Active; 'I' for Inactive)
REMARK    1  A    between atoms: C_1  and  O_2
REMARK    2  A    between atoms: O_2  and  C_3
REMARK    3  A    between atoms: C_3  and  C_4
REMARK    4  A    between atoms: C_4  and  C_5
REMARK    5  A    between atoms: N_22  and  C_23
REMARK    6  A    between atoms: C_23  and  C_24
REMARK                            x       y       z     vdW  Elec       q    Type
REMARK                         _______ _______ _______ _____ _____    ______ ____
ROOT
ATOM      1  C   UNL     1      -2.522  -2.758   0.011  0.00  0.00    +0.218 C 
ATOM      2  O   UNL     1      -3.513  -2.059   0.025  0.00  0.00    -0.276 OA
ATOM      3  N   UNL     1      -2.645  -4.100   0.005  0.00  0.00    -0.299 N 
ATOM      4  C   UNL     1      -1.454  -4.962  -0.005  0.00  0.00    +0.108 C 
ATOM      5  C   UNL     1      -1.550  -5.950   1.162  0.00  0.00    +0.021 C 
ATOM      6  C   UNL     1      -2.874  -6.713   1.072  0.00  0.00    +0.036 C 
ATOM      7  C   UNL     1      -4.040  -5.732   1.162  0.00  0.00    +0.102 C 
ATOM      8  C   UNL     1      -3.972  -4.732   0.015  0.00  0.00    +0.141 C 
ATOM      9  C   UNL     1      -5.350  -6.489   1.101  0.00  0.00    +0.098 C 
ATOM     10  N   UNL     1      -5.668  -7.262   2.203  0.00  0.00    -0.301 N 
ATOM     11  C   UNL     1      -5.345  -6.752   3.471  0.00  0.00    +0.053 A 
ATOM     12  C   UNL     1      -5.861  -7.352   4.609  0.00  0.00    +0.025 A 
ATOM     13  C   UNL     1      -5.538  -6.855   5.858  0.00  0.00    +0.002 A 
ATOM     14  C   UNL     1      -4.700  -5.761   5.976  0.00  0.00    +0.002 A 
ATOM     15  C   UNL     1      -4.183  -5.156   4.846  0.00  0.00    +0.025 A 
ATOM     16  C   UNL     1      -4.505  -5.645   3.589  0.00  0.00    +0.049 A 
ATOM     17  N   UNL     1      -3.995  -5.016   2.444  0.00  0.00    -0.329 N 
ATOM     18  N   UNL     1      -6.131  -6.416   0.072  0.00  0.00    -0.371 N 
ATOM     19  H   UNL     1      -3.618  -4.124   2.498  0.00  0.00    +0.147 HD
ATOM     20  H   UNL     1      -5.883  -5.866  -0.687  0.00  0.00    +0.161 HD
ATOM     21  H   UNL     1      -6.099  -8.126   2.103  0.00  0.00    +0.153 HD
ENDROOT
BRANCH   1  22
ATOM     22  C   UNL     1      -1.154  -2.126   0.002  0.00  0.00    +0.124 C 
BRANCH  22  23
ATOM     23  C   UNL     1      -1.295  -0.603   0.011  0.00  0.00    +0.168 C 
BRANCH  23  25
ATOM     24  C   UNL     1      -0.017   1.425   0.010  0.00  0.00    +0.194 C 
ATOM     25  O   UNL     1       0.002  -0.004   0.002  0.00  0.00    -0.382 OA
ENDBRANCH  23  25
ENDBRANCH  22  23
ENDBRANCH   1  22
BRANCH  18  26
ATOM     26  C   UNL     1      -7.389  -7.165   0.053  0.00  0.00    +0.149 C 
BRANCH  26  27
ATOM     27  C   UNL     1      -8.107  -6.910  -1.248  0.00  0.00    -0.028 A 
ATOM     28  C   UNL     1      -8.994  -5.856  -1.353  0.00  0.00    +0.005 A 
ATOM     29  C   UNL     1      -9.652  -5.622  -2.546  0.00  0.00    +0.000 A 
ATOM     30  C   UNL     1      -9.421  -6.442  -3.634  0.00  0.00    +0.000 A 
ATOM     31  C   UNL     1      -8.533  -7.496  -3.530  0.00  0.00    +0.000 A 
ATOM     32  C   UNL     1      -7.872  -7.728  -2.338  0.00  0.00    +0.005 A 
ENDBRANCH  26  27
ENDBRANCH  18  26
TORSDOF 5
