REMARK  Name = ZINC34700951
REMARK  8 active torsions:
REMARK  status: ('A' for Active; 'I' for Inactive)
REMARK    1  A    between atoms: C_4  and  C_7
REMARK    2  A    between atoms: N_9  and  C_34
REMARK    3  A    between atoms: C_11  and  C_12
REMARK    4  A    between atoms: C_12  and  C_14
REMARK    5  A    between atoms: C_12  and  N_27
REMARK    6  A    between atoms: C_14  and  C_16
REMARK    7  A    between atoms: C_14  and  C_18
REMARK    8  A    between atoms: C_28  and  N_29
REMARK                            x       y       z     vdW  Elec       q    Type
REMARK                         _______ _______ _______ _____ _____    ______ ____
ROOT
ATOM      1  C   UNL     1       3.239  -2.324   1.928  0.00  0.00    +0.181 C 
ENDROOT
BRANCH   1   2
ATOM      2  N   UNL     1       4.057  -2.486   3.133  0.00  0.00    -0.260 N 
ATOM      3  C   UNL     1       3.823  -1.902   4.351  0.00  0.00    +0.117 A 
ATOM      4  C   UNL     1       4.809  -2.301   5.207  0.00  0.00    +0.114 A 
ATOM      5  C   UNL     1       5.675  -3.151   4.505  0.00  0.00    +0.266 A 
ATOM      6  O   UNL     1       6.669  -3.694   4.957  0.00  0.00    -0.266 OA
ATOM      7  N   UNL     1       5.214  -3.268   3.244  0.00  0.00    -0.261 N 
ATOM      8  H   UNL     1       5.613  -3.799   2.537  0.00  0.00    +0.190 HD
BRANCH   3   9
ATOM      9  N   UNL     1       2.780  -1.065   4.656  0.00  0.00    -0.343 N 
ATOM     10  H   UNL     1       2.125  -0.838   3.978  0.00  0.00    +0.144 HD
ATOM     11  H   UNL     1       2.698  -0.699   5.551  0.00  0.00    +0.144 HD
ENDBRANCH   3   9
ENDBRANCH   1   2
BRANCH   1  16
ATOM     12  C   UNL     1       3.699  -0.689  -0.037  0.00  0.00    +0.025 A 
ATOM     13  C   UNL     1       4.742  -0.455  -0.886  0.00  0.00    +0.123 A 
ATOM     14  N   UNL     1       5.727  -1.323  -0.571  0.00  0.00    -0.239 N 
ATOM     15  N   UNL     1       5.287  -2.115   0.497  0.00  0.00    -0.169 NA
ATOM     16  C   UNL     1       4.080  -1.737   0.824  0.00  0.00    +0.097 A 
BRANCH  12  20
ATOM     17  C   UNL     1      -0.017   1.379   0.010  0.00  0.00    +0.000 A 
ATOM     18  C   UNL     1       1.169   2.092   0.002  0.00  0.00    +0.001 A 
ATOM     19  C   UNL     1       2.377   1.425  -0.013  0.00  0.00    +0.008 A 
ATOM     20  C   UNL     1       2.402   0.033  -0.021  0.00  0.00    -0.015 A 
ATOM     21  C   UNL     1       1.205  -0.680  -0.013  0.00  0.00    +0.008 A 
ATOM     22  C   UNL     1       0.002  -0.004   0.002  0.00  0.00    +0.001 A 
ENDBRANCH  12  20
BRANCH  14  23
ATOM     23  C   UNL     1       6.974  -1.416  -1.204  0.00  0.00    +0.065 A 
ATOM     24  C   UNL     1       7.287  -0.562  -2.253  0.00  0.00    +0.028 A 
ATOM     25  C   UNL     1       8.517  -0.656  -2.875  0.00  0.00    +0.002 A 
ATOM     26  C   UNL     1       9.436  -1.600  -2.454  0.00  0.00    +0.000 A 
ATOM     27  C   UNL     1       9.127  -2.451  -1.409  0.00  0.00    +0.002 A 
ATOM     28  C   UNL     1       7.902  -2.358  -0.779  0.00  0.00    +0.028 A 
ENDBRANCH  14  23
ENDBRANCH   1  16
BRANCH   1  29
ATOM     29  C   UNL     1       2.701  -3.688   1.490  0.00  0.00    +0.177 C 
BRANCH  29  30
ATOM     30  C   UNL     1       1.762  -4.220   2.542  0.00  0.00    +0.099 A 
ATOM     31  N   UNL     1       2.025  -4.474   3.791  0.00  0.00    -0.243 NA
ATOM     32  C   UNL     1       1.091  -4.950   4.640  0.00  0.00    +0.079 A 
ATOM     33  C   UNL     1       1.194  -5.279   6.007  0.00  0.00    +0.029 A 
ATOM     34  C   UNL     1       0.115  -5.752   6.689  0.00  0.00    +0.002 A 
ATOM     35  C   UNL     1      -1.116  -5.928   6.071  0.00  0.00    +0.001 A 
ATOM     36  C   UNL     1      -1.256  -5.616   4.731  0.00  0.00    +0.017 A 
ATOM     37  C   UNL     1      -0.173  -5.137   4.035  0.00  0.00    +0.039 A 
ATOM     38  S   UNL     1       0.135  -4.612   2.369  0.00  0.00    -0.071 S 
ENDBRANCH  29  30
BRANCH  29  39
ATOM     39  C   UNL     1       3.824  -4.625   1.316  0.00  0.00    +0.075 C 
ATOM     40  N   UNL     1       4.690  -5.347   1.182  0.00  0.00    -0.196 NA
ENDBRANCH  29  39
ENDBRANCH   1  29
TORSDOF 8
