REMARK  Name = ZINC20600932
REMARK  7 active torsions:
REMARK  status: ('A' for Active; 'I' for Inactive)
REMARK    1  A    between atoms: C_4  and  C_7
REMARK    2  A    between atoms: N_11  and  C_13
REMARK    3  A    between atoms: C_13  and  C_14
REMARK    4  A    between atoms: C_14  and  N_15
REMARK    5  A    between atoms: N_15  and  C_16
REMARK    6  A    between atoms: C_16  and  C_17
REMARK    7  A    between atoms: C_22  and  C_23
REMARK                            x       y       z     vdW  Elec       q    Type
REMARK                         _______ _______ _______ _____ _____    ______ ____
ROOT
ATOM      1  N   UNL     1       0.164   4.938   0.902  0.00  0.00    +0.383 N 
ATOM      2  H   UNL     1      -0.492   5.708   0.469  0.00  0.00    -0.085 HD
ATOM      3  H   UNL     1       0.659   4.382   0.093  0.00  0.00    -0.085 HD
ENDROOT
BRANCH   1   4
ATOM      4  C   UNL     1       1.179   5.579   1.748  0.00  0.00    -0.067 C 
BRANCH   4   5
ATOM      5  C   UNL     1       2.014   6.543   0.903  0.00  0.00    +0.065 C 
BRANCH   5   9
ATOM      6  C   UNL     1       3.989   9.394   1.437  0.00  0.00    +0.034 C 
ATOM      7  C   UNL     1       3.432   9.262   2.879  0.00  0.00    +0.025 C 
ATOM      8  C   UNL     1       2.404   8.115   2.713  0.00  0.00    +0.085 C 
ATOM      9  N   UNL     1       3.029   7.184   1.750  0.00  0.00    -0.303 NA
ATOM     10  C   UNL     1       4.000   7.935   0.934  0.00  0.00    +0.092 C 
BRANCH   6  14
ATOM     11  C   UNL     1       7.944  11.008   1.476  0.00  0.00    +0.000 A 
ATOM     12  C   UNL     1       6.963  11.601   0.703  0.00  0.00    +0.000 A 
ATOM     13  C   UNL     1       5.683  11.078   0.690  0.00  0.00    +0.004 A 
ATOM     14  C   UNL     1       5.384   9.963   1.451  0.00  0.00    -0.043 A 
ATOM     15  C   UNL     1       6.364   9.374   2.228  0.00  0.00    +0.004 A 
ATOM     16  C   UNL     1       7.644   9.894   2.238  0.00  0.00    +0.000 A 
ENDBRANCH   6  14
ENDBRANCH   5   9
ENDBRANCH   4   5
ENDBRANCH   1   4
BRANCH   1  17
ATOM     17  C   UNL     1      -0.659   4.004   1.681  0.00  0.00    -0.043 C 
BRANCH  17  18
ATOM     18  C   UNL     1      -1.610   3.283   0.761  0.00  0.00    -0.019 A 
ATOM     19  C   UNL     1      -2.928   3.541   0.619  0.00  0.00    +0.107 A 
ATOM     20  N   UNL     1      -3.425   2.682  -0.297  0.00  0.00    -0.284 N 
ATOM     21  H   UNL     1      -4.491   2.717  -0.563  0.00  0.00    +0.188 HD
ATOM     22  N   UNL     1      -2.377   1.867  -0.743  0.00  0.00    -0.174 NA
ATOM     23  C   UNL     1      -1.282   2.222  -0.105  0.00  0.00    +0.094 A 
BRANCH  23  24
ATOM     24  C   UNL     1       0.062   1.615  -0.272  0.00  0.00    +0.006 A 
ATOM     25  C   UNL     1       0.531   1.297  -1.546  0.00  0.00    +0.014 A 
ATOM     26  C   UNL     1       1.778   0.728  -1.700  0.00  0.00    +0.050 A 
ATOM     27  C   UNL     1       2.569   0.469  -0.590  0.00  0.00    +0.166 A 
ATOM     28  C   UNL     1       2.105   0.785   0.685  0.00  0.00    +0.167 A 
ATOM     29  C   UNL     1       0.855   1.356   0.844  0.00  0.00    +0.059 A 
ATOM     30  O   UNL     1       3.061   0.437   1.596  0.00  0.00    -0.453 OA
ATOM     31  C   UNL     1       4.276   0.283   0.838  0.00  0.00    +0.466 C 
ATOM     32  O   UNL     1       3.815  -0.077  -0.478  0.00  0.00    -0.453 OA
ENDBRANCH  23  24
ENDBRANCH  17  18
ENDBRANCH   1  17
TORSDOF 7
