REMARK  Name = ZINC67029570
REMARK  6 active torsions:
REMARK  status: ('A' for Active; 'I' for Inactive)
REMARK    1  A    between atoms: C_1  and  C_2
REMARK    2  A    between atoms: C_3  and  C_22
REMARK    3  A    between atoms: C_4  and  C_17
REMARK    4  A    between atoms: N_9  and  C_10
REMARK    5  A    between atoms: N_24  and  C_25
REMARK    6  A    between atoms: N_24  and  C_26
REMARK                            x       y       z     vdW  Elec       q    Type
REMARK                         _______ _______ _______ _____ _____    ______ ____
ROOT
ATOM      1  C   UNL     1      -0.227   1.222  -1.327  0.00  0.00    +0.062 C 
ATOM      2  C   UNL     1      -0.140  -0.083  -0.577  0.00  0.00    +0.025 C 
ATOM      3  C   UNL     1      -1.203  -0.915  -0.569  0.00  0.00    +0.058 C 
ATOM      4  C   UNL     1      -1.073  -2.217   0.196  0.00  0.00    +0.160 C 
ATOM      5  N   UNL     1       0.211  -2.469   0.872  0.00  0.00    -0.313 N 
ATOM      6  C   UNL     1       1.182  -1.539   0.772  0.00  0.00    +0.142 C 
ATOM      7  S   UNL     1       2.680  -1.819   1.553  0.00  0.00    -0.018 S 
ATOM      8  N   UNL     1       1.015  -0.406   0.078  0.00  0.00    -0.255 N 
ATOM      9  H   UNL     1       0.355  -3.284   1.378  0.00  0.00    +0.149 HD
ENDROOT
BRANCH   8  10
ATOM     10  C   UNL     1       2.082   0.500   0.024  0.00  0.00    +0.041 A 
ATOM     11  C   UNL     1       2.186   1.508   0.974  0.00  0.00    +0.024 A 
ATOM     12  C   UNL     1       3.239   2.401   0.919  0.00  0.00    +0.003 A 
ATOM     13  C   UNL     1       4.189   2.291  -0.080  0.00  0.00    +0.020 A 
ATOM     14  C   UNL     1       4.088   1.288  -1.028  0.00  0.00    +0.043 A 
ATOM     15  C   UNL     1       3.039   0.388  -0.975  0.00  0.00    +0.043 A 
ATOM     16 CL   UNL     1       5.282   1.155  -2.281  0.00  0.00    -0.083 Cl
ENDBRANCH   8  10
BRANCH   4  17
ATOM     17  C   UNL     1      -2.160  -2.254   1.238  0.00  0.00    +0.097 A 
ATOM     18  C   UNL     1      -3.056  -3.271   1.322  0.00  0.00    +0.094 A 
ATOM     19  S   UNL     1      -4.002  -2.797   2.626  0.00  0.00    +0.028 S 
ATOM     20  N   UNL     1      -3.267  -1.403   2.994  0.00  0.00    -0.110 NA
ATOM     21  N   UNL     1      -2.310  -1.305   2.139  0.00  0.00    -0.144 NA
ENDBRANCH   4  17
BRANCH   3  22
ATOM     22  C   UNL     1      -2.399  -0.583  -1.251  0.00  0.00    +0.246 C 
ATOM     23  O   UNL     1      -3.336  -0.105  -0.639  0.00  0.00    -0.270 OA
ATOM     24  N   UNL     1      -2.499  -0.797  -2.578  0.00  0.00    -0.304 N 
ATOM     25  C   UNL     1      -3.692  -0.352  -3.304  0.00  0.00    +0.132 C 
ATOM     26  C   UNL     1      -1.416  -1.475  -3.295  0.00  0.00    +0.132 C 
ENDBRANCH   3  22
TORSDOF 3
