REMARK  Name = ZINC14170256
REMARK  4 active torsions:
REMARK  status: ('A' for Active; 'I' for Inactive)
REMARK    1  A    between atoms: C_4  and  C_7
REMARK    2  A    between atoms: C_7  and  N_8
REMARK    3  A    between atoms: C_10  and  C_13
REMARK    4  A    between atoms: C_14  and  C_15
REMARK                            x       y       z     vdW  Elec       q    Type
REMARK                         _______ _______ _______ _____ _____    ______ ____
ROOT
ATOM      1  C   UNL     1       4.055   2.893   4.019  0.00  0.00    +0.036 C 
ATOM      2  C   UNL     1       3.380   2.014   3.249  0.00  0.00    +0.070 C 
ENDROOT
BRANCH   2   3
ATOM      3  C   UNL     1       2.833   2.438   1.962  0.00  0.00    +0.244 C 
ATOM      4  O   UNL     1       2.899   3.607   1.628  0.00  0.00    -0.270 OA
ATOM      5  N   UNL     1       2.254   1.536   1.145  0.00  0.00    -0.268 N 
ATOM      6  C   UNL     1       2.288   0.104   1.470  0.00  0.00    +0.114 C 
ATOM      7  C   UNL     1       2.649  -0.660   0.190  0.00  0.00    +0.024 C 
ATOM      8  C   UNL     1       1.546  -0.440  -0.845  0.00  0.00    +0.038 C 
ATOM      9  C   UNL     1       1.260   1.030  -1.007  0.00  0.00    -0.026 A 
ATOM     10  C   UNL     1       1.612   1.948  -0.030  0.00  0.00    +0.040 A 
ATOM     11  C   UNL     1       1.329   3.297  -0.209  0.00  0.00    +0.024 A 
ATOM     12  C   UNL     1       0.700   3.724  -1.362  0.00  0.00    +0.002 A 
ATOM     13  C   UNL     1       0.352   2.808  -2.337  0.00  0.00    +0.000 A 
ATOM     14  C   UNL     1       0.630   1.466  -2.160  0.00  0.00    +0.005 A 
ENDBRANCH   2   3
BRANCH   1  17
ATOM     15  N   UNL     1       5.628   2.479   7.247  0.00  0.00    -0.247 N 
ATOM     16  C   UNL     1       5.312   3.259   6.192  0.00  0.00    +0.138 A 
ATOM     17  C   UNL     1       4.606   2.466   5.313  0.00  0.00    +0.106 A 
ATOM     18  N   UNL     1       4.502   1.236   5.847  0.00  0.00    -0.130 NA
ATOM     19  N   UNL     1       5.099   1.207   6.986  0.00  0.00    -0.065 NA
BRANCH  15  20
ATOM     20  C   UNL     1       6.380   2.884   8.438  0.00  0.00    +0.180 C 
BRANCH  20  24
ATOM     21  C   UNL     1       4.088   2.010  11.935  0.00  0.00    +0.000 A 
ATOM     22  C   UNL     1       4.957   1.064  11.424  0.00  0.00    +0.000 A 
ATOM     23  C   UNL     1       5.698   1.347  10.292  0.00  0.00    +0.005 A 
ATOM     24  C   UNL     1       5.571   2.575   9.671  0.00  0.00    -0.026 A 
ATOM     25  C   UNL     1       4.706   3.523  10.186  0.00  0.00    +0.005 A 
ATOM     26  C   UNL     1       3.960   3.238  11.314  0.00  0.00    +0.000 A 
ENDBRANCH  20  24
ENDBRANCH  15  20
ENDBRANCH   1  17
TORSDOF 4
