REMARK  Name = ZINC56098238
REMARK  8 active torsions:
REMARK  status: ('A' for Active; 'I' for Inactive)
REMARK    1  A    between atoms: C_1  and  N_2
REMARK    2  A    between atoms: C_11  and  C_13
REMARK    3  A    between atoms: N_15  and  C_16
REMARK    4  A    between atoms: C_16  and  C_17
REMARK    5  A    between atoms: C_17  and  C_19
REMARK    6  A    between atoms: C_17  and  N_26
REMARK    7  A    between atoms: N_26  and  C_27
REMARK    8  A    between atoms: N_26  and  C_28
REMARK                            x       y       z     vdW  Elec       q    Type
REMARK                         _______ _______ _______ _____ _____    ______ ____
ROOT
ATOM      1  C   UNL     1       0.078  -2.104   4.926  0.00  0.00    +0.244 C 
ATOM      2  O   UNL     1      -0.307  -3.232   4.684  0.00  0.00    -0.270 OA
ATOM      3  N   UNL     1       0.613  -1.818   6.129  0.00  0.00    -0.313 N 
ATOM      4  H   UNL     1       0.920  -0.918   6.321  0.00  0.00    +0.149 HD
ENDROOT
BRANCH   1  15
ATOM      5  C   UNL     1      -0.547   3.329   1.352  0.00  0.00    +0.130 C 
ATOM      6  N   UNL     1      -0.370   1.919   0.996  0.00  0.00    -0.323 N 
ATOM      7  C   UNL     1      -0.301   1.494  -0.410  0.00  0.00    +0.200 C 
ATOM      8  C   UNL     1      -1.110   0.234  -0.584  0.00  0.00    +0.235 C 
ATOM      9  O   UNL     1      -1.631  -0.002  -1.653  0.00  0.00    -0.274 OA
ATOM     10  N   UNL     1      -1.261  -0.633   0.436  0.00  0.00    -0.283 N 
ATOM     11  C   UNL     1      -0.709  -0.357   1.694  0.00  0.00    +0.055 A 
ATOM     12  C   UNL     1      -0.255   0.937   1.982  0.00  0.00    +0.051 A 
ATOM     13  C   UNL     1       0.294   1.232   3.221  0.00  0.00    +0.026 A 
ATOM     14  C   UNL     1       0.402   0.246   4.178  0.00  0.00    +0.015 A 
ATOM     15  C   UNL     1      -0.041  -1.050   3.901  0.00  0.00    +0.039 A 
ATOM     16  C   UNL     1      -0.606  -1.348   2.649  0.00  0.00    +0.038 A 
ATOM     17  H   UNL     1      -1.756  -1.455   0.298  0.00  0.00    +0.155 HD
ENDBRANCH   1  15
BRANCH   3  18
ATOM     18  C   UNL     1       0.731  -2.865   7.146  0.00  0.00    +0.094 C 
BRANCH  18  19
ATOM     19  C   UNL     1       1.481  -2.314   8.361  0.00  0.00    -0.021 C 
BRANCH  19  20
ATOM     20  C   UNL     1       2.898  -1.984   7.968  0.00  0.00    -0.059 A 
ATOM     21  C   UNL     1       3.842  -2.990   7.877  0.00  0.00    +0.005 A 
ATOM     22  C   UNL     1       5.142  -2.688   7.516  0.00  0.00    +0.038 A 
ATOM     23  C   UNL     1       5.498  -1.378   7.246  0.00  0.00    +0.123 A 
ATOM     24  C   UNL     1       4.552  -0.371   7.337  0.00  0.00    +0.038 A 
ATOM     25  C   UNL     1       3.252  -0.676   7.693  0.00  0.00    +0.005 A 
ATOM     26  F   UNL     1       6.768  -1.082   6.894  0.00  0.00    -0.205 F 
ENDBRANCH  19  20
BRANCH  19  27
ATOM     27  N   UNL     1       1.492  -3.323   9.428  0.00  0.00    +0.382 N 
ATOM     28  C   UNL     1       2.256  -2.814  10.575  0.00  0.00    -0.096 C 
ATOM     29  C   UNL     1       0.113  -3.608   9.846  0.00  0.00    -0.096 C 
ATOM     30  H   UNL     1       1.922  -4.170   9.087  0.00  0.00    -0.082 HD
ENDBRANCH  19  27
ENDBRANCH  18  19
ENDBRANCH   3  18
TORSDOF 5
