REMARK  Name = ZINC08273034
REMARK  3 active torsions:
REMARK  status: ('A' for Active; 'I' for Inactive)
REMARK    1  A    between atoms: C_1  and  C_2
REMARK    2  A    between atoms: N_10  and  C_14
REMARK    3  A    between atoms: C_14  and  C_15
REMARK                            x       y       z     vdW  Elec       q    Type
REMARK                         _______ _______ _______ _____ _____    ______ ____
ROOT
ATOM      1  C   UNL     1      -0.638  -8.722  -3.271  0.00  0.00    +0.007 C 
ATOM      2  C   UNL     1      -1.140  -7.503  -4.048  0.00  0.00    -0.014 C 
ATOM      3  C   UNL     1       0.004  -6.500  -4.216  0.00  0.00    +0.006 C 
ATOM      4  C   UNL     1      -0.496  -5.286  -5.003  0.00  0.00    +0.035 C 
ATOM      5  C   UNL     1      -1.657  -4.638  -4.255  0.00  0.00    +0.113 C 
ATOM      6  C   UNL     1      -2.796  -5.633  -4.061  0.00  0.00    +0.035 C 
ATOM      7  C   UNL     1      -2.288  -6.846  -3.279  0.00  0.00    +0.006 C 
ATOM      8  C   UNL     1      -1.191  -4.104  -2.920  0.00  0.00    +0.247 C 
ATOM      9  O   UNL     1      -0.719  -4.737  -2.001  0.00  0.00    -0.273 OA
ATOM     10  N   UNL     1      -1.411  -2.774  -2.968  0.00  0.00    -0.215 N 
ATOM     11  C   UNL     1      -1.951  -2.405  -4.136  0.00  0.00    +0.310 C 
ATOM     12  O   UNL     1      -2.245  -1.258  -4.413  0.00  0.00    -0.252 OA
ATOM     13  N   UNL     1      -2.130  -3.446  -4.971  0.00  0.00    -0.285 N 
ATOM     14  H   UNL     1      -2.501  -3.416  -5.867  0.00  0.00    +0.151 HD
ENDROOT
BRANCH  10  15
ATOM     15  C   UNL     1      -1.103  -1.849  -1.874  0.00  0.00    +0.213 C 
BRANCH  15  16
ATOM     16  C   UNL     1       0.305  -1.335  -2.033  0.00  0.00    +0.234 C 
ATOM     17  O   UNL     1       0.984  -1.705  -2.967  0.00  0.00    -0.274 OA
ATOM     18  N   UNL     1       0.809  -0.464  -1.136  0.00  0.00    -0.297 N 
ATOM     19  C   UNL     1       0.002  -0.004   0.002  0.00  0.00    +0.108 C 
ATOM     20  C   UNL     1      -0.019   1.527   0.010  0.00  0.00    +0.019 C 
ATOM     21  C   UNL     1       1.418   2.056  -0.000  0.00  0.00    +0.007 C 
ATOM     22  C   UNL     1       2.126   1.579  -1.269  0.00  0.00    +0.010 C 
ATOM     23  C   UNL     1       2.182   0.049  -1.274  0.00  0.00    +0.079 C 
ATOM     24  C   UNL     1       3.008  -0.437  -0.081  0.00  0.00    +0.023 C 
ATOM     25  C   UNL     1       4.423   0.137  -0.164  0.00  0.00    +0.002 C 
ATOM     26  C   UNL     1       4.352   1.666  -0.134  0.00  0.00    +0.000 C 
ATOM     27  C   UNL     1       3.537   2.157  -1.331  0.00  0.00    +0.005 C 
ENDBRANCH  15  16
ENDBRANCH  10  15
TORSDOF 2
