REMARK  Name = ZINC63354588
REMARK  5 active torsions:
REMARK  status: ('A' for Active; 'I' for Inactive)
REMARK    1  A    between atoms: C_4  and  C_7
REMARK    2  A    between atoms: C_7  and  N_8
REMARK    3  A    between atoms: C_16  and  O_40
REMARK    4  A    between atoms: C_17  and  C_21
REMARK    5  A    between atoms: C_27  and  C_30
REMARK                            x       y       z     vdW  Elec       q    Type
REMARK                         _______ _______ _______ _____ _____    ______ ____
ROOT
ATOM      1  N   UNL     1       4.775  -1.668   1.154  0.00  0.00    -0.289 N 
ATOM      2  C   UNL     1       5.011  -0.318   1.676  0.00  0.00    +0.106 C 
ATOM      3  C   UNL     1       5.282   0.689   0.591  0.00  0.00    +0.027 C 
ATOM      4  C   UNL     1       4.109   1.643   0.379  0.00  0.00    +0.002 C 
ATOM      5  C   UNL     1       3.811   2.334   1.718  0.00  0.00    +0.005 C 
ATOM      6  C   UNL     1       3.147   1.304   2.632  0.00  0.00    +0.036 C 
ATOM      7  C   UNL     1       3.933   0.041   2.645  0.00  0.00    -0.011 C 
ATOM      8  C   UNL     1       3.628  -0.869   3.575  0.00  0.00    +0.116 C 
ATOM      9  C   UNL     1       4.395  -2.175   3.525  0.00  0.00    +0.226 C 
ATOM     10  C   UNL     1       4.454  -2.621   2.076  0.00  0.00    +0.236 C 
ATOM     11  O   UNL     1       4.229  -3.768   1.754  0.00  0.00    -0.274 OA
ENDROOT
BRANCH   9  12
ATOM     12  C   UNL     1       3.683  -3.216   4.350  0.00  0.00    +0.238 C 
ATOM     13  O   UNL     1       2.565  -3.574   4.042  0.00  0.00    -0.274 OA
ATOM     14  N   UNL     1       4.288  -3.751   5.430  0.00  0.00    -0.264 N 
ATOM     15  C   UNL     1       3.631  -4.711   6.190  0.00  0.00    +0.165 A 
ATOM     16  N   UNL     1       4.058  -5.332   7.268  0.00  0.00    -0.229 NA
ATOM     17  H   UNL     1       5.181  -3.465   5.676  0.00  0.00    +0.157 HD
ATOM     18  C   UNL     1       3.307  -6.228   7.882  0.00  0.00    +0.057 A 
ATOM     19  C   UNL     1       2.084  -6.474   7.352  0.00  0.00    +0.072 A 
ATOM     20  S   UNL     1       2.093  -5.356   5.960  0.00  0.00    -0.060 S 
BRANCH  18  21
ATOM     21  C   UNL     1       3.788  -6.945   9.117  0.00  0.00    +0.014 C 
ATOM     22  C   UNL     1       3.472  -8.437   8.996  0.00  0.00    +0.016 C 
ATOM     23  C   UNL     1       3.960  -9.165  10.250  0.00  0.00    -0.010 C 
ATOM     24  C   UNL     1       5.471  -8.974  10.395  0.00  0.00    +0.007 C 
ATOM     25  C   UNL     1       5.788  -7.482  10.515  0.00  0.00    -0.010 C 
ATOM     26  C   UNL     1       5.299  -6.754   9.262  0.00  0.00    +0.016 C 
ATOM     27  C   UNL     1       5.081  -6.909  11.746  0.00  0.00    +0.007 C 
ATOM     28  C   UNL     1       3.570  -7.100  11.601  0.00  0.00    -0.010 C 
ATOM     29  C   UNL     1       3.254  -8.592  11.481  0.00  0.00    +0.007 C 
ATOM     30  C   UNL     1       3.082  -6.372  10.347  0.00  0.00    +0.016 C 
ENDBRANCH  18  21
ENDBRANCH   9  12
BRANCH   8  31
ATOM     31  O   UNL     1       2.680  -0.634   4.517  0.00  0.00    -0.510 OA
ATOM     32  H   UNL     1       2.538  -1.373   5.125  0.00  0.00    +0.292 HD
ENDBRANCH   8  31
BRANCH   1  33
ATOM     33  C   UNL     1       4.874  -1.974  -0.276  0.00  0.00    +0.143 C 
BRANCH  33  37
ATOM     34  C   UNL     1       8.846  -3.252  -1.190  0.00  0.00    +0.000 A 
ATOM     35  C   UNL     1       7.889  -4.179  -0.820  0.00  0.00    +0.000 A 
ATOM     36  C   UNL     1       6.604  -3.765  -0.524  0.00  0.00    +0.005 A 
ATOM     37  C   UNL     1       6.275  -2.425  -0.598  0.00  0.00    -0.030 A 
ATOM     38  C   UNL     1       7.231  -1.498  -0.967  0.00  0.00    +0.005 A 
ATOM     39  C   UNL     1       8.517  -1.911  -1.265  0.00  0.00    +0.000 A 
ENDBRANCH  33  37
ENDBRANCH   1  33
TORSDOF 5
