REMARK  Name = ZINC11880546
REMARK  12 active torsions:
REMARK  status: ('A' for Active; 'I' for Inactive)
REMARK    1  A    between atoms: C_1  and  C_2
REMARK    2  A    between atoms: C_10  and  C_11
REMARK    3  A    between atoms: N_13  and  C_14
REMARK    4  A    between atoms: C_14  and  C_15
REMARK    5  A    between atoms: C_15  and  C_16
REMARK    6  A    between atoms: C_15  and  C_17
REMARK    7  A    between atoms: C_15  and  C_18
REMARK    8  A    between atoms: C_18  and  N_61
REMARK    9  A    between atoms: C_19  and  N_61
REMARK   10  A    between atoms: C_20  and  N_61
REMARK   11  A    between atoms: N_21  and  C_22
REMARK   12  A    between atoms: C_22  and  C_23
REMARK                            x       y       z     vdW  Elec       q    Type
REMARK                         _______ _______ _______ _____ _____    ______ ____
ROOT
ATOM      1  C   UNL     1      -3.198  -2.575  -0.924  0.00  0.00    +0.046 C 
ATOM      2  C   UNL     1      -2.149  -1.500  -0.798  0.00  0.00    -0.019 A 
ATOM      3  C   UNL     1      -2.514  -0.203  -0.416  0.00  0.00    +0.051 A 
ATOM      4  C   UNL     1      -3.806   0.315  -0.097  0.00  0.00    +0.130 A 
ATOM      5  N   UNL     1      -3.925   1.588   0.240  0.00  0.00    -0.220 NA
ATOM      6  C   UNL     1      -2.886   2.402   0.300  0.00  0.00    +0.224 A 
ATOM      7  N   UNL     1      -1.666   1.984   0.021  0.00  0.00    -0.228 NA
ATOM      8  C   UNL     1      -1.454   0.732  -0.328  0.00  0.00    +0.114 A 
ATOM      9  S   UNL     1      -0.028  -0.226  -0.773  0.00  0.00    -0.064 S 
ATOM     10  C   UNL     1      -0.843  -1.788  -1.055  0.00  0.00    +0.079 A 
ATOM     11  N   UNL     1      -4.917  -0.503  -0.142  0.00  0.00    -0.328 N 
ATOM     12  H   UNL     1      -4.815  -1.450  -0.326  0.00  0.00    +0.147 HD
ENDROOT
BRANCH  10  13
ATOM     13  C   UNL     1      -0.252  -3.068  -1.464  0.00  0.00    +0.251 C 
ATOM     14  O   UNL     1      -0.971  -4.014  -1.728  0.00  0.00    -0.270 OA
ATOM     15  N   UNL     1       1.087  -3.196  -1.548  0.00  0.00    -0.310 N 
ATOM     16  H   UNL     1       1.660  -2.442  -1.337  0.00  0.00    +0.149 HD
BRANCH  15  17
ATOM     17  C   UNL     1       1.677  -4.473  -1.956  0.00  0.00    +0.109 C 
BRANCH  17  18
ATOM     18  C   UNL     1       3.202  -4.350  -1.969  0.00  0.00    -0.034 C 
ATOM     19  C   UNL     1       3.617  -3.257  -2.957  0.00  0.00    +0.010 C 
ATOM     20  C   UNL     1       3.696  -3.984  -0.568  0.00  0.00    +0.010 C 
BRANCH  18  21
ATOM     21  C   UNL     1       3.818  -5.684  -2.395  0.00  0.00    -0.072 C 
BRANCH  21  24
ATOM     22  C   UNL     1       4.027  -5.456  -4.797  0.00  0.00    -0.097 C 
ATOM     23  C   UNL     1       3.253  -7.542  -3.841  0.00  0.00    -0.097 C 
ATOM     24  N   UNL     1       3.246  -6.070  -3.702  0.00  0.00    +0.376 N 
ATOM     25  H   UNL     1       2.277  -5.735  -3.755  0.00  0.00    -0.083 HD
ENDBRANCH  21  24
ENDBRANCH  18  21
ENDBRANCH  17  18
ENDBRANCH  15  17
ENDBRANCH  10  13
BRANCH  11  26
ATOM     26  C   UNL     1      -6.250   0.060   0.086  0.00  0.00    +0.108 C 
BRANCH  26  27
ATOM     27  C   UNL     1      -7.297  -1.051  -0.019  0.00  0.00    +0.029 C 
ATOM     28  C   UNL     1      -7.090  -2.058   1.124  0.00  0.00    +0.029 C 
ATOM     29  C   UNL     1      -8.335  -2.988   1.182  0.00  0.00    +0.166 C 
ATOM     30  S   UNL     1      -9.682  -1.764   0.894  0.00  0.00    -0.031 S 
ATOM     31  O   UNL     1     -10.151  -1.289   2.148  0.00  0.00    -0.174 OA
ATOM     32  O   UNL     1     -10.606  -2.305  -0.040  0.00  0.00    -0.174 OA
ATOM     33  C   UNL     1      -8.713  -0.432   0.075  0.00  0.00    +0.171 C 
ENDBRANCH  26  27
ENDBRANCH  11  26
TORSDOF 7
