REMARK  Name = ZINC20439022
REMARK  15 active torsions:
REMARK  status: ('A' for Active; 'I' for Inactive)
REMARK    1  A    between atoms: C_1  and  C_2
REMARK    2  A    between atoms: C_2  and  N_3
REMARK    3  A    between atoms: C_5  and  C_12
REMARK    4  A    between atoms: C_13  and  C_14
REMARK    5  A    between atoms: C_13  and  N_29
REMARK    6  A    between atoms: N_16  and  C_17
REMARK    7  A    between atoms: C_17  and  C_18
REMARK    8  A    between atoms: C_18  and  C_19
REMARK    9  A    between atoms: C_22  and  O_27
REMARK   10  A    between atoms: C_23  and  O_25
REMARK   11  A    between atoms: O_25  and  C_26
REMARK   12  A    between atoms: O_27  and  C_28
REMARK   13  A    between atoms: C_30  and  C_32
REMARK   14  A    between atoms: C_37  and  O_38
REMARK   15  A    between atoms: O_38  and  C_39
REMARK                            x       y       z     vdW  Elec       q    Type
REMARK                         _______ _______ _______ _____ _____    ______ ____
ROOT
ATOM      1  C   UNL     1      -3.022   4.923   0.054  0.00  0.00    +0.038 C 
ATOM      2  C   UNL     1      -4.331   5.227   0.252  0.00  0.00    +0.097 C 
ENDROOT
BRANCH   1   5
ATOM      3  N   UNL     1      -2.714   1.405  -0.859  0.00  0.00    -0.346 N 
ATOM      4  C   UNL     1      -3.442   2.539  -0.685  0.00  0.00    +0.094 A 
ATOM      5  C   UNL     1      -2.628   3.546  -0.250  0.00  0.00    +0.002 A 
ATOM      6  C   UNL     1      -1.270   2.977  -0.163  0.00  0.00    +0.007 A 
ATOM      7  C   UNL     1      -1.388   1.634  -0.555  0.00  0.00    +0.050 A 
ATOM      8  C   UNL     1      -0.256   0.825  -0.568  0.00  0.00    +0.026 A 
ATOM      9  C   UNL     1       0.967   1.348  -0.208  0.00  0.00    +0.002 A 
ATOM     10  C   UNL     1       1.083   2.677   0.173  0.00  0.00    +0.001 A 
ATOM     11  C   UNL     1      -0.027   3.492   0.198  0.00  0.00    +0.010 A 
BRANCH   3  13
ATOM     12  C   UNL     1      -3.493  -0.784  -0.096  0.00  0.00    +0.027 C 
ATOM     13  C   UNL     1      -3.260   0.122  -1.307  0.00  0.00    +0.118 C 
ENDBRANCH   3  13
ENDBRANCH   1   5
BRANCH   2  14
ATOM     14  C   UNL     1      -4.743   6.623   0.408  0.00  0.00    +0.258 C 
ATOM     15  O   UNL     1      -5.917   6.894   0.585  0.00  0.00    -0.269 OA
ATOM     16  N   UNL     1      -3.824   7.607   0.356  0.00  0.00    -0.310 N 
ATOM     17  H   UNL     1      -2.764   7.361   0.196  0.00  0.00    +0.149 HD
BRANCH  16  18
ATOM     18  C   UNL     1      -4.236   9.004   0.512  0.00  0.00    +0.109 C 
BRANCH  18  19
ATOM     19  C   UNL     1      -3.009   9.912   0.413  0.00  0.00    +0.054 C 
BRANCH  19  20
ATOM     20  C   UNL     1      -3.434  11.349   0.575  0.00  0.00    -0.042 A 
ATOM     21  C   UNL     1      -3.781  12.094  -0.537  0.00  0.00    +0.007 A 
ATOM     22  C   UNL     1      -4.177  13.411  -0.394  0.00  0.00    +0.049 A 
ATOM     23  C   UNL     1      -4.215  13.990   0.864  0.00  0.00    +0.161 A 
ATOM     24  C   UNL     1      -3.859  13.242   1.982  0.00  0.00    +0.162 A 
ATOM     25  C   UNL     1      -3.469  11.921   1.833  0.00  0.00    +0.053 A 
BRANCH  24  26
ATOM     26  O   UNL     1      -3.895  13.806   3.219  0.00  0.00    -0.491 OA
ATOM     27  C   UNL     1      -3.517  12.978   4.321  0.00  0.00    +0.277 C 
ENDBRANCH  24  26
BRANCH  23  28
ATOM     28  O   UNL     1      -4.598  15.287   1.006  0.00  0.00    -0.491 OA
ATOM     29  C   UNL     1      -4.949  15.994  -0.185  0.00  0.00    +0.277 C 
ENDBRANCH  23  28
ENDBRANCH  19  20
ENDBRANCH  18  19
ENDBRANCH  16  18
ENDBRANCH   2  14
BRANCH   2  30
ATOM     30  N   UNL     1      -5.287   4.203   0.306  0.00  0.00    -0.277 N 
ATOM     31  C   UNL     1      -6.289   4.168  -0.595  0.00  0.00    +0.252 C 
ATOM     32  O   UNL     1      -6.316   4.974  -1.506  0.00  0.00    -0.270 OA
ATOM     33  H   UNL     1      -5.221   3.428   1.084  0.00  0.00    +0.155 HD
BRANCH  31  34
ATOM     34  C   UNL     1      -7.352   3.152  -0.477  0.00  0.00    +0.079 A 
ATOM     35  C   UNL     1      -7.390   2.299   0.629  0.00  0.00    +0.017 A 
ATOM     36  C   UNL     1      -8.388   1.356   0.735  0.00  0.00    +0.001 A 
ATOM     37  C   UNL     1      -9.350   1.241  -0.255  0.00  0.00    +0.004 A 
ATOM     38  C   UNL     1      -9.322   2.074  -1.356  0.00  0.00    +0.046 A 
ATOM     39  C   UNL     1      -8.327   3.033  -1.477  0.00  0.00    +0.132 A 
BRANCH  39  40
ATOM     40  O   UNL     1      -8.298   3.851  -2.559  0.00  0.00    -0.494 OA
ATOM     41  C   UNL     1      -9.384   3.747  -3.481  0.00  0.00    +0.277 C 
ENDBRANCH  39  40
ENDBRANCH  31  34
ENDBRANCH   2  30
TORSDOF 11
