REMARK  Name = ZINC00709678
REMARK  10 active torsions:
REMARK  status: ('A' for Active; 'I' for Inactive)
REMARK    1  A    between atoms: C_1  and  C_2
REMARK    2  A    between atoms: C_2  and  C_3
REMARK    3  A    between atoms: C_2  and  C_4
REMARK    4  A    between atoms: C_2  and  C_5
REMARK    5  A    between atoms: C_12  and  N_28
REMARK    6  A    between atoms: C_13  and  C_26
REMARK    7  A    between atoms: C_14  and  C_16
REMARK    8  A    between atoms: C_19  and  C_22
REMARK    9  A    between atoms: C_22  and  O_24
REMARK   10  A    between atoms: O_24  and  C_25
REMARK                            x       y       z     vdW  Elec       q    Type
REMARK                         _______ _______ _______ _____ _____    ______ ____
ROOT
ATOM      1  C   UNL     1       1.421  -0.951  -1.969  0.00  0.00    +0.076 A 
ATOM      2  C   UNL     1       1.052  -2.275  -2.163  0.00  0.00    +0.050 A 
ATOM      3  C   UNL     1       1.435  -2.641  -3.424  0.00  0.00    +0.222 A 
ATOM      4  N   UNL     1       2.026  -1.579  -3.993  0.00  0.00    -0.246 N 
ATOM      5  H   UNL     1       2.399  -1.544  -4.888  0.00  0.00    +0.192 HD
ATOM      6  N   UNL     1       2.001  -0.525  -3.066  0.00  0.00    -0.175 NA
ATOM      7  O   UNL     1       1.214  -3.882  -3.925  0.00  0.00    -0.423 OA
ATOM      8  C   UNL     1       0.358  -4.682  -3.256  0.00  0.00    +0.200 C 
ATOM      9  C   UNL     1      -0.082  -4.432  -2.003  0.00  0.00    +0.098 C 
ATOM     10  C   UNL     1       0.352  -3.219  -1.220  0.00  0.00    +0.101 C 
ENDROOT
BRANCH  10  11
ATOM     11  C   UNL     1       1.298  -3.634  -0.122  0.00  0.00    -0.035 A 
ATOM     12  C   UNL     1       2.630  -3.873  -0.414  0.00  0.00    +0.005 A 
ATOM     13  C   UNL     1       3.501  -4.253   0.585  0.00  0.00    +0.015 A 
ATOM     14  C   UNL     1       3.037  -4.396   1.894  0.00  0.00    +0.059 A 
ATOM     15  C   UNL     1       1.692  -4.154   2.182  0.00  0.00    +0.015 A 
ATOM     16  C   UNL     1       0.833  -3.769   1.174  0.00  0.00    +0.005 A 
BRANCH  14  17
ATOM     17  C   UNL     1       3.964  -4.804   2.970  0.00  0.00    +0.339 C 
ATOM     18  O   UNL     1       5.133  -5.015   2.716  0.00  0.00    -0.245 OA
BRANCH  17  19
ATOM     19  O   UNL     1       3.513  -4.941   4.231  0.00  0.00    -0.464 OA
ATOM     20  C   UNL     1       4.465  -5.338   5.221  0.00  0.00    +0.280 C 
ENDBRANCH  17  19
ENDBRANCH  14  17
ENDBRANCH  10  11
BRANCH   1  22
ATOM     21  C   UNL     1       1.607   1.309  -0.966  0.00  0.00    +0.017 C 
ATOM     22  C   UNL     1       1.190  -0.142  -0.719  0.00  0.00    +0.007 C 
ATOM     23  C   UNL     1       2.023  -0.723   0.426  0.00  0.00    +0.017 C 
ATOM     24  C   UNL     1      -0.293  -0.191  -0.347  0.00  0.00    +0.017 C 
ENDBRANCH   1  22
BRANCH   8  25
ATOM     25  N   UNL     1      -0.092  -5.816  -3.885  0.00  0.00    -0.328 N 
ATOM     26  H   UNL     1       0.206  -6.022  -4.785  0.00  0.00    +0.145 HD
ATOM     27  H   UNL     1      -0.708  -6.411  -3.430  0.00  0.00    +0.145 HD
ENDBRANCH   8  25
BRANCH   9  28
ATOM     28  C   UNL     1      -0.995  -5.354  -1.397  0.00  0.00    +0.101 C 
ATOM     29  N   UNL     1      -1.720  -6.085  -0.916  0.00  0.00    -0.191 NA
ENDBRANCH   9  28
TORSDOF 6
