REMARK  Name = ZINC20609520
REMARK  8 active torsions:
REMARK  status: ('A' for Active; 'I' for Inactive)
REMARK    1  A    between atoms: C_1  and  C_2
REMARK    2  A    between atoms: C_2  and  O_3
REMARK    3  A    between atoms: O_3  and  C_4
REMARK    4  A    between atoms: C_4  and  C_6
REMARK    5  A    between atoms: C_10  and  C_11
REMARK    6  A    between atoms: C_14  and  O_17
REMARK    7  A    between atoms: C_27  and  C_29
REMARK    8  A    between atoms: C_32  and  O_35
REMARK                            x       y       z     vdW  Elec       q    Type
REMARK                         _______ _______ _______ _____ _____    ______ ____
ROOT
ATOM      1  C   UNL     1      -2.581   1.097  -0.802  0.00  0.00    +0.110 C 
ATOM      2  C   UNL     1      -2.391  -0.260  -0.708  0.00  0.00    +0.224 A 
ATOM      3  N   UNL     1      -1.192  -0.780  -0.326  0.00  0.00    -0.242 N 
ATOM      4  C   UNL     1      -1.318  -2.181  -0.328  0.00  0.00    +0.138 A 
ATOM      5  C   UNL     1      -0.362  -3.093  -0.011  0.00  0.00    +0.041 C 
ATOM      6  C   UNL     1      -2.699  -2.450  -0.744  0.00  0.00    +0.363 A 
ATOM      7  O   UNL     1      -3.220  -3.542  -0.875  0.00  0.00    -0.243 OA
ATOM      8  O   UNL     1      -3.276  -1.252  -0.953  0.00  0.00    -0.403 OA
ATOM      9  C   UNL     1      -0.082   0.005  -0.006  0.00  0.00    +0.235 A 
ATOM     10  C   UNL     1      -0.129   1.349  -0.055  0.00  0.00    +0.119 A 
ATOM     11  N   UNL     1       1.076   1.826   0.303  0.00  0.00    -0.197 NA
ATOM     12  C   UNL     1       1.861   0.810   0.570  0.00  0.00    +0.287 A 
ATOM     13  O   UNL     1       1.170  -0.328   0.388  0.00  0.00    -0.408 OA
ATOM     14  N   UNL     1       3.181   0.896   0.975  0.00  0.00    -0.313 N 
ATOM     15  C   UNL     1      -1.423   2.012  -0.465  0.00  0.00    +0.115 C 
ATOM     16  H   UNL     1       3.756  -0.020   1.175  0.00  0.00    +0.147 HD
ATOM     17  H   UNL     1       3.657   1.881   1.095  0.00  0.00    +0.147 HD
ENDROOT
BRANCH   5  18
ATOM     18  C   UNL     1      -0.711  -4.515   0.096  0.00  0.00    -0.023 A 
ATOM     19  C   UNL     1      -1.903  -4.901   0.723  0.00  0.00    +0.011 A 
ATOM     20  C   UNL     1      -2.227  -6.235   0.817  0.00  0.00    +0.046 A 
ATOM     21  C   UNL     1      -1.370  -7.199   0.300  0.00  0.00    +0.117 A 
ATOM     22  C   UNL     1      -0.183  -6.822  -0.319  0.00  0.00    +0.046 A 
ATOM     23  C   UNL     1       0.149  -5.490  -0.422  0.00  0.00    +0.011 A 
BRANCH  21  24
ATOM     24  O   UNL     1      -1.692  -8.515   0.399  0.00  0.00    -0.507 OA
ATOM     25  H   UNL     1      -1.016  -9.279  -0.009  0.00  0.00    +0.292 HD
ENDBRANCH  21  24
ENDBRANCH   5  18
BRANCH  15  26
ATOM     26  C   UNL     1      -1.852   2.926   0.654  0.00  0.00    -0.033 A 
ATOM     27  C   UNL     1      -2.104   2.407   1.911  0.00  0.00    +0.008 A 
ATOM     28  C   UNL     1      -2.492   3.244   2.939  0.00  0.00    +0.046 A 
ATOM     29  C   UNL     1      -2.640   4.604   2.707  0.00  0.00    +0.117 A 
ATOM     30  C   UNL     1      -2.392   5.121   1.444  0.00  0.00    +0.046 A 
ATOM     31  C   UNL     1      -1.998   4.281   0.420  0.00  0.00    +0.008 A 
BRANCH  29  32
ATOM     32  O   UNL     1      -3.028   5.428   3.716  0.00  0.00    -0.507 OA
ATOM     33  H   UNL     1      -3.145   6.506   3.531  0.00  0.00    +0.292 HD
ENDBRANCH  29  32
ENDBRANCH  15  26
BRANCH   1  34
ATOM     34  C   UNL     1      -3.820   1.623  -1.196  0.00  0.00    +0.341 C 
ATOM     35  O   UNL     1      -3.972   2.829  -1.275  0.00  0.00    -0.245 OA
BRANCH  34  36
ATOM     36  O   UNL     1      -4.844   0.792  -1.488  0.00  0.00    -0.462 OA
BRANCH  36  38
ATOM     37  C   UNL     1      -7.111   0.305  -2.169  0.00  0.00    +0.048 C 
ATOM     38  C   UNL     1      -6.078   1.396  -1.882  0.00  0.00    +0.229 C 
ENDBRANCH  36  38
ENDBRANCH  34  36
ENDBRANCH   1  34
TORSDOF 7
