REMARK  Name = ZINC51396304
REMARK  2 active torsions:
REMARK  status: ('A' for Active; 'I' for Inactive)
REMARK    1  A    between atoms: C_13  and  C_19
REMARK    2  A    between atoms: C_19  and  N_20
REMARK                            x       y       z     vdW  Elec       q    Type
REMARK                         _______ _______ _______ _____ _____    ______ ____
ROOT
ATOM      1  C   UNL     1      -0.689   1.139   0.118  0.00  0.00    +0.120 A 
ATOM      2  C   UNL     1       0.457   1.860   0.073  0.00  0.00    +0.068 A 
ATOM      3  S   UNL     1       1.671   0.552   0.011  0.00  0.00    -0.061 S 
ATOM      4  C   UNL     1       0.609  -0.753   0.049  0.00  0.00    +0.161 A 
ATOM      5  N   UNL     1      -0.573  -0.177   0.104  0.00  0.00    -0.233 NA
ATOM      6  N   UNL     1       0.908  -2.107   0.027  0.00  0.00    -0.307 N 
ATOM      7  C   UNL     1       2.303  -2.564  -0.032  0.00  0.00    +0.126 C 
ATOM      8  C   UNL     1       2.557  -3.513   1.146  0.00  0.00    +0.125 C 
ATOM      9  N   UNL     1       1.484  -4.516   1.181  0.00  0.00    -0.312 N 
ATOM     10  C   UNL     1       0.088  -4.059   1.239  0.00  0.00    +0.125 C 
ATOM     11  C   UNL     1      -0.166  -3.110   0.067  0.00  0.00    +0.126 C 
ATOM     12  C   UNL     1       1.783  -5.874   1.159  0.00  0.00    +0.123 A 
ATOM     13  C   UNL     1       2.093  -6.531   2.346  0.00  0.00    -0.024 A 
ATOM     14  C   UNL     1       2.389  -7.881   2.310  0.00  0.00    +0.021 A 
ATOM     15  C   UNL     1       2.364  -8.533   1.083  0.00  0.00    +0.036 A 
ATOM     16  C   UNL     1       2.048  -7.818  -0.056  0.00  0.00    +0.128 A 
ATOM     17  N   UNL     1       1.765  -6.531   0.010  0.00  0.00    -0.239 NA
ATOM     18 BR   UNL     1       2.761 -10.379   0.973  0.00  0.00    -0.049 Br
ENDROOT
BRANCH  13  19
ATOM     19  C   UNL     1       2.107  -5.781   3.653  0.00  0.00    -0.047 C 
BRANCH  19  20
ATOM     20  N   UNL     1       0.731  -5.628   4.144  0.00  0.00    +0.381 N 
ATOM     21  H   UNL     1       0.166  -5.188   3.433  0.00  0.00    -0.090 HD
ATOM     22  H   UNL     1       0.349  -6.536   4.362  0.00  0.00    -0.090 HD
ATOM     23  H   UNL     1       0.732  -5.055   4.975  0.00  0.00    -0.090 HD
ENDBRANCH  19  20
ENDBRANCH  13  19
TORSDOF 2
