REMARK  Name = ZINC00692233
REMARK  3 active torsions:
REMARK  status: ('A' for Active; 'I' for Inactive)
REMARK    1  A    between atoms: C_6  and  C_7
REMARK    2  A    between atoms: C_20  and  N_24
REMARK    3  A    between atoms: C_21  and  C_22
REMARK                            x       y       z     vdW  Elec       q    Type
REMARK                         _______ _______ _______ _____ _____    ______ ____
ROOT
ATOM      1  C   UNL     1       1.302  -0.759  -0.014  0.00  0.00    +0.098 C 
ATOM      2  C   UNL     1       2.426   0.148  -0.439  0.00  0.00    +0.015 A 
ATOM      3  C   UNL     1       3.642  -0.413  -0.869  0.00  0.00    -0.010 A 
ATOM      4  C   UNL     1       3.824  -1.807  -0.906  0.00  0.00    +0.010 A 
ATOM      5  C   UNL     1       5.012  -2.320  -1.326  0.00  0.00    +0.016 A 
ATOM      6  C   UNL     1       6.055  -1.483  -1.722  0.00  0.00    +0.018 A 
ATOM      7  C   UNL     1       5.915  -0.129  -1.699  0.00  0.00    +0.023 A 
ATOM      8  C   UNL     1       4.701   0.436  -1.270  0.00  0.00    -0.016 A 
ATOM      9  C   UNL     1       4.518   1.830  -1.232  0.00  0.00    +0.012 A 
ATOM     10  C   UNL     1       3.333   2.341  -0.811  0.00  0.00    +0.047 A 
ATOM     11  C   UNL     1       2.280   1.504  -0.412  0.00  0.00    +0.135 A 
ATOM     12  O   UNL     1       1.118   2.070   0.003  0.00  0.00    -0.441 OA
ATOM     13  C   UNL     1      -0.016   1.351   0.009  0.00  0.00    +0.199 C 
ATOM     14  C   UNL     1       0.002  -0.004   0.002  0.00  0.00    +0.098 C 
ATOM     15 BR   UNL     1       7.689  -2.240  -2.299  0.00  0.00    -0.050 Br
ENDROOT
BRANCH   1  21
ATOM     16  C   UNL     1       1.722  -0.419   2.430  0.00  0.00    +0.007 A 
ATOM     17  C   UNL     1       1.977  -0.908   3.697  0.00  0.00    +0.038 A 
ATOM     18  C   UNL     1       2.108  -2.272   3.900  0.00  0.00    +0.123 A 
ATOM     19  C   UNL     1       1.977  -3.144   2.833  0.00  0.00    +0.038 A 
ATOM     20  C   UNL     1       1.716  -2.654   1.567  0.00  0.00    +0.007 A 
ATOM     21  C   UNL     1       1.586  -1.292   1.366  0.00  0.00    -0.034 A 
ATOM     22  F   UNL     1       2.364  -2.750   5.137  0.00  0.00    -0.205 F 
ENDBRANCH   1  21
BRANCH  13  23
ATOM     23  N   UNL     1      -1.224   2.004   0.019  0.00  0.00    -0.328 N 
ATOM     24  H   UNL     1      -2.050   1.496   0.020  0.00  0.00    +0.145 HD
ATOM     25  H   UNL     1      -1.250   2.974   0.024  0.00  0.00    +0.145 HD
ENDBRANCH  13  23
BRANCH  14  26
ATOM     26  C   UNL     1      -1.234  -0.727   0.010  0.00  0.00    +0.101 C 
ATOM     27  N   UNL     1      -2.215  -1.301   0.016  0.00  0.00    -0.191 NA
ENDBRANCH  14  26
TORSDOF 3
