REMARK  Name = ZINC14266227
REMARK  7 active torsions:
REMARK  status: ('A' for Active; 'I' for Inactive)
REMARK    1  A    between atoms: C_1  and  C_2
REMARK    2  A    between atoms: C_2  and  C_4
REMARK    3  A    between atoms: C_2  and  N_11
REMARK    4  A    between atoms: C_12  and  C_14
REMARK    5  A    between atoms: C_14  and  N_15
REMARK    6  A    between atoms: C_18  and  C_22
REMARK    7  A    between atoms: C_18  and  C_23
REMARK                            x       y       z     vdW  Elec       q    Type
REMARK                         _______ _______ _______ _____ _____    ______ ____
ROOT
ATOM      1  N   UNL     1       2.494   4.164   0.001  0.00  0.00    -0.215 N 
ATOM      2  C   UNL     1       3.194   4.432  -1.120  0.00  0.00    +0.251 C 
ATOM      3  O   UNL     1       2.819   4.303  -2.265  0.00  0.00    -0.272 OA
ATOM      4  C   UNL     1       4.547   4.928  -0.649  0.00  0.00    +0.135 C 
ATOM      5  N   UNL     1       4.442   4.877   0.820  0.00  0.00    -0.281 N 
ATOM      6  C   UNL     1       3.208   4.424   1.102  0.00  0.00    +0.310 C 
ATOM      7  O   UNL     1       2.789   4.265   2.232  0.00  0.00    -0.252 OA
ATOM      8  C   UNL     1       4.788   6.363  -1.122  0.00  0.00    +0.047 C 
ATOM      9  H   UNL     1       5.129   5.126   1.458  0.00  0.00    +0.152 HD
ENDROOT
BRANCH   4  10
ATOM     10  C   UNL     1       5.644   4.016  -1.135  0.00  0.00    -0.016 A 
ATOM     11  C   UNL     1       5.492   3.324  -2.322  0.00  0.00    +0.006 A 
ATOM     12  C   UNL     1       6.501   2.491  -2.769  0.00  0.00    +0.000 A 
ATOM     13  C   UNL     1       7.657   2.344  -2.026  0.00  0.00    +0.000 A 
ATOM     14  C   UNL     1       7.806   3.032  -0.836  0.00  0.00    +0.000 A 
ATOM     15  C   UNL     1       6.799   3.868  -0.391  0.00  0.00    +0.006 A 
ENDBRANCH   4  10
BRANCH   1  16
ATOM     16  C   UNL     1       1.120   3.657   0.011  0.00  0.00    +0.213 C 
BRANCH  16  18
ATOM     17  N   UNL     1      -0.018   1.461   0.010  0.00  0.00    -0.307 N 
ATOM     18  C   UNL     1       1.140   2.151   0.003  0.00  0.00    +0.231 C 
ATOM     19  O   UNL     1       2.199   1.558  -0.011  0.00  0.00    -0.274 OA
ATOM     20  H   UNL     1      -0.864   1.934   0.017  0.00  0.00    +0.149 HD
BRANCH  17  22
ATOM     21  C   UNL     1       0.148  -0.520   1.435  0.00  0.00    +0.033 C 
ATOM     22  C   UNL     1       0.002  -0.004   0.002  0.00  0.00    +0.100 C 
BRANCH  22  23
ATOM     23  C   UNL     1      -1.284  -0.521  -0.589  0.00  0.00    -0.027 A 
ATOM     24  C   UNL     1      -2.483   0.092  -0.277  0.00  0.00    +0.006 A 
ATOM     25  C   UNL     1      -3.663  -0.378  -0.822  0.00  0.00    +0.015 A 
ATOM     26  C   UNL     1      -3.645  -1.469  -1.673  0.00  0.00    +0.018 A 
ATOM     27  C   UNL     1      -2.445  -2.085  -1.981  0.00  0.00    +0.015 A 
ATOM     28  C   UNL     1      -1.266  -1.611  -1.439  0.00  0.00    +0.006 A 
ATOM     29 BR   UNL     1      -5.259  -2.117  -2.414  0.00  0.00    -0.050 Br
ENDBRANCH  22  23
ENDBRANCH  17  22
ENDBRANCH  16  18
ENDBRANCH   1  16
TORSDOF 5
