REMARK  Name = ZINC22748735
REMARK  6 active torsions:
REMARK  status: ('A' for Active; 'I' for Inactive)
REMARK    1  A    between atoms: C_1  and  O_2
REMARK    2  A    between atoms: O_2  and  C_3
REMARK    3  A    between atoms: C_6  and  C_11
REMARK    4  A    between atoms: C_8  and  O_9
REMARK    5  A    between atoms: O_9  and  C_10
REMARK    6  A    between atoms: C_16  and  C_28
REMARK                            x       y       z     vdW  Elec       q    Type
REMARK                         _______ _______ _______ _____ _____    ______ ____
ROOT
ATOM      1  C   UNL     1       4.183   3.167   3.635  0.00  0.00    +0.032 C 
ATOM      2  C   UNL     1       4.894   3.793   2.434  0.00  0.00    +0.060 C 
ATOM      3  C   UNL     1       4.081   3.559   1.183  0.00  0.00    +0.020 C 
ATOM      4  C   UNL     1       2.739   3.473   1.234  0.00  0.00    +0.039 C 
ATOM      5  C   UNL     1       1.893   3.245   0.001  0.00  0.00    +0.158 C 
ATOM      6  N   UNL     1       2.687   3.477  -1.202  0.00  0.00    -0.301 N 
ATOM      7  C   UNL     1       2.290   3.644  -2.498  0.00  0.00    +0.069 A 
ATOM      8  C   UNL     1       1.042   3.659  -3.109  0.00  0.00    +0.028 A 
ATOM      9  C   UNL     1       1.013   3.859  -4.479  0.00  0.00    +0.002 A 
ATOM     10  C   UNL     1       2.168   4.038  -5.220  0.00  0.00    +0.002 A 
ATOM     11  C   UNL     1       3.422   4.028  -4.636  0.00  0.00    +0.028 A 
ATOM     12  C   UNL     1       3.476   3.828  -3.252  0.00  0.00    +0.066 A 
ATOM     13  N   UNL     1       4.513   3.764  -2.392  0.00  0.00    -0.327 N 
ATOM     14  C   UNL     1       4.061   3.562  -1.185  0.00  0.00    +0.179 A 
ATOM     15  N   UNL     1       4.770   3.444  -0.001  0.00  0.00    -0.290 N 
ATOM     16  C   UNL     1       2.053   3.595   2.460  0.00  0.00    +0.164 C 
ATOM     17  O   UNL     1       0.839   3.533   2.473  0.00  0.00    -0.292 OA
ATOM     18  C   UNL     1       2.791   3.798   3.754  0.00  0.00    +0.088 C 
ATOM     19  H   UNL     1       5.854   3.262   0.009  0.00  0.00    +0.155 HD
ATOM     20  H   UNL     1       5.542   3.880  -2.763  0.00  0.00    +0.169 HD
ENDROOT
BRANCH   5  21
ATOM     21  C   UNL     1       1.385   1.827  -0.001  0.00  0.00    +0.005 A 
ATOM     22  C   UNL     1       2.132   0.711  -0.015  0.00  0.00    +0.089 A 
ATOM     23  N   UNL     1       1.323  -0.392  -0.013  0.00  0.00    -0.360 N 
ATOM     24  H   UNL     1       1.766  -1.399  -0.022  0.00  0.00    +0.165 HD
ATOM     25  C   UNL     1       0.002  -0.004   0.002  0.00  0.00    +0.047 A 
ATOM     26  C   UNL     1      -0.017   1.403   0.010  0.00  0.00    +0.005 A 
ATOM     27  C   UNL     1      -1.236   2.083   0.030  0.00  0.00    +0.010 A 
ATOM     28  C   UNL     1      -2.406   1.377   0.034  0.00  0.00    +0.001 A 
ATOM     29  C   UNL     1      -2.393  -0.011   0.026  0.00  0.00    +0.002 A 
ATOM     30  C   UNL     1      -1.201  -0.702   0.010  0.00  0.00    +0.026 A 
ENDBRANCH   5  21
BRANCH   1  34
ATOM     31  C   UNL     1       6.422   3.939   7.196  0.00  0.00    +0.161 A 
ATOM     32  C   UNL     1       5.934   4.992   6.439  0.00  0.00    +0.049 A 
ATOM     33  C   UNL     1       5.215   4.739   5.285  0.00  0.00    +0.008 A 
ATOM     34  C   UNL     1       4.972   3.437   4.891  0.00  0.00    -0.040 A 
ATOM     35  C   UNL     1       5.456   2.382   5.641  0.00  0.00    +0.053 A 
ATOM     36  C   UNL     1       6.182   2.628   6.796  0.00  0.00    +0.162 A 
BRANCH  31  38
ATOM     37  C   UNL     1       7.341   5.556   8.678  0.00  0.00    +0.277 C 
ATOM     38  O   UNL     1       7.134   4.186   8.328  0.00  0.00    -0.491 OA
ENDBRANCH  31  38
BRANCH  36  39
ATOM     39  O   UNL     1       6.658   1.592   7.536  0.00  0.00    -0.491 OA
ATOM     40  C   UNL     1       6.372   0.273   7.064  0.00  0.00    +0.277 C 
ENDBRANCH  36  39
ENDBRANCH   1  34
TORSDOF 4
