REMARK  Name = ZINC36029906
REMARK  10 active torsions:
REMARK  status: ('A' for Active; 'I' for Inactive)
REMARK    1  A    between atoms: C_1  and  C_2
REMARK    2  A    between atoms: C_2  and  C_3
REMARK    3  A    between atoms: C_2  and  C_4
REMARK    4  A    between atoms: C_4  and  C_5
REMARK    5  A    between atoms: N_9  and  C_28
REMARK    6  A    between atoms: N_14  and  S_17
REMARK    7  A    between atoms: S_17  and  C_20
REMARK    8  A    between atoms: C_23  and  O_26
REMARK    9  A    between atoms: O_26  and  C_27
REMARK   10  A    between atoms: C_28  and  C_29
REMARK                            x       y       z     vdW  Elec       q    Type
REMARK                         _______ _______ _______ _____ _____    ______ ____
ROOT
ATOM      1  C   UNL     1      -1.520  -1.768  -0.205  0.00  0.00    +0.019 C 
ATOM      2  C   UNL     1      -2.915  -2.348  -0.293  0.00  0.00    +0.201 C 
ATOM      3  O   UNL     1      -3.767  -2.026  -1.093  0.00  0.00    -0.277 OA
ATOM      4  N   UNL     1      -3.050  -3.284   0.670  0.00  0.00    -0.309 N 
ATOM      5  C   UNL     1      -1.805  -3.381   1.436  0.00  0.00    +0.006 C 
ATOM      6  N   UNL     1      -0.754  -2.740   0.614  0.00  0.00    +0.401 N 
ATOM      7  C   UNL     1      -1.944  -2.641   2.765  0.00  0.00    +0.023 C 
ATOM      8  C   UNL     1      -3.060  -3.287   3.592  0.00  0.00    +0.109 C 
ATOM      9  N   UNL     1      -2.783  -4.725   3.718  0.00  0.00    -0.177 NA
ATOM     10  C   UNL     1      -2.559  -5.511   2.498  0.00  0.00    +0.109 C 
ATOM     11  C   UNL     1      -1.447  -4.846   1.680  0.00  0.00    +0.023 C 
ATOM     12  H   UNL     1      -0.297  -3.420   0.025  0.00  0.00    -0.082 HD
ATOM     13  H   UNL     1      -0.084  -2.263   1.198  0.00  0.00    -0.082 HD
ENDROOT
BRANCH   9  14
ATOM     14  S   UNL     1      -2.725  -5.445   5.208  0.00  0.00    +0.061 S 
ATOM     15  O   UNL     1      -1.924  -6.610   5.065  0.00  0.00    -0.153 OA
ATOM     16  O   UNL     1      -2.418  -4.420   6.143  0.00  0.00    -0.153 OA
BRANCH  14  17
ATOM     17  C   UNL     1      -4.355  -5.998   5.584  0.00  0.00    +0.106 A 
ATOM     18  C   UNL     1      -5.233  -5.159   6.245  0.00  0.00    +0.032 A 
ATOM     19  C   UNL     1      -6.512  -5.590   6.541  0.00  0.00    +0.047 A 
ATOM     20  C   UNL     1      -6.915  -6.866   6.174  0.00  0.00    +0.120 A 
ATOM     21  C   UNL     1      -6.032  -7.705   5.511  0.00  0.00    +0.047 A 
ATOM     22  C   UNL     1      -4.756  -7.268   5.213  0.00  0.00    +0.032 A 
BRANCH  20  23
ATOM     23  O   UNL     1      -8.172  -7.292   6.465  0.00  0.00    -0.495 OA
ATOM     24  C   UNL     1      -8.517  -8.617   6.057  0.00  0.00    +0.277 C 
ENDBRANCH  20  23
ENDBRANCH  14  17
ENDBRANCH   9  14
BRANCH   1  25
ATOM     25  C   UNL     1      -1.553  -0.402   0.482  0.00  0.00    -0.004 C 
BRANCH  25  27
ATOM     26  C   UNL     1      -2.381   1.948   0.294  0.00  0.00    +0.007 C 
ATOM     27  C   UNL     1      -2.211   0.620  -0.447  0.00  0.00    -0.018 C 
ATOM     28  C   UNL     1      -1.328   0.833  -1.679  0.00  0.00    +0.007 C 
ENDBRANCH  25  27
ENDBRANCH   1  25
BRANCH   4  29
ATOM     29  C   UNL     1      -4.256  -4.081   0.911  0.00  0.00    +0.141 C 
BRANCH  29  30
ATOM     30  C   UNL     1      -4.346  -5.179  -0.117  0.00  0.00    -0.026 A 
ATOM     31  C   UNL     1      -4.847  -4.905  -1.377  0.00  0.00    +0.009 A 
ATOM     32  C   UNL     1      -4.932  -5.909  -2.323  0.00  0.00    +0.050 A 
ATOM     33  C   UNL     1      -4.514  -7.193  -2.011  0.00  0.00    +0.166 A 
ATOM     34  C   UNL     1      -4.010  -7.469  -0.743  0.00  0.00    +0.167 A 
ATOM     35  C   UNL     1      -3.923  -6.456   0.199  0.00  0.00    +0.054 A 
ATOM     36  O   UNL     1      -3.672  -8.790  -0.685  0.00  0.00    -0.453 OA
ATOM     37  C   UNL     1      -4.352  -9.409  -1.792  0.00  0.00    +0.466 C 
ATOM     38  O   UNL     1      -4.492  -8.342  -2.748  0.00  0.00    -0.453 OA
ENDBRANCH  29  30
ENDBRANCH   4  29
TORSDOF 7
