REMARK  Name = ZINC45626332
REMARK  5 active torsions:
REMARK  status: ('A' for Active; 'I' for Inactive)
REMARK    1  A    between atoms: C_1  and  C_2
REMARK    2  A    between atoms: C_5  and  N_9
REMARK    3  A    between atoms: C_6  and  C_8
REMARK    4  A    between atoms: C_10  and  C_14
REMARK    5  A    between atoms: C_16  and  N_21
REMARK                            x       y       z     vdW  Elec       q    Type
REMARK                         _______ _______ _______ _____ _____    ______ ____
ROOT
ATOM      1  N   UNL     1       0.421  -4.185  -0.160  0.00  0.00    -0.192 N 
ATOM      2  C   UNL     1       0.258  -4.966  -1.266  0.00  0.00    +0.188 A 
ATOM      3  N   UNL     1       0.241  -6.216  -0.852  0.00  0.00    -0.108 NA
ATOM      4  N   UNL     1       0.381  -6.270   0.423  0.00  0.00    -0.022 NA
ATOM      5  N   UNL     1       0.501  -5.086   0.916  0.00  0.00    -0.039 NA
ENDROOT
BRANCH   1  10
ATOM      6  C   UNL     1       0.729   1.478   0.047  0.00  0.00    +0.044 C 
ATOM      7  C   UNL     1       0.647  -0.025  -0.008  0.00  0.00    -0.050 A 
ATOM      8  C   UNL     1       1.405  -0.725  -0.929  0.00  0.00    +0.005 A 
ATOM      9  C   UNL     1       1.332  -2.103  -0.982  0.00  0.00    +0.028 A 
ATOM     10  C   UNL     1       0.497  -2.786  -0.109  0.00  0.00    +0.072 A 
ATOM     11  C   UNL     1      -0.262  -2.082   0.815  0.00  0.00    -0.025 A 
ATOM     12  C   UNL     1      -0.182  -0.704   0.867  0.00  0.00    +0.008 A 
ATOM     13  C   UNL     1      -1.171  -2.820   1.765  0.00  0.00    +0.046 C 
ENDBRANCH   1  10
BRANCH   2  14
ATOM     14  C   UNL     1       0.125  -4.499  -2.664  0.00  0.00    +0.037 A 
ATOM     15  C   UNL     1      -0.763  -3.471  -2.976  0.00  0.00    +0.035 A 
ATOM     16  C   UNL     1      -0.882  -3.038  -4.288  0.00  0.00    +0.025 A 
ATOM     17  C   UNL     1      -0.118  -3.630  -5.287  0.00  0.00    +0.024 A 
ATOM     18  C   UNL     1       0.762  -4.649  -4.978  0.00  0.00    +0.018 A 
ATOM     19  C   UNL     1       0.892  -5.083  -3.673  0.00  0.00    +0.029 A 
ATOM     20 BR   UNL     1       2.104  -6.474  -3.256  0.00  0.00    -0.050 Br
BRANCH  16  21
ATOM     21  N   UNL     1      -1.771  -2.007  -4.605  0.00  0.00    -0.358 N 
ATOM     22  H   UNL     1      -2.304  -1.595  -3.908  0.00  0.00    +0.142 HD
ATOM     23  H   UNL     1      -1.854  -1.705  -5.523  0.00  0.00    +0.142 HD
ENDBRANCH  16  21
ENDBRANCH   2  14
TORSDOF 3
