REMARK  Name = ZINC28465818
REMARK  3 active torsions:
REMARK  status: ('A' for Active; 'I' for Inactive)
REMARK    1  A    between atoms: C_1  and  O_2
REMARK    2  A    between atoms: O_2  and  C_3
REMARK    3  A    between atoms: C_12  and  C_13
REMARK                            x       y       z     vdW  Elec       q    Type
REMARK                         _______ _______ _______ _____ _____    ______ ____
ROOT
ATOM      1  C   UNL     1       2.145   6.879   0.020  0.00  0.00    +0.145 C 
ATOM      2  C   UNL     1       1.594   5.469   0.017  0.00  0.00    +0.046 C 
ATOM      3  C   UNL     1       0.242   5.307   0.029  0.00  0.00    +0.052 C 
ATOM      4  C   UNL     1      -0.062   3.851   0.023  0.00  0.00    +0.007 A 
ATOM      5  C   UNL     1      -1.247   3.136   0.031  0.00  0.00    +0.010 A 
ATOM      6  C   UNL     1      -1.217   1.746   0.017  0.00  0.00    +0.001 A 
ATOM      7  C   UNL     1      -0.013   1.076   0.008  0.00  0.00    +0.001 A 
ATOM      8  C   UNL     1       1.185   1.786   0.000  0.00  0.00    +0.012 A 
ATOM      9  C   UNL     1       1.165   3.166   0.008  0.00  0.00    +0.031 A 
ATOM     10  C   UNL     1       2.230   4.206   0.004  0.00  0.00    +0.194 C 
ATOM     11  O   UNL     1       3.429   4.006  -0.009  0.00  0.00    -0.287 OA
ATOM     12  N   UNL     1      -0.586   6.405   0.043  0.00  0.00    -0.268 N 
ATOM     13  C   UNL     1      -0.146   7.668   0.045  0.00  0.00    +0.305 C 
ATOM     14  O   UNL     1      -0.960   8.570   0.058  0.00  0.00    -0.252 OA
ATOM     15  N   UNL     1       1.165   7.978   0.035  0.00  0.00    -0.288 N 
ATOM     16  H   UNL     1      -1.678   6.270   0.053  0.00  0.00    +0.156 HD
ATOM     17  H   UNL     1       1.510   9.023   0.037  0.00  0.00    +0.151 HD
ENDROOT
BRANCH   1  27
ATOM     18  C   UNL     1       2.484   7.306   2.451  0.00  0.00    +0.126 A 
ATOM     19  C   UNL     1       3.293   7.448   3.583  0.00  0.00    +0.046 A 
ATOM     20  C   UNL     1       4.644   7.314   3.498  0.00  0.00    +0.012 A 
ATOM     21  C   UNL     1       5.240   7.030   2.257  0.00  0.00    -0.017 A 
ATOM     22  C   UNL     1       6.632   6.886   2.134  0.00  0.00    +0.008 A 
ATOM     23  C   UNL     1       7.175   6.594   0.921  0.00  0.00    +0.001 A 
ATOM     24  C   UNL     1       6.371   6.452  -0.209  0.00  0.00    +0.001 A 
ATOM     25  C   UNL     1       5.020   6.590  -0.129  0.00  0.00    +0.009 A 
ATOM     26  C   UNL     1       4.422   6.880   1.109  0.00  0.00    -0.009 A 
ATOM     27  C   UNL     1       3.031   7.029   1.230  0.00  0.00    +0.027 A 
BRANCH  18  29
ATOM     28  C   UNL     1       0.625   7.734   3.869  0.00  0.00    +0.277 C 
ATOM     29  O   UNL     1       1.138   7.445   2.567  0.00  0.00    -0.495 OA
ENDBRANCH  18  29
ENDBRANCH   1  27
TORSDOF 2
