REMARK  Name = ZINC41626083
REMARK  8 active torsions:
REMARK  status: ('A' for Active; 'I' for Inactive)
REMARK    1  A    between atoms: C_1  and  C_2
REMARK    2  A    between atoms: C_2  and  C_3
REMARK    3  A    between atoms: C_9  and  S_11
REMARK    4  A    between atoms: S_11  and  C_12
REMARK    5  A    between atoms: C_12  and  C_14
REMARK    6  A    between atoms: C_12  and  C_15
REMARK    7  A    between atoms: N_17  and  C_18
REMARK    8  A    between atoms: C_23  and  C_24
REMARK                            x       y       z     vdW  Elec       q    Type
REMARK                         _______ _______ _______ _____ _____    ______ ____
ROOT
ATOM      1  C   UNL     1      -1.983  -0.639  -4.484  0.00  0.00    +0.137 C 
ATOM      2  C   UNL     1      -1.961   0.842  -4.101  0.00  0.00    +0.029 C 
ENDROOT
BRANCH   1   3
ATOM      3  C   UNL     1      -2.925  -0.845  -5.641  0.00  0.00    +0.230 C 
ATOM      4  O   UNL     1      -2.489  -0.947  -6.768  0.00  0.00    -0.274 OA
ATOM      5  N   UNL     1      -4.254  -0.915  -5.425  0.00  0.00    -0.284 N 
ATOM      6  H   UNL     1      -4.598  -0.914  -4.518  0.00  0.00    +0.155 HD
BRANCH   5   7
ATOM      7  C   UNL     1      -5.136  -0.990  -6.508  0.00  0.00    +0.038 A 
ATOM      8  C   UNL     1      -4.759  -0.491  -7.749  0.00  0.00    +0.023 A 
ATOM      9  C   UNL     1      -5.632  -0.567  -8.816  0.00  0.00    +0.003 A 
ATOM     10  C   UNL     1      -6.880  -1.138  -8.652  0.00  0.00    +0.020 A 
ATOM     11  C   UNL     1      -7.260  -1.636  -7.418  0.00  0.00    +0.046 A 
ATOM     12  C   UNL     1      -6.388  -1.568  -6.347  0.00  0.00    -0.011 A 
ATOM     13  C   UNL     1      -6.799  -2.116  -5.005  0.00  0.00    +0.047 C 
ATOM     14 CL   UNL     1      -8.828  -2.352  -7.216  0.00  0.00    -0.083 Cl
ENDBRANCH   5   7
ENDBRANCH   1   3
BRANCH   1  15
ATOM     15  S   UNL     1      -0.314  -1.166  -4.961  0.00  0.00    -0.075 S 
BRANCH  15  22
ATOM     16  C   UNL     1       0.705  -0.442  -1.240  0.00  0.00    +0.049 A 
ATOM     17  C   UNL     1       2.034  -0.749  -1.187  0.00  0.00    +0.093 A 
ATOM     18  C   UNL     1       2.672  -1.207  -2.353  0.00  0.00    +0.252 A 
ATOM     19  O   UNL     1       3.859  -1.490  -2.341  0.00  0.00    -0.268 OA
ATOM     20  N   UNL     1       1.947  -1.327  -3.486  0.00  0.00    -0.302 N 
ATOM     21  H   UNL     1       2.368  -1.642  -4.301  0.00  0.00    +0.171 HD
ATOM     22  C   UNL     1       0.624  -1.006  -3.478  0.00  0.00    +0.170 A 
ATOM     23  N   UNL     1       0.031  -0.582  -2.379  0.00  0.00    -0.228 NA
BRANCH  16  25
ATOM     24  C   UNL     1      -0.029   1.580  -0.006  0.00  0.00    +0.010 C 
ATOM     25  C   UNL     1      -0.003   0.051  -0.003  0.00  0.00    +0.052 C 
ENDBRANCH  16  25
ENDBRANCH  15  22
ENDBRANCH   1  15
TORSDOF 5
