REMARK  Name = ZINC20650278
REMARK  7 active torsions:
REMARK  status: ('A' for Active; 'I' for Inactive)
REMARK    1  A    between atoms: C_1  and  C_2
REMARK    2  A    between atoms: C_15  and  C_18
REMARK    3  A    between atoms: C_16  and  O_17
REMARK    4  A    between atoms: C_18  and  C_20
REMARK    5  A    between atoms: C_18  and  N_28
REMARK    6  A    between atoms: C_23  and  O_26
REMARK    7  A    between atoms: O_26  and  C_27
REMARK                            x       y       z     vdW  Elec       q    Type
REMARK                         _______ _______ _______ _____ _____    ______ ____
ROOT
ATOM      1  C   UNL     1       0.567  -2.760  -8.518  0.00  0.00    +0.045 C 
ATOM      2  C   UNL     1      -0.519  -2.544  -7.495  0.00  0.00    -0.033 A 
ATOM      3  C   UNL     1      -1.820  -2.792  -7.797  0.00  0.00    +0.096 A 
ATOM      4  C   UNL     1      -2.816  -2.583  -6.821  0.00  0.00    +0.337 A 
ATOM      5  O   UNL     1      -3.980  -2.808  -7.100  0.00  0.00    -0.245 OA
ATOM      6  O   UNL     1      -2.510  -2.140  -5.592  0.00  0.00    -0.422 OA
ATOM      7  C   UNL     1      -1.238  -1.877  -5.233  0.00  0.00    +0.147 A 
ATOM      8  C   UNL     1      -0.198  -2.062  -6.149  0.00  0.00    +0.021 A 
ATOM      9  C   UNL     1       1.135  -1.789  -5.783  0.00  0.00    +0.012 A 
ATOM     10  C   UNL     1       1.433  -1.344  -4.538  0.00  0.00    +0.013 A 
ATOM     11  C   UNL     1       0.410  -1.146  -3.589  0.00  0.00    +0.027 A 
ATOM     12  C   UNL     1      -0.936  -1.413  -3.935  0.00  0.00    +0.029 A 
ATOM     13  C   UNL     1      -1.949  -1.214  -2.984  0.00  0.00    +0.013 A 
ATOM     14  C   UNL     1      -1.633  -0.770  -1.736  0.00  0.00    +0.010 A 
ATOM     15  C   UNL     1      -0.314  -0.499  -1.386  0.00  0.00    +0.016 A 
ATOM     16  C   UNL     1       0.707  -0.683  -2.292  0.00  0.00    +0.130 A 
ENDROOT
BRANCH  16  17
ATOM     17  O   UNL     1       1.992  -0.421  -1.938  0.00  0.00    -0.506 OA
ATOM     18  H   UNL     1       2.220  -0.059  -0.924  0.00  0.00    +0.292 HD
ENDBRANCH  16  17
BRANCH  15  19
ATOM     19  C   UNL     1       0.002  -0.004   0.002  0.00  0.00    +0.121 C 
BRANCH  19  20
ATOM     20  C   UNL     1       0.024   1.503   0.005  0.00  0.00    -0.026 A 
ATOM     21  C   UNL     1      -1.161   2.210  -0.087  0.00  0.00    +0.009 A 
ATOM     22  C   UNL     1      -1.145   3.591  -0.079  0.00  0.00    +0.046 A 
ATOM     23  C   UNL     1       0.063   4.269   0.010  0.00  0.00    +0.120 A 
ATOM     24  C   UNL     1       1.250   3.557   0.097  0.00  0.00    +0.046 A 
ATOM     25  C   UNL     1       1.228   2.176   0.094  0.00  0.00    +0.009 A 
BRANCH  23  26
ATOM     26  O   UNL     1       0.082   5.628   0.012  0.00  0.00    -0.495 OA
ATOM     27  C   UNL     1      -1.178   6.295  -0.080  0.00  0.00    +0.277 C 
ENDBRANCH  23  26
ENDBRANCH  19  20
BRANCH  19  28
ATOM     28  N   UNL     1      -1.025  -0.481   0.938  0.00  0.00    -0.287 NA
ATOM     29  C   UNL     1      -0.850   0.125   2.266  0.00  0.00    +0.113 C 
ATOM     30  C   UNL     1      -1.973  -0.352   3.190  0.00  0.00    +0.175 C 
ATOM     31  O   UNL     1      -1.967  -1.781   3.242  0.00  0.00    -0.377 OA
ATOM     32  C   UNL     1      -2.135  -2.405   1.966  0.00  0.00    +0.175 C 
ATOM     33  C   UNL     1      -1.014  -1.948   1.029  0.00  0.00    +0.113 C 
ENDBRANCH  19  28
ENDBRANCH  15  19
TORSDOF 5
