REMARK  Name = ZINC40475402
REMARK  2 active torsions:
REMARK  status: ('A' for Active; 'I' for Inactive)
REMARK    1  A    between atoms: C_4  and  N_7
REMARK    2  A    between atoms: C_12  and  C_25
REMARK                            x       y       z     vdW  Elec       q    Type
REMARK                         _______ _______ _______ _____ _____    ______ ____
ROOT
ATOM      1  N   UNL     1       3.624  -0.652  -0.037  0.00  0.00    -0.209 N 
ATOM      2  C   UNL     1       3.716  -2.003  -0.051  0.00  0.00    +0.232 C 
ATOM      3  O   UNL     1       2.816  -2.799   0.110  0.00  0.00    -0.274 OA
ATOM      4  C   UNL     1       5.158  -2.313  -0.305  0.00  0.00    +0.113 C 
ATOM      5  C   UNL     1       5.683  -3.655   0.041  0.00  0.00    +0.108 C 
ATOM      6  C   UNL     1       6.148  -3.817   1.440  0.00  0.00    +0.035 A 
ATOM      7  C   UNL     1       6.358  -2.861   2.385  0.00  0.00    +0.110 A 
ATOM      8  N   UNL     1       6.825  -3.319   3.550  0.00  0.00    -0.225 NA
ATOM      9  C   UNL     1       7.029  -4.600   3.763  0.00  0.00    +0.147 A 
ATOM     10  S   UNL     1       7.627  -5.386   5.222  0.00  0.00    -0.023 SA
ATOM     11  S   UNL     1       6.578  -5.308   2.303  0.00  0.00    -0.063 S 
ATOM     12  S   UNL     1       6.002  -1.156   2.054  0.00  0.00    -0.091 S 
ATOM     13  C   UNL     1       5.891  -1.086   0.250  0.00  0.00    +0.152 C 
ATOM     14  C   UNL     1       4.816  -0.024  -0.047  0.00  0.00    +0.240 C 
ATOM     15  O   UNL     1       5.006   1.156  -0.249  0.00  0.00    -0.274 OA
ENDROOT
BRANCH   1  19
ATOM     16  C   UNL     1      -0.017   1.379   0.010  0.00  0.00    +0.000 A 
ATOM     17  C   UNL     1       1.170   2.089   0.002  0.00  0.00    +0.002 A 
ATOM     18  C   UNL     1       2.377   1.419  -0.013  0.00  0.00    +0.024 A 
ATOM     19  C   UNL     1       2.399   0.031  -0.021  0.00  0.00    +0.044 A 
ATOM     20  C   UNL     1       1.207  -0.680  -0.013  0.00  0.00    +0.024 A 
ATOM     21  C   UNL     1       0.002  -0.004   0.002  0.00  0.00    +0.002 A 
ENDBRANCH   1  19
BRANCH   5  22
ATOM     22  C   UNL     1       6.840  -3.961  -0.876  0.00  0.00    +0.114 A 
ATOM     23  C   UNL     1       6.911  -4.994  -1.734  0.00  0.00    +0.045 A 
ATOM     24  C   UNL     1       8.161  -4.898  -2.388  0.00  0.00    +0.041 A 
ATOM     25  C   UNL     1       8.779  -3.811  -1.889  0.00  0.00    +0.195 A 
ATOM     26  O   UNL     1       7.971  -3.245  -0.978  0.00  0.00    -0.467 OA
ENDBRANCH   5  22
TORSDOF 2
