REMARK  Name = ZINC39684124
REMARK  12 active torsions:
REMARK  status: ('A' for Active; 'I' for Inactive)
REMARK    1  A    between atoms: C_1  and  C_2
REMARK    2  A    between atoms: C_7  and  C_11
REMARK    3  A    between atoms: C_11  and  C_12
REMARK    4  A    between atoms: C_12  and  N_13
REMARK    5  A    between atoms: C_14  and  C_16
REMARK    6  A    between atoms: C_27  and  C_29
REMARK    7  A    between atoms: C_31  and  O_39
REMARK    8  A    between atoms: C_32  and  O_37
REMARK    9  A    between atoms: C_33  and  O_35
REMARK   10  A    between atoms: O_35  and  C_36
REMARK   11  A    between atoms: O_37  and  C_38
REMARK   12  A    between atoms: O_39  and  C_40
REMARK                            x       y       z     vdW  Elec       q    Type
REMARK                         _______ _______ _______ _____ _____    ______ ____
ROOT
ATOM      1  C   UNL     1      -9.134   2.149  -6.484  0.00  0.00    +0.100 C 
ATOM      2  C   UNL     1      -8.326   3.150  -7.341  0.00  0.00    +0.121 C 
ATOM      3  N   UNL     1      -7.936   2.381  -8.546  0.00  0.00    -0.296 N 
ATOM      4  C   UNL     1      -9.129   1.558  -8.860  0.00  0.00    +0.115 C 
ATOM      5  C   UNL     1      -9.662   1.108  -7.486  0.00  0.00    -0.004 C 
ATOM      6  C   UNL     1     -11.188   1.103  -7.486  0.00  0.00    -0.010 C 
ATOM      7  C   UNL     1     -11.690   0.020  -8.446  0.00  0.00    -0.082 C 
ATOM      8  N   UNL     1     -11.176  -1.288  -8.023  0.00  0.00    +0.379 N 
ATOM      9  C   UNL     1      -9.711  -1.304  -8.114  0.00  0.00    -0.082 C 
ATOM     10  C   UNL     1      -9.126  -0.278  -7.140  0.00  0.00    -0.010 C 
ATOM     11  C   UNL     1      -6.763   2.421  -9.208  0.00  0.00    +0.247 C 
ATOM     12  O   UNL     1      -5.831   3.056  -8.755  0.00  0.00    -0.270 OA
ATOM     13  H   UNL     1     -11.454  -1.464  -7.069  0.00  0.00    -0.086 HD
ATOM     14  H   UNL     1     -11.557  -2.007  -8.620  0.00  0.00    -0.086 HD
ENDROOT
BRANCH  11  15
ATOM     15  C   UNL     1      -6.610   1.695 -10.484  0.00  0.00    +0.044 A 
ATOM     16  C   UNL     1      -7.739   1.345 -11.230  0.00  0.00    +0.062 A 
ATOM     17  C   UNL     1      -7.593   0.665 -12.425  0.00  0.00    +0.166 A 
ATOM     18  C   UNL     1      -6.323   0.329 -12.885  0.00  0.00    +0.204 A 
ATOM     19  C   UNL     1      -5.197   0.676 -12.143  0.00  0.00    +0.166 A 
ATOM     20  C   UNL     1      -5.337   1.361 -10.951  0.00  0.00    +0.062 A 
BRANCH  19  21
ATOM     21  O   UNL     1      -3.957   0.345 -12.595  0.00  0.00    -0.491 OA
ATOM     22  C   UNL     1      -2.846   0.732 -11.784  0.00  0.00    +0.277 C 
ENDBRANCH  19  21
BRANCH  18  23
ATOM     23  O   UNL     1      -6.182  -0.340 -14.059  0.00  0.00    -0.488 OA
ATOM     24  C   UNL     1      -6.047   0.449 -15.243  0.00  0.00    +0.277 C 
ENDBRANCH  18  23
BRANCH  17  25
ATOM     25  O   UNL     1      -8.691   0.325 -13.151  0.00  0.00    -0.491 OA
ATOM     26  C   UNL     1      -9.963   0.701 -12.619  0.00  0.00    +0.277 C 
ENDBRANCH  17  25
ENDBRANCH  11  15
BRANCH   1  28
ATOM     27  N   UNL     1      -8.769   0.973  -4.338  0.00  0.00    -0.315 N 
ATOM     28  C   UNL     1      -8.240   1.490  -5.465  0.00  0.00    +0.218 C 
ATOM     29  O   UNL     1      -7.045   1.424  -5.659  0.00  0.00    -0.275 OA
ATOM     30  H   UNL     1      -9.726   1.025  -4.183  0.00  0.00    +0.149 HD
BRANCH  27  31
ATOM     31  C   UNL     1      -7.901   0.332  -3.348  0.00  0.00    +0.109 C 
BRANCH  31  32
ATOM     32  C   UNL     1      -8.746  -0.165  -2.174  0.00  0.00    +0.056 C 
BRANCH  32  39
ATOM     33  C   UNL     1      -4.879  -1.907   2.445  0.00  0.00    +0.046 C 
ATOM     34  C   UNL     1      -5.622  -0.834   1.692  0.00  0.00    -0.027 A 
ATOM     35  C   UNL     1      -5.509   0.485   2.077  0.00  0.00    +0.005 A 
ATOM     36  C   UNL     1      -6.189   1.483   1.393  0.00  0.00    +0.001 A 
ATOM     37  C   UNL     1      -6.982   1.174   0.324  0.00  0.00    +0.010 A 
ATOM     38  C   UNL     1      -7.111  -0.154  -0.084  0.00  0.00    +0.003 A 
ATOM     39  C   UNL     1      -7.853  -0.824  -1.155  0.00  0.00    -0.021 A 
ATOM     40  C   UNL     1      -7.587  -2.136  -1.056  0.00  0.00    +0.087 A 
ATOM     41  N   UNL     1      -6.734  -2.362  -0.009  0.00  0.00    -0.360 N 
ATOM     42  C   UNL     1      -6.419  -1.169   0.603  0.00  0.00    +0.050 A 
ATOM     43  H   UNL     1      -6.399  -3.232   0.259  0.00  0.00    +0.165 HD
ENDBRANCH  32  39
ENDBRANCH  31  32
ENDBRANCH  27  31
ENDBRANCH   1  28
TORSDOF 8
