REMARK  Name = ZINC08768470
REMARK  11 active torsions:
REMARK  status: ('A' for Active; 'I' for Inactive)
REMARK    1  A    between atoms: C_1  and  C_2
REMARK    2  A    between atoms: C_5  and  C_37
REMARK    3  A    between atoms: N_8  and  S_10
REMARK    4  A    between atoms: S_10  and  C_13
REMARK    5  A    between atoms: C_16  and  C_19
REMARK    6  A    between atoms: N_21  and  C_22
REMARK    7  A    between atoms: C_22  and  C_23
REMARK    8  A    between atoms: C_23  and  C_24
REMARK    9  A    between atoms: C_24  and  N_69
REMARK   10  A    between atoms: C_25  and  N_69
REMARK   11  A    between atoms: C_26  and  N_69
REMARK                            x       y       z     vdW  Elec       q    Type
REMARK                         _______ _______ _______ _____ _____    ______ ____
ROOT
ATOM      1  C   UNL     1       0.578  -5.155  -0.360  0.00  0.00    +0.252 C 
ATOM      2  O   UNL     1       0.224  -6.188   0.175  0.00  0.00    -0.270 OA
ATOM      3  N   UNL     1      -0.331  -4.208  -0.665  0.00  0.00    -0.246 N 
ATOM      4  C   UNL     1      -1.658  -4.382  -0.308  0.00  0.00    +0.168 A 
ATOM      5  N   UNL     1      -2.232  -5.424   0.244  0.00  0.00    -0.221 NA
ATOM      6  C   UNL     1      -3.551  -5.456   0.539  0.00  0.00    +0.115 A 
ATOM      7  C   UNL     1      -4.289  -6.509   1.130  0.00  0.00    +0.150 A 
ATOM      8  C   UNL     1      -5.635  -6.376   1.363  0.00  0.00    +0.040 A 
ATOM      9  C   UNL     1      -6.316  -5.214   1.031  0.00  0.00    +0.004 A 
ATOM     10  C   UNL     1      -5.626  -4.166   0.451  0.00  0.00    +0.017 A 
ATOM     11  C   UNL     1      -4.279  -4.289   0.214  0.00  0.00    +0.044 A 
ATOM     12  S   UNL     1      -3.024  -3.243  -0.485  0.00  0.00    -0.052 S 
ATOM     13  F   UNL     1      -3.663  -7.657   1.468  0.00  0.00    -0.203 F 
ENDROOT
BRANCH   1  17
ATOM     14  C   UNL     1       4.680  -4.533  -1.269  0.00  0.00    +0.106 A 
ATOM     15  C   UNL     1       4.170  -5.819  -1.232  0.00  0.00    +0.029 A 
ATOM     16  C   UNL     1       2.839  -6.028  -0.937  0.00  0.00    +0.015 A 
ATOM     17  C   UNL     1       2.005  -4.939  -0.676  0.00  0.00    +0.037 A 
ATOM     18  C   UNL     1       2.525  -3.644  -0.721  0.00  0.00    +0.015 A 
ATOM     19  C   UNL     1       3.859  -3.449  -1.011  0.00  0.00    +0.029 A 
BRANCH  14  20
ATOM     20  S   UNL     1       6.381  -4.274  -1.646  0.00  0.00    +0.061 S 
ATOM     21  O   UNL     1       6.736  -3.019  -1.083  0.00  0.00    -0.153 OA
ATOM     22  O   UNL     1       7.059  -5.478  -1.312  0.00  0.00    -0.153 OA
BRANCH  20  28
ATOM     23  C   UNL     1       4.264  -5.529  -4.574  0.00  0.00    +0.009 C 
ATOM     24  C   UNL     1       5.629  -5.306  -5.228  0.00  0.00    +0.002 C 
ATOM     25  C   UNL     1       5.625  -3.971  -5.976  0.00  0.00    +0.009 C 
ATOM     26  C   UNL     1       5.305  -2.837  -4.999  0.00  0.00    +0.002 C 
ATOM     27  C   UNL     1       6.387  -2.782  -3.916  0.00  0.00    +0.112 C 
ATOM     28  N   UNL     1       6.498  -4.106  -3.289  0.00  0.00    -0.176 NA
ATOM     29  C   UNL     1       6.721  -5.277  -4.148  0.00  0.00    +0.112 C 
ATOM     30  C   UNL     1       5.268  -1.507  -5.753  0.00  0.00    +0.009 C 
ENDBRANCH  20  28
ENDBRANCH  14  20
ENDBRANCH   1  17
BRANCH   3  31
ATOM     31  C   UNL     1       0.085  -2.994  -1.372  0.00  0.00    +0.114 C 
BRANCH  31  32
ATOM     32  C   UNL     1       0.056  -1.807  -0.408  0.00  0.00    +0.001 C 
BRANCH  32  33
ATOM     33  C   UNL     1       0.490  -0.539  -1.148  0.00  0.00    -0.078 C 
BRANCH  33  36
ATOM     34  C   UNL     1       1.474   0.448   0.832  0.00  0.00    -0.097 C 
ATOM     35  C   UNL     1       0.642   1.868  -0.943  0.00  0.00    -0.097 C 
ATOM     36  N   UNL     1       0.437   0.602  -0.209  0.00  0.00    +0.376 N 
ATOM     37  H   UNL     1      -0.486   0.622   0.239  0.00  0.00    -0.083 HD
ENDBRANCH  33  36
ENDBRANCH  32  33
ENDBRANCH  31  32
ENDBRANCH   3  31
TORSDOF 7
