REMARK  Name = ZINC58754098
REMARK  12 active torsions:
REMARK  status: ('A' for Active; 'I' for Inactive)
REMARK    1  A    between atoms: C_1  and  C_2
REMARK    2  A    between atoms: C_2  and  C_3
REMARK    3  A    between atoms: C_2  and  C_4
REMARK    4  A    between atoms: C_2  and  C_5
REMARK    5  A    between atoms: C_8  and  C_10
REMARK    6  A    between atoms: C_10  and  N_11
REMARK    7  A    between atoms: N_11  and  C_12
REMARK    8  A    between atoms: N_11  and  C_19
REMARK    9  A    between atoms: C_12  and  C_13
REMARK   10  A    between atoms: C_20  and  N_35
REMARK   11  A    between atoms: N_21  and  C_28
REMARK   12  A    between atoms: C_28  and  C_29
REMARK                            x       y       z     vdW  Elec       q    Type
REMARK                         _______ _______ _______ _____ _____    ______ ____
ROOT
ATOM      1  C   UNL     1       2.640  -4.108  -4.268  0.00  0.00    +0.134 A 
ATOM      2  C   UNL     1       3.333  -4.577  -3.185  0.00  0.00    +0.127 A 
ATOM      3  N   UNL     1       4.676  -4.853  -3.312  0.00  0.00    -0.276 N 
ATOM      4  C   UNL     1       5.301  -4.665  -4.488  0.00  0.00    +0.331 A 
ATOM      5  O   UNL     1       6.488  -4.914  -4.582  0.00  0.00    -0.246 OA
ATOM      6  N   UNL     1       4.635  -4.205  -5.562  0.00  0.00    -0.273 N 
ATOM      7  H   UNL     1       5.105  -4.076  -6.401  0.00  0.00    +0.173 HD
ATOM      8  C   UNL     1       3.319  -3.926  -5.486  0.00  0.00    +0.277 A 
ATOM      9  O   UNL     1       2.721  -3.515  -6.466  0.00  0.00    -0.266 OA
ENDROOT
BRANCH   2  10
ATOM     10  N   UNL     1       2.695  -4.769  -1.981  0.00  0.00    -0.343 N 
ATOM     11  H   UNL     1       1.747  -4.581  -1.899  0.00  0.00    +0.144 HD
ATOM     12  H   UNL     1       3.193  -5.093  -1.214  0.00  0.00    +0.144 HD
ENDBRANCH   2  10
BRANCH   1  13
ATOM     13  N   UNL     1       1.260  -3.817  -4.165  0.00  0.00    -0.310 N 
BRANCH  13  14
ATOM     14  C   UNL     1       0.787  -2.440  -4.335  0.00  0.00    +0.201 C 
BRANCH  14  18
ATOM     15  C   UNL     1      -0.122  -1.083  -1.090  0.00  0.00    +0.131 A 
ATOM     16  C   UNL     1       1.149  -0.667  -1.207  0.00  0.00    +0.156 A 
ATOM     17  N   UNL     1       1.617  -1.109  -2.388  0.00  0.00    -0.220 NA
ATOM     18  C   UNL     1       0.673  -1.778  -2.987  0.00  0.00    +0.213 A 
ATOM     19  O   UNL     1      -0.414  -1.783  -2.204  0.00  0.00    -0.442 OA
BRANCH  15  21
ATOM     20  C   UNL     1      -1.238   0.686   0.242  0.00  0.00    +0.019 C 
ATOM     21  C   UNL     1      -1.047  -0.822   0.071  0.00  0.00    +0.022 C 
ATOM     22  C   UNL     1      -0.440  -1.407   1.347  0.00  0.00    +0.019 C 
ATOM     23  C   UNL     1      -2.402  -1.480  -0.198  0.00  0.00    +0.019 C 
ENDBRANCH  15  21
ENDBRANCH  14  18
ENDBRANCH  13  14
BRANCH  13  24
ATOM     24  C   UNL     1       0.303  -4.891  -3.887  0.00  0.00    +0.141 C 
BRANCH  24  25
ATOM     25  C   UNL     1      -0.233  -5.434  -5.186  0.00  0.00    -0.030 A 
ATOM     26  C   UNL     1      -1.401  -4.922  -5.720  0.00  0.00    +0.005 A 
ATOM     27  C   UNL     1      -1.893  -5.420  -6.912  0.00  0.00    +0.000 A 
ATOM     28  C   UNL     1      -1.217  -6.430  -7.571  0.00  0.00    +0.000 A 
ATOM     29  C   UNL     1      -0.048  -6.941  -7.037  0.00  0.00    +0.000 A 
ATOM     30  C   UNL     1       0.446  -6.440  -5.848  0.00  0.00    +0.005 A 
ENDBRANCH  24  25
ENDBRANCH  13  24
ENDBRANCH   1  13
BRANCH   3  31
ATOM     31  C   UNL     1       5.428  -5.354  -2.159  0.00  0.00    +0.163 C 
BRANCH  31  32
ATOM     32  C   UNL     1       5.376  -6.861  -2.142  0.00  0.00    -0.028 A 
ATOM     33  C   UNL     1       4.355  -7.509  -1.472  0.00  0.00    +0.005 A 
ATOM     34  C   UNL     1       4.307  -8.890  -1.456  0.00  0.00    +0.000 A 
ATOM     35  C   UNL     1       5.280  -9.623  -2.110  0.00  0.00    +0.000 A 
ATOM     36  C   UNL     1       6.300  -8.975  -2.781  0.00  0.00    +0.000 A 
ATOM     37  C   UNL     1       6.345  -7.593  -2.800  0.00  0.00    +0.005 A 
ENDBRANCH  31  32
ENDBRANCH   3  31
TORSDOF 9
