REMARK  Name = ZINC44602677
REMARK  4 active torsions:
REMARK  status: ('A' for Active; 'I' for Inactive)
REMARK    1  A    between atoms: C_1  and  C_2
REMARK    2  A    between atoms: C_7  and  C_8
REMARK    3  A    between atoms: C_10  and  C_17
REMARK    4  A    between atoms: C_12  and  O_16
REMARK                            x       y       z     vdW  Elec       q    Type
REMARK                         _______ _______ _______ _____ _____    ______ ____
ROOT
ATOM      1  C   UNL     1      -0.018   1.503   0.010  0.00  0.00    +0.044 C 
ATOM      2  C   UNL     1       0.002  -0.004   0.002  0.00  0.00    -0.047 A 
ATOM      3  C   UNL     1       0.006  -0.685  -1.197  0.00  0.00    +0.018 A 
ATOM      4  C   UNL     1       0.026  -2.080  -1.197  0.00  0.00    +0.062 A 
ATOM      5  C   UNL     1       0.048  -2.788   0.016  0.00  0.00    +0.132 A 
ATOM      6  C   UNL     1       0.040  -2.082   1.211  0.00  0.00    +0.050 A 
ATOM      7  C   UNL     1       0.023  -0.701   1.199  0.00  0.00    -0.044 A 
ATOM      8  C   UNL     1       0.021   0.055   2.503  0.00  0.00    +0.044 C 
ATOM      9  O   UNL     1       0.082  -4.141   0.029  0.00  0.00    -0.480 OA
ATOM     10  C   UNL     1      -0.384  -4.850  -1.119  0.00  0.00    +0.240 C 
ATOM     11  C   UNL     1       0.330  -4.318  -2.370  0.00  0.00    +0.230 C 
ATOM     12  C   UNL     1       0.024  -2.834  -2.463  0.00  0.00    +0.199 C 
ATOM     13  O   UNL     1      -0.210  -2.296  -3.525  0.00  0.00    -0.289 OA
ENDROOT
BRANCH  10  14
ATOM     14  C   UNL     1      -0.087  -6.319  -0.956  0.00  0.00    -0.001 A 
ATOM     15  C   UNL     1       1.063  -6.723  -0.305  0.00  0.00    +0.011 A 
ATOM     16  C   UNL     1       1.339  -8.069  -0.156  0.00  0.00    +0.050 A 
ATOM     17  C   UNL     1       0.461  -9.018  -0.658  0.00  0.00    +0.162 A 
ATOM     18  C   UNL     1      -0.697  -8.612  -1.310  0.00  0.00    +0.162 A 
ATOM     19  C   UNL     1      -0.969  -7.259  -1.454  0.00  0.00    +0.056 A 
ATOM     20  O   UNL     1      -1.575  -9.527  -1.804  0.00  0.00    -0.485 OA
ATOM     21  C   UNL     1      -1.089 -10.864  -1.966  0.00  0.00    +0.270 C 
ATOM     22  C   UNL     1      -0.334 -11.258  -0.689  0.00  0.00    +0.270 C 
ATOM     23  O   UNL     1       0.749 -10.340  -0.507  0.00  0.00    -0.485 OA
ENDBRANCH  10  14
BRANCH  11  24
ATOM     24  O   UNL     1      -0.158  -4.992  -3.532  0.00  0.00    -0.380 OA
ATOM     25  H   UNL     1       0.254  -4.701  -4.357  0.00  0.00    +0.211 HD
ENDBRANCH  11  24
TORSDOF 2
