REMARK  Name = ZINC35098815
REMARK  11 active torsions:
REMARK  status: ('A' for Active; 'I' for Inactive)
REMARK    1  A    between atoms: C_1  and  C_2
REMARK    2  A    between atoms: C_2  and  C_3
REMARK    3  A    between atoms: C_3  and  C_5
REMARK    4  A    between atoms: C_3  and  C_6
REMARK    5  A    between atoms: C_6  and  C_8
REMARK    6  A    between atoms: C_6  and  N_27
REMARK    7  A    between atoms: C_14  and  C_17
REMARK    8  A    between atoms: N_20  and  C_21
REMARK    9  A    between atoms: N_27  and  S_28
REMARK   10  A    between atoms: S_28  and  C_31
REMARK   11  A    between atoms: C_34  and  N_37
REMARK                            x       y       z     vdW  Elec       q    Type
REMARK                         _______ _______ _______ _____ _____    ______ ____
ROOT
ATOM      1  C   UNL     1       2.188  -0.248  -1.821  0.00  0.00    +0.165 C 
ENDROOT
BRANCH   1   2
ATOM      2  C   UNL     1       2.152   1.244  -1.608  0.00  0.00    +0.235 C 
ATOM      3  O   UNL     1       2.802   1.974  -2.325  0.00  0.00    -0.274 OA
ATOM      4  N   UNL     1       1.398   1.765  -0.621  0.00  0.00    -0.297 N 
ATOM      5  C   UNL     1       0.684   0.888   0.318  0.00  0.00    +0.127 C 
ATOM      6  C   UNL     1      -0.804   1.259   0.300  0.00  0.00    +0.128 C 
ATOM      7  N   UNL     1      -0.927   2.715   0.458  0.00  0.00    -0.280 N 
ATOM      8  C   UNL     1      -0.213   3.592  -0.480  0.00  0.00    +0.092 C 
ATOM      9  C   UNL     1       1.280   3.221  -0.459  0.00  0.00    +0.130 C 
ATOM     10  C   UNL     1      -0.776   3.402  -1.890  0.00  0.00    +0.030 C 
ATOM     11  C   UNL     1      -1.681   3.236   1.446  0.00  0.00    +0.303 C 
ATOM     12  O   UNL     1      -1.855   4.438   1.508  0.00  0.00    -0.253 OA
ATOM     13  N   UNL     1      -2.243   2.426   2.365  0.00  0.00    -0.296 N 
ATOM     14  H   UNL     1      -2.043   1.477   2.361  0.00  0.00    +0.151 HD
BRANCH  13  15
ATOM     15  C   UNL     1      -3.155   2.978   3.369  0.00  0.00    +0.074 C 
ATOM     16  C   UNL     1      -2.346   3.515   4.552  0.00  0.00    +0.022 C 
ATOM     17  C   UNL     1      -3.299   4.092   5.601  0.00  0.00    +0.002 C 
ATOM     18  C   UNL     1      -4.247   2.994   6.088  0.00  0.00    +0.000 C 
ATOM     19  C   UNL     1      -5.055   2.457   4.905  0.00  0.00    +0.002 C 
ATOM     20  C   UNL     1      -4.103   1.880   3.856  0.00  0.00    +0.022 C 
ENDBRANCH  13  15
ENDBRANCH   1   2
BRANCH   1  21
ATOM     21  C   UNL     1       1.128  -0.642  -2.851  0.00  0.00    +0.013 C 
ATOM     22  C   UNL     1      -0.265  -0.381  -2.274  0.00  0.00    +0.009 C 
BRANCH  21  24
ATOM     23  C   UNL     1       2.633  -0.204  -4.797  0.00  0.00    +0.004 C 
ATOM     24  C   UNL     1       1.317   0.189  -4.122  0.00  0.00    +0.002 C 
ENDBRANCH  21  24
ENDBRANCH   1  21
BRANCH   1  25
ATOM     25  N   UNL     1       3.513  -0.639  -2.310  0.00  0.00    -0.178 NA
ATOM     26  H   UNL     1       4.017  -0.038  -2.881  0.00  0.00    +0.149 HD
BRANCH  25  27
ATOM     27  S   UNL     1       4.150  -2.109  -1.889  0.00  0.00    +0.059 S 
ATOM     28  O   UNL     1       5.343  -2.266  -2.645  0.00  0.00    -0.153 OA
ATOM     29  O   UNL     1       4.135  -2.165  -0.469  0.00  0.00    -0.153 OA
BRANCH  27  30
ATOM     30  C   UNL     1       3.029  -3.345  -2.454  0.00  0.00    +0.105 A 
ATOM     31  C   UNL     1       2.070  -3.852  -1.597  0.00  0.00    +0.031 A 
ATOM     32  C   UNL     1       1.190  -4.821  -2.040  0.00  0.00    +0.034 A 
ATOM     33  C   UNL     1       1.268  -5.283  -3.340  0.00  0.00    +0.126 A 
ATOM     34  C   UNL     1       2.227  -4.776  -4.198  0.00  0.00    +0.034 A 
ATOM     35  C   UNL     1       3.104  -3.803  -3.756  0.00  0.00    +0.031 A 
BRANCH  33  36
ATOM     36  N   UNL     1       0.327  -6.322  -3.815  0.00  0.00    +0.056 N 
ATOM     37  O   UNL     1      -0.511  -6.767  -3.065  0.00  0.00    -0.126 OA
ATOM     38  O   UNL     1       0.396  -6.726  -4.952  0.00  0.00    -0.126 OA
ENDBRANCH  33  36
ENDBRANCH  27  30
ENDBRANCH  25  27
ENDBRANCH   1  25
TORSDOF 8
