REMARK  Name = ZINC21147880
REMARK  4 active torsions:
REMARK  status: ('A' for Active; 'I' for Inactive)
REMARK    1  A    between atoms: C_8  and  N_12
REMARK    2  A    between atoms: C_9  and  O_10
REMARK    3  A    between atoms: C_13  and  C_15
REMARK    4  A    between atoms: N_25  and  C_26
REMARK                            x       y       z     vdW  Elec       q    Type
REMARK                         _______ _______ _______ _____ _____    ______ ____
ROOT
ATOM      1  C   UNL     1       5.569  12.723   1.391  0.00  0.00    +0.001 A 
ATOM      2  C   UNL     1       6.805  12.212   1.024  0.00  0.00    +0.004 A 
ATOM      3  C   UNL     1       6.912  10.943   0.494  0.00  0.00    +0.047 A 
ATOM      4  C   UNL     1       5.775  10.164   0.325  0.00  0.00    +0.141 A 
ATOM      5  C   UNL     1       4.524  10.681   0.696  0.00  0.00    +0.042 A 
ATOM      6  C   UNL     1       4.429  11.967   1.231  0.00  0.00    +0.013 A 
ATOM      7  C   UNL     1       3.325   9.849   0.507  0.00  0.00    +0.075 A 
ATOM      8  C   UNL     1       3.493   8.582  -0.025  0.00  0.00    +0.139 A 
ATOM      9  C   UNL     1       4.785   8.143  -0.369  0.00  0.00    +0.309 A 
ATOM     10  O   UNL     1       5.866   8.920  -0.193  0.00  0.00    -0.424 OA
ATOM     11  N   UNL     1       2.071  10.316   0.852  0.00  0.00    -0.380 N 
ATOM     12  H   UNL     1       1.400  10.716   0.077  0.00  0.00    +0.160 HD
ENDROOT
BRANCH  11  13
ATOM     13  C   UNL     1       1.841  10.187   2.297  0.00  0.00    +0.079 C 
ATOM     14  C   UNL     1       1.395   8.759   2.617  0.00  0.00    +0.024 C 
ATOM     15  C   UNL     1       1.155   8.624   4.122  0.00  0.00    +0.002 C 
ATOM     16  C   UNL     1       0.066   9.608   4.555  0.00  0.00    +0.000 C 
ATOM     17  C   UNL     1       0.511  11.036   4.235  0.00  0.00    +0.002 C 
ATOM     18  C   UNL     1       0.751  11.170   2.730  0.00  0.00    +0.024 C 
ENDBRANCH  11  13
BRANCH   8  19
ATOM     19  N   UNL     1       2.384   7.743  -0.223  0.00  0.00    -0.274 N 
ATOM     20  C   UNL     1       2.418   6.467   0.210  0.00  0.00    +0.257 C 
ATOM     21  O   UNL     1       3.444   6.010   0.677  0.00  0.00    -0.269 OA
ATOM     22  H   UNL     1       1.488   8.128  -0.732  0.00  0.00    +0.155 HD
BRANCH  20  23
ATOM     23  C   UNL     1       1.216   5.629   0.117  0.00  0.00    +0.094 A 
ATOM     24  C   UNL     1       1.056   4.332   0.497  0.00  0.00    +0.068 A 
ATOM     25  C   UNL     1      -0.190   3.699   0.323  0.00  0.00    +0.008 A 
ATOM     26  C   UNL     1      -0.552   2.368   0.652  0.00  0.00    +0.010 A 
ATOM     27  C   UNL     1      -1.808   1.911   0.416  0.00  0.00    +0.001 A 
ATOM     28  C   UNL     1      -2.782   2.720  -0.158  0.00  0.00    +0.001 A 
ATOM     29  C   UNL     1      -2.474   4.024  -0.487  0.00  0.00    +0.016 A 
ATOM     30  C   UNL     1      -1.202   4.502  -0.254  0.00  0.00    +0.021 A 
ATOM     31  S   UNL     1      -0.394   6.059  -0.521  0.00  0.00    -0.082 S 
ATOM     32 CL   UNL     1       2.384   3.460   1.196  0.00  0.00    -0.082 Cl
ENDBRANCH  20  23
ENDBRANCH   8  19
BRANCH   9  33
ATOM     33  O   UNL     1       4.926   7.029  -0.842  0.00  0.00    -0.479 OA
ATOM     34  H   UNL     1       5.930   6.671  -1.117  0.00  0.00    +0.295 HD
ENDBRANCH   9  33
TORSDOF 4
