REMARK  Name = ZINC39634633
REMARK  14 active torsions:
REMARK  status: ('A' for Active; 'I' for Inactive)
REMARK    1  A    between atoms: C_1  and  C_2
REMARK    2  A    between atoms: C_2  and  C_3
REMARK    3  A    between atoms: C_2  and  C_4
REMARK    4  A    between atoms: C_4  and  C_6
REMARK    5  A    between atoms: C_4  and  O_34
REMARK    6  A    between atoms: C_10  and  C_19
REMARK    7  A    between atoms: N_21  and  C_22
REMARK    8  A    between atoms: C_22  and  C_23
REMARK    9  A    between atoms: C_23  and  C_24
REMARK   10  A    between atoms: C_27  and  O_32
REMARK   11  A    between atoms: C_28  and  O_30
REMARK   12  A    between atoms: O_30  and  C_31
REMARK   13  A    between atoms: O_32  and  C_33
REMARK   14  A    between atoms: O_34  and  C_35
REMARK                            x       y       z     vdW  Elec       q    Type
REMARK                         _______ _______ _______ _____ _____    ______ ____
ROOT
ATOM      1  C   UNL     1       0.863  -1.915  -1.333  0.00  0.00    +0.257 C 
ATOM      2  O   UNL     1       0.315  -2.534  -2.221  0.00  0.00    -0.272 OA
ATOM      3  N   UNL     1       1.543  -2.574  -0.374  0.00  0.00    -0.297 N 
ATOM      4  C   UNL     1       2.339  -1.996   0.735  0.00  0.00    +0.121 C 
ATOM      5  C   UNL     1       2.034  -2.903   1.948  0.00  0.00    +0.100 C 
ATOM      6  C   UNL     1       1.593  -4.243   1.336  0.00  0.00    -0.004 C 
ATOM      7  C   UNL     1       1.658  -4.040  -0.185  0.00  0.00    +0.115 C 
ATOM      8  C   UNL     1       0.164  -4.572   1.758  0.00  0.00    -0.010 C 
ATOM      9  C   UNL     1      -0.231  -5.935   1.183  0.00  0.00    -0.082 C 
ATOM     10  N   UNL     1       0.695  -6.963   1.675  0.00  0.00    +0.379 N 
ATOM     11  C   UNL     1       2.052  -6.689   1.188  0.00  0.00    -0.082 C 
ATOM     12  C   UNL     1       2.544  -5.357   1.762  0.00  0.00    -0.010 C 
ATOM     13  H   UNL     1       0.694  -6.959   2.684  0.00  0.00    -0.086 HD
ATOM     14  H   UNL     1       0.397  -7.868   1.345  0.00  0.00    -0.086 HD
ENDROOT
BRANCH   5  15
ATOM     15  C   UNL     1       3.272  -3.089   2.788  0.00  0.00    +0.218 C 
ATOM     16  O   UNL     1       4.369  -2.977   2.284  0.00  0.00    -0.275 OA
ATOM     17  N   UNL     1       3.159  -3.380   4.099  0.00  0.00    -0.315 N 
ATOM     18  H   UNL     1       2.281  -3.470   4.502  0.00  0.00    +0.149 HD
BRANCH  17  19
ATOM     19  C   UNL     1       4.362  -3.561   4.915  0.00  0.00    +0.109 C 
BRANCH  19  20
ATOM     20  C   UNL     1       3.957  -3.881   6.356  0.00  0.00    +0.054 C 
BRANCH  20  21
ATOM     21  C   UNL     1       5.194  -4.067   7.196  0.00  0.00    -0.042 A 
ATOM     22  C   UNL     1       5.764  -5.321   7.316  0.00  0.00    +0.007 A 
ATOM     23  C   UNL     1       6.900  -5.497   8.085  0.00  0.00    +0.049 A 
ATOM     24  C   UNL     1       7.469  -4.415   8.737  0.00  0.00    +0.161 A 
ATOM     25  C   UNL     1       6.895  -3.153   8.616  0.00  0.00    +0.162 A 
ATOM     26  C   UNL     1       5.760  -2.982   7.840  0.00  0.00    +0.053 A 
BRANCH  25  27
ATOM     27  O   UNL     1       7.450  -2.088   9.254  0.00  0.00    -0.491 OA
ATOM     28  C   UNL     1       6.808  -0.823   9.085  0.00  0.00    +0.277 C 
ENDBRANCH  25  27
BRANCH  24  29
ATOM     29  O   UNL     1       8.585  -4.586   9.495  0.00  0.00    -0.491 OA
ATOM     30  C   UNL     1       9.119  -5.910   9.574  0.00  0.00    +0.277 C 
ENDBRANCH  24  29
ENDBRANCH  20  21
ENDBRANCH  19  20
ENDBRANCH  17  19
ENDBRANCH   5  15
BRANCH   1  31
ATOM     31  C   UNL     1       0.784  -0.411  -1.303  0.00  0.00    +0.261 C 
BRANCH  31  33
ATOM     32  C   UNL     1      -0.014   1.559   0.010  0.00  0.00    +0.011 C 
ATOM     33  C   UNL     1      -0.043   0.033  -0.095  0.00  0.00    +0.033 C 
ATOM     34  C   UNL     1      -1.489  -0.439  -0.266  0.00  0.00    +0.011 C 
ENDBRANCH  31  33
BRANCH  31  35
ATOM     35  O   UNL     1       0.165   0.058  -2.503  0.00  0.00    -0.479 OA
BRANCH  35  36
ATOM     36  C   UNL     1       0.601   1.246  -2.999  0.00  0.00    +0.122 A 
ATOM     37  C   UNL     1       1.666   1.901  -2.398  0.00  0.00    +0.045 A 
ATOM     38  C   UNL     1       2.107   3.108  -2.904  0.00  0.00    +0.004 A 
ATOM     39  C   UNL     1       1.487   3.664  -4.008  0.00  0.00    +0.000 A 
ATOM     40  C   UNL     1       0.425   3.014  -4.608  0.00  0.00    +0.004 A 
ATOM     41  C   UNL     1      -0.016   1.803  -4.109  0.00  0.00    +0.045 A 
ENDBRANCH  35  36
ENDBRANCH  31  35
ENDBRANCH   1  31
TORSDOF 10
