REMARK  Name = ZINC35666509
REMARK  10 active torsions:
REMARK  status: ('A' for Active; 'I' for Inactive)
REMARK    1  A    between atoms: C_1  and  C_2
REMARK    2  A    between atoms: C_5  and  C_8
REMARK    3  A    between atoms: C_8  and  N_9
REMARK    4  A    between atoms: C_14  and  O_26
REMARK    5  A    between atoms: C_15  and  O_24
REMARK    6  A    between atoms: C_18  and  C_20
REMARK    7  A    between atoms: C_20  and  C_22
REMARK    8  A    between atoms: C_20  and  N_23
REMARK    9  A    between atoms: O_24  and  C_25
REMARK   10  A    between atoms: O_26  and  C_27
REMARK                            x       y       z     vdW  Elec       q    Type
REMARK                         _______ _______ _______ _____ _____    ______ ____
ROOT
ATOM      1  N   UNL     1       1.339  -6.043  -0.654  0.00  0.00    -0.293 NA
ATOM      2  C   UNL     1       1.869  -6.609  -1.904  0.00  0.00    +0.090 C 
ATOM      3  C   UNL     1       3.386  -6.743  -1.771  0.00  0.00    +0.051 C 
ATOM      4  C   UNL     1       3.730  -7.455  -0.488  0.00  0.00    -0.038 A 
ATOM      5  C   UNL     1       5.003  -7.987  -0.350  0.00  0.00    +0.053 A 
ATOM      6  C   UNL     1       5.364  -8.645   0.812  0.00  0.00    +0.162 A 
ATOM      7  C   UNL     1       4.443  -8.771   1.848  0.00  0.00    +0.162 A 
ATOM      8  C   UNL     1       3.174  -8.240   1.704  0.00  0.00    +0.054 A 
ATOM      9  C   UNL     1       2.815  -7.583   0.536  0.00  0.00    -0.025 A 
ATOM     10  C   UNL     1       1.417  -7.032   0.426  0.00  0.00    +0.073 C 
ENDROOT
BRANCH  10  11
ATOM     11  C   UNL     1       1.031  -6.367   1.749  0.00  0.00    -0.056 C 
ATOM     12  C   UNL     1       1.790  -5.047   1.897  0.00  0.00    -0.012 C 
BRANCH  11  13
ATOM     13  N   UNL     1      -0.414  -6.106   1.761  0.00  0.00    +0.381 N 
ATOM     14  H   UNL     1      -0.871  -6.704   1.089  0.00  0.00    -0.090 HD
ATOM     15  H   UNL     1      -0.782  -6.293   2.682  0.00  0.00    -0.090 HD
ATOM     16  H   UNL     1      -0.584  -5.140   1.522  0.00  0.00    -0.090 HD
ENDBRANCH  11  13
ENDBRANCH  10  11
BRANCH   7  17
ATOM     17  O   UNL     1       4.788  -9.415   2.995  0.00  0.00    -0.491 OA
ATOM     18  C   UNL     1       3.790  -9.505   4.014  0.00  0.00    +0.277 C 
ENDBRANCH   7  17
BRANCH   6  19
ATOM     19  O   UNL     1       6.614  -9.166   0.942  0.00  0.00    -0.491 OA
ATOM     20  C   UNL     1       7.505  -8.999  -0.162  0.00  0.00    +0.277 C 
ENDBRANCH   6  19
BRANCH   1  21
ATOM     21  C   UNL     1      -0.040  -5.568  -0.834  0.00  0.00    +0.120 C 
BRANCH  21  26
ATOM     22  C   UNL     1      -0.104  -1.222  -4.641  0.00  0.00    +0.044 C 
ATOM     23  C   UNL     1      -0.087  -2.355  -3.648  0.00  0.00    -0.050 A 
ATOM     24  C   UNL     1      -0.232  -3.659  -4.085  0.00  0.00    +0.003 A 
ATOM     25  C   UNL     1      -0.216  -4.699  -3.174  0.00  0.00    +0.005 A 
ATOM     26  C   UNL     1      -0.056  -4.435  -1.827  0.00  0.00    -0.033 A 
ATOM     27  C   UNL     1       0.089  -3.131  -1.390  0.00  0.00    +0.005 A 
ATOM     28  C   UNL     1       0.078  -2.092  -2.301  0.00  0.00    +0.003 A 
ENDBRANCH  21  26
ENDBRANCH   1  21
TORSDOF 6
