REMARK  Name = ZINC21224281
REMARK  6 active torsions:
REMARK  status: ('A' for Active; 'I' for Inactive)
REMARK    1  A    between atoms: C_1  and  C_2
REMARK    2  A    between atoms: C_3  and  N_9
REMARK    3  A    between atoms: C_10  and  C_12
REMARK    4  A    between atoms: C_12  and  C_13
REMARK    5  A    between atoms: N_19  and  C_20
REMARK    6  A    between atoms: C_20  and  C_21
REMARK                            x       y       z     vdW  Elec       q    Type
REMARK                         _______ _______ _______ _____ _____    ______ ____
ROOT
ATOM      1  C   UNL     1       1.386  -0.635  -0.022  0.00  0.00    +0.149 C 
ATOM      2  C   UNL     1       0.013   0.018  -0.011  0.00  0.00    +0.232 C 
ATOM      3  O   UNL     1      -1.010  -0.633  -0.009  0.00  0.00    -0.274 OA
ATOM      4  N   UNL     1       0.004   1.340  -0.004  0.00  0.00    -0.264 N 
ATOM      5  C   UNL     1       1.167   2.086  -0.006  0.00  0.00    +0.157 C 
ATOM      6  N   UNL     1       1.292   3.383   0.001  0.00  0.00    -0.255 NA
ATOM      7  S   UNL     1       2.461   0.854  -0.020  0.00  0.00    -0.077 S 
ATOM      8  H   UNL     1      -0.952   1.884   0.004  0.00  0.00    +0.157 HD
ENDROOT
BRANCH   1   9
ATOM      9  C   UNL     1       1.593  -1.466  -1.290  0.00  0.00    +0.120 C 
BRANCH   9  11
ATOM     10  N   UNL     1       3.308  -2.991  -2.215  0.00  0.00    -0.285 N 
ATOM     11  C   UNL     1       2.911  -2.192  -1.204  0.00  0.00    +0.219 C 
ATOM     12  O   UNL     1       3.615  -2.058  -0.225  0.00  0.00    -0.275 OA
ATOM     13  H   UNL     1       2.631  -3.185  -3.060  0.00  0.00    +0.155 HD
BRANCH  10  16
ATOM     14  C   UNL     1       3.718  -5.390  -3.689  0.00  0.00    +0.047 C 
ATOM     15  C   UNL     1       4.823  -4.745  -2.894  0.00  0.00    -0.011 A 
ATOM     16  C   UNL     1       4.580  -3.573  -2.188  0.00  0.00    +0.038 A 
ATOM     17  C   UNL     1       5.603  -2.978  -1.462  0.00  0.00    +0.023 A 
ATOM     18  C   UNL     1       6.856  -3.558  -1.432  0.00  0.00    +0.003 A 
ATOM     19  C   UNL     1       7.096  -4.724  -2.135  0.00  0.00    +0.020 A 
ATOM     20  C   UNL     1       6.081  -5.317  -2.866  0.00  0.00    +0.046 A 
ATOM     21 CL   UNL     1       6.387  -6.781  -3.747  0.00  0.00    -0.083 Cl
ENDBRANCH  10  16
ENDBRANCH   9  11
ENDBRANCH   1   9
BRANCH   6  22
ATOM     22  C   UNL     1       2.624   3.991  -0.004  0.00  0.00    +0.218 C 
BRANCH  22  23
ATOM     23  C   UNL     1       2.825   4.753  -1.288  0.00  0.00    +0.126 A 
ATOM     24  C   UNL     1       2.517   6.046  -1.492  0.00  0.00    +0.046 A 
ATOM     25  C   UNL     1       2.871   6.346  -2.828  0.00  0.00    +0.041 A 
ATOM     26  C   UNL     1       3.367   5.215  -3.363  0.00  0.00    +0.195 A 
ATOM     27  O   UNL     1       3.336   4.254  -2.425  0.00  0.00    -0.466 OA
ENDBRANCH  22  23
ENDBRANCH   6  22
TORSDOF 5
