REMARK  Name = ZINC12544764
REMARK  8 active torsions:
REMARK  status: ('A' for Active; 'I' for Inactive)
REMARK    1  A    between atoms: C_1  and  C_2
REMARK    2  A    between atoms: C_4  and  C_31
REMARK    3  A    between atoms: C_5  and  C_30
REMARK    4  A    between atoms: C_6  and  S_9
REMARK    5  A    between atoms: C_7  and  C_8
REMARK    6  A    between atoms: S_9  and  N_12
REMARK    7  A    between atoms: N_12  and  C_13
REMARK    8  A    between atoms: C_14  and  C_22
REMARK                            x       y       z     vdW  Elec       q    Type
REMARK                         _______ _______ _______ _____ _____    ______ ____
ROOT
ATOM      1  C   UNL     1      -1.746   5.283  -1.296  0.00  0.00    +0.098 A 
ATOM      2  C   UNL     1      -1.423   4.666  -0.094  0.00  0.00    +0.070 A 
ATOM      3  C   UNL     1      -1.254   3.221  -0.105  0.00  0.00    -0.023 A 
ATOM      4  C   UNL     1      -1.431   2.631  -1.306  0.00  0.00    -0.004 A 
ATOM      5  S   UNL     1      -1.818   3.959  -2.411  0.00  0.00    -0.076 S 
ATOM      6  C   UNL     1      -1.320   1.171  -1.620  0.00  0.00    +0.043 C 
ATOM      7  C   UNL     1      -0.606   0.477  -0.451  0.00  0.00    +0.005 C 
ATOM      8  C   UNL     1      -1.247   0.935   0.863  0.00  0.00    +0.005 C 
ATOM      9  C   UNL     1      -0.901   2.400   1.129  0.00  0.00    +0.037 C 
ENDROOT
BRANCH   2  10
ATOM     10  C   UNL     1      -1.261   5.440   1.138  0.00  0.00    +0.249 C 
ATOM     11  O   UNL     1      -0.168   5.885   1.438  0.00  0.00    -0.270 OA
ATOM     12  N   UNL     1      -2.321   5.661   1.941  0.00  0.00    -0.293 N 
ATOM     13  C   UNL     1      -3.653   5.139   1.596  0.00  0.00    +0.136 C 
ATOM     14  C   UNL     1      -4.206   4.393   2.821  0.00  0.00    +0.179 C 
ATOM     15  O   UNL     1      -4.136   5.250   3.963  0.00  0.00    -0.377 OA
ATOM     16  C   UNL     1      -2.808   5.632   4.328  0.00  0.00    +0.179 C 
ATOM     17  C   UNL     1      -2.182   6.436   3.184  0.00  0.00    +0.136 C 
ENDBRANCH   2  10
BRANCH   1  18
ATOM     18  N   UNL     1      -1.958   6.626  -1.542  0.00  0.00    -0.209 N 
ATOM     19  H   UNL     1      -1.962   7.259  -0.807  0.00  0.00    +0.174 HD
BRANCH  18  20
ATOM     20  S   UNL     1      -2.205   7.155  -3.092  0.00  0.00    +0.073 S 
ATOM     21  O   UNL     1      -2.418   8.557  -3.013  0.00  0.00    -0.150 OA
ATOM     22  O   UNL     1      -1.174   6.584  -3.885  0.00  0.00    -0.150 OA
BRANCH  20  28
ATOM     23  C   UNL     1      -4.891   3.924  -6.201  0.00  0.00    +0.044 C 
ATOM     24  C   UNL     1      -4.900   4.950  -5.098  0.00  0.00    -0.045 A 
ATOM     25  C   UNL     1      -6.096   5.336  -4.522  0.00  0.00    +0.007 A 
ATOM     26  C   UNL     1      -6.104   6.277  -3.509  0.00  0.00    -0.045 A 
ATOM     27  C   UNL     1      -4.916   6.832  -3.072  0.00  0.00    -0.021 A 
ATOM     28  C   UNL     1      -3.720   6.446  -3.648  0.00  0.00    +0.115 A 
ATOM     29  C   UNL     1      -3.712   5.509  -4.665  0.00  0.00    -0.021 A 
ATOM     30  C   UNL     1      -2.409   5.094  -5.296  0.00  0.00    +0.046 C 
ATOM     31  C   UNL     1      -4.925   7.858  -1.969  0.00  0.00    +0.046 C 
ATOM     32  C   UNL     1      -7.408   6.697  -2.882  0.00  0.00    +0.044 C 
ENDBRANCH  20  28
ENDBRANCH  18  20
ENDBRANCH   1  18
TORSDOF 4
