REMARK  Name = ZINC40727070
REMARK  6 active torsions:
REMARK  status: ('A' for Active; 'I' for Inactive)
REMARK    1  A    between atoms: C_4  and  C_7
REMARK    2  A    between atoms: C_7  and  C_8
REMARK    3  A    between atoms: C_7  and  N_14
REMARK    4  A    between atoms: C_16  and  N_33
REMARK    5  A    between atoms: C_17  and  N_21
REMARK    6  A    between atoms: N_24  and  C_27
REMARK                            x       y       z     vdW  Elec       q    Type
REMARK                         _______ _______ _______ _____ _____    ______ ____
ROOT
ATOM      1  N   UNL     1       3.623  -1.872  -0.878  0.00  0.00    -0.317 N 
ATOM      2  C   UNL     1       4.759  -2.392  -1.486  0.00  0.00    +0.145 A 
ATOM      3  C   UNL     1       4.665  -3.492  -2.341  0.00  0.00    +0.105 A 
ATOM      4  C   UNL     1       5.838  -3.973  -2.925  0.00  0.00    +0.147 A 
ATOM      5  N   UNL     1       6.991  -3.370  -2.649  0.00  0.00    -0.219 NA
ATOM      6  C   UNL     1       7.036  -2.334  -1.836  0.00  0.00    +0.225 A 
ATOM      7  N   UNL     1       5.952  -1.845  -1.267  0.00  0.00    -0.219 NA
ATOM      8  H   UNL     1       2.756  -2.276  -1.042  0.00  0.00    +0.148 HD
ENDROOT
BRANCH   4   9
ATOM      9  N   UNL     1       5.801  -5.066  -3.783  0.00  0.00    -0.311 N 
ATOM     10  C   UNL     1       5.724  -4.873  -5.238  0.00  0.00    +0.125 C 
ATOM     11  C   UNL     1       6.891  -5.622  -5.894  0.00  0.00    +0.124 C 
ATOM     12  N   UNL     1       6.928  -6.991  -5.362  0.00  0.00    -0.327 N 
ATOM     13  C   UNL     1       7.004  -7.185  -3.908  0.00  0.00    +0.124 C 
ATOM     14  C   UNL     1       5.843  -6.436  -3.252  0.00  0.00    +0.125 C 
BRANCH  12  15
ATOM     15  C   UNL     1       6.891  -8.089  -6.225  0.00  0.00    +0.030 A 
ATOM     16  C   UNL     1       6.947  -7.897  -7.599  0.00  0.00    +0.023 A 
ATOM     17  C   UNL     1       6.910  -8.986  -8.449  0.00  0.00    +0.002 A 
ATOM     18  C   UNL     1       6.818 -10.265  -7.933  0.00  0.00    +0.000 A 
ATOM     19  C   UNL     1       6.763 -10.460  -6.565  0.00  0.00    +0.002 A 
ATOM     20  C   UNL     1       6.804  -9.376  -5.709  0.00  0.00    +0.023 A 
ENDBRANCH  12  15
ENDBRANCH   4   9
BRANCH   3  21
ATOM     21  N   UNL     1       3.426  -4.098  -2.604  0.00  0.00    -0.353 N 
ATOM     22  H   UNL     1       2.631  -3.800  -2.134  0.00  0.00    +0.143 HD
ATOM     23  H   UNL     1       3.365  -4.814  -3.255  0.00  0.00    +0.143 HD
ENDBRANCH   3  21
BRANCH   1  24
ATOM     24  C   UNL     1       3.733  -0.713   0.012  0.00  0.00    +0.132 C 
BRANCH  24  28
ATOM     25  C   UNL     1       0.001   1.363   0.113  0.00  0.00    +0.000 A 
ATOM     26  C   UNL     1       1.187   2.073   0.087  0.00  0.00    +0.000 A 
ATOM     27  C   UNL     1       2.394   1.401   0.054  0.00  0.00    +0.006 A 
ATOM     28  C   UNL     1       2.416   0.019   0.049  0.00  0.00    -0.023 A 
ATOM     29  C   UNL     1       1.231  -0.691   0.076  0.00  0.00    +0.006 A 
ATOM     30  C   UNL     1       0.023  -0.019   0.107  0.00  0.00    +0.000 A 
ENDBRANCH  24  28
BRANCH  24  31
ATOM     31  C   UNL     1       4.088  -1.179   1.401  0.00  0.00    -0.023 A 
ATOM     32  C   UNL     1       3.510  -2.325   1.915  0.00  0.00    +0.006 A 
ATOM     33  C   UNL     1       3.835  -2.751   3.189  0.00  0.00    +0.000 A 
ATOM     34  C   UNL     1       4.738  -2.032   3.949  0.00  0.00    +0.000 A 
ATOM     35  C   UNL     1       5.317  -0.887   3.435  0.00  0.00    +0.000 A 
ATOM     36  C   UNL     1       4.995  -0.463   2.159  0.00  0.00    +0.006 A 
ENDBRANCH  24  31
ENDBRANCH   1  24
TORSDOF 6
