REMARK  Name = ZINC36740083
REMARK  8 active torsions:
REMARK  status: ('A' for Active; 'I' for Inactive)
REMARK    1  A    between atoms: C_1  and  C_2
REMARK    2  A    between atoms: C_5  and  C_7
REMARK    3  A    between atoms: C_9  and  N_29
REMARK    4  A    between atoms: N_12  and  C_14
REMARK    5  A    between atoms: C_14  and  C_16
REMARK    6  A    between atoms: C_14  and  C_17
REMARK    7  A    between atoms: C_21  and  C_28
REMARK    8  A    between atoms: C_24  and  C_27
REMARK                            x       y       z     vdW  Elec       q    Type
REMARK                         _______ _______ _______ _____ _____    ______ ____
ROOT
ATOM      1  C   UNL     1       1.814  -4.442  -0.179  0.00  0.00    +0.100 A 
ATOM      2  C   UNL     1       3.118  -4.981  -0.146  0.00  0.00    +0.058 A 
ATOM      3  C   UNL     1       3.288  -6.333  -0.082  0.00  0.00    +0.094 A 
ATOM      4  C   UNL     1       2.146  -7.173  -0.049  0.00  0.00    +0.289 A 
ATOM      5  O   UNL     1       2.276  -8.385   0.009  0.00  0.00    -0.264 OA
ATOM      6  N   UNL     1       0.915  -6.624  -0.082  0.00  0.00    -0.216 N 
ATOM      7  N   UNL     1       0.763  -5.234  -0.143  0.00  0.00    -0.167 NA
ENDROOT
BRANCH   1  12
ATOM      8  C   UNL     1       2.090   1.182  -0.444  0.00  0.00    +0.051 C 
ATOM      9  C   UNL     1       1.755  -0.286  -0.375  0.00  0.00    -0.013 A 
ATOM     10  C   UNL     1       0.536  -0.883  -0.348  0.00  0.00    +0.011 A 
ATOM     11  C   UNL     1       0.463  -2.257  -0.283  0.00  0.00    +0.018 A 
ATOM     12  C   UNL     1       1.627  -2.977  -0.248  0.00  0.00    +0.040 A 
ATOM     13  S   UNL     1       2.859  -1.688  -0.316  0.00  0.00    -0.092 S 
ENDBRANCH   1  12
BRANCH   3  14
ATOM     14  N   UNL     1       4.569  -6.883  -0.049  0.00  0.00    -0.354 N 
ATOM     15  H   UNL     1       5.347  -6.303  -0.072  0.00  0.00    +0.142 HD
ATOM     16  H   UNL     1       4.683  -7.845  -0.004  0.00  0.00    +0.142 HD
ENDBRANCH   3  14
BRANCH   6  17
ATOM     17  C   UNL     1      -0.269  -7.485  -0.049  0.00  0.00    +0.194 C 
ATOM     18  C   UNL     1      -1.113  -7.145   1.181  0.00  0.00    +0.043 C 
BRANCH  17  19
ATOM     19  C   UNL     1      -1.086  -7.264  -1.296  0.00  0.00    +0.240 C 
ATOM     20  O   UNL     1      -1.025  -6.204  -1.881  0.00  0.00    -0.273 OA
ATOM     21  N   UNL     1      -1.885  -8.245  -1.761  0.00  0.00    -0.299 N 
ATOM     22  C   UNL     1      -2.059  -9.492  -1.002  0.00  0.00    +0.111 C 
ATOM     23  C   UNL     1      -3.557  -9.735  -0.791  0.00  0.00    +0.004 C 
ATOM     24  C   UNL     1      -4.268  -9.719  -2.146  0.00  0.00    +0.009 C 
ATOM     25  C   UNL     1      -4.089  -8.348  -2.802  0.00  0.00    +0.004 C 
ATOM     26  C   UNL     1      -2.603  -8.086  -3.033  0.00  0.00    +0.111 C 
ATOM     27  C   UNL     1      -4.829  -8.322  -4.141  0.00  0.00    +0.009 C 
ATOM     28  C   UNL     1      -3.763 -11.095  -0.121  0.00  0.00    +0.009 C 
ENDBRANCH  17  19
ENDBRANCH   6  17
TORSDOF 4
