REMARK  Name = ZINC21535646
REMARK  5 active torsions:
REMARK  status: ('A' for Active; 'I' for Inactive)
REMARK    1  A    between atoms: C_6  and  S_7
REMARK    2  A    between atoms: S_7  and  N_10
REMARK    3  A    between atoms: N_10  and  C_11
REMARK    4  A    between atoms: C_11  and  C_12
REMARK    5  A    between atoms: C_15  and  C_18
REMARK                            x       y       z     vdW  Elec       q    Type
REMARK                         _______ _______ _______ _____ _____    ______ ____
ROOT
ATOM      1  N   UNL     1      -4.347  -1.238   1.548  0.00  0.00    -0.190 NA
ATOM      2  H   UNL     1      -4.207  -2.242   1.976  0.00  0.00    +0.148 HD
ENDROOT
BRANCH   1   3
ATOM      3  S   UNL     1      -3.921  -0.964  -0.029  0.00  0.00    +0.058 S 
ATOM      4  O   UNL     1      -4.912  -0.105  -0.574  0.00  0.00    -0.153 OA
ATOM      5  O   UNL     1      -3.618  -2.232  -0.594  0.00  0.00    -0.153 OA
BRANCH   3  11
ATOM      6  C   UNL     1      -2.441   1.334   0.007  0.00  0.00    +0.030 A 
ATOM      7  C   UNL     1      -1.258   2.033   0.017  0.00  0.00    +0.025 A 
ATOM      8  C   UNL     1      -0.017   1.374   0.010  0.00  0.00    +0.037 A 
ATOM      9  C   UNL     1       0.002  -0.004   0.002  0.00  0.00    -0.024 A 
ATOM     10  C   UNL     1      -1.205  -0.703  -0.012  0.00  0.00    +0.034 A 
ATOM     11  C   UNL     1      -2.416  -0.049  -0.010  0.00  0.00    +0.106 A 
ATOM     12  C   UNL     1       1.234  -0.850   0.011  0.00  0.00    +0.037 C 
ATOM     13  C   UNL     1       2.382  -0.318   0.811  0.00  0.00    +0.014 C 
ATOM     14  C   UNL     1       3.136   0.791   0.118  0.00  0.00    +0.096 C 
ATOM     15  C   UNL     1       2.369   2.065   0.115  0.00  0.00    +0.217 C 
ATOM     16  O   UNL     1       3.016   3.085   0.229  0.00  0.00    -0.275 OA
ATOM     17  N   UNL     1       1.079   2.207   0.004  0.00  0.00    -0.285 N 
ATOM     18  H   UNL     1       0.945   3.291  -0.121  0.00  0.00    +0.155 HD
ENDBRANCH   3  11
ENDBRANCH   1   3
BRANCH   1  19
ATOM     19  C   UNL     1      -4.697  -0.113   2.418  0.00  0.00    +0.109 C 
BRANCH  19  20
ATOM     20  C   UNL     1      -5.398  -0.638   3.673  0.00  0.00    +0.005 C 
ATOM     21  C   UNL     1      -6.732  -1.276   3.282  0.00  0.00    +0.005 C 
ATOM     22  C   UNL     1      -7.434  -1.801   4.536  0.00  0.00    +0.013 C 
ATOM     23  C   UNL     1      -7.687  -0.641   5.501  0.00  0.00    +0.075 C 
ATOM     24  C   UNL     1      -6.353  -0.002   5.893  0.00  0.00    +0.013 C 
ATOM     25  C   UNL     1      -5.652   0.522   4.638  0.00  0.00    +0.005 C 
BRANCH  23  26
ATOM     26  C   UNL     1      -8.379  -1.157   6.737  0.00  0.00    +0.222 C 
ATOM     27  O   UNL     1      -7.855  -1.028   7.823  0.00  0.00    -0.275 OA
ATOM     28  N   UNL     1      -9.578  -1.764   6.635  0.00  0.00    -0.264 N 
ATOM     29  C   UNL     1     -10.215  -2.240   7.774  0.00  0.00    +0.164 A 
ATOM     30  N   UNL     1     -11.378  -2.854   7.878  0.00  0.00    -0.233 NA
ATOM     31  C   UNL     1     -11.842  -3.245   9.049  0.00  0.00    +0.120 A 
ATOM     32  C   UNL     1     -11.095  -3.002  10.154  0.00  0.00    +0.068 A 
ATOM     33  S   UNL     1      -9.681  -2.186   9.426  0.00  0.00    -0.061 S 
ATOM     34  H   UNL     1     -10.052  -1.882   5.649  0.00  0.00    +0.157 HD
ENDBRANCH  23  26
ENDBRANCH  19  20
ENDBRANCH   1  19
TORSDOF 5
