REMARK  Name = ZINC04126670
REMARK  4 active torsions:
REMARK  status: ('A' for Active; 'I' for Inactive)
REMARK    1  A    between atoms: C_3  and  C_6
REMARK    2  A    between atoms: C_9  and  C_20
REMARK    3  A    between atoms: C_15  and  N_19
REMARK    4  A    between atoms: C_16  and  C_17
REMARK                            x       y       z     vdW  Elec       q    Type
REMARK                         _______ _______ _______ _____ _____    ______ ____
ROOT
ATOM      1  C   UNL     1       6.462   2.473  -3.834  0.00  0.00    +0.108 C 
ATOM      2  C   UNL     1       5.749   1.574  -2.857  0.00  0.00    +0.050 A 
ATOM      3  C   UNL     1       4.431   1.617  -2.424  0.00  0.00    +0.077 A 
ATOM      4  N   UNL     1       4.250   0.637  -1.571  0.00  0.00    -0.175 NA
ATOM      5  N   UNL     1       5.460  -0.062  -1.436  0.00  0.00    -0.246 N 
ATOM      6  H   UNL     1       5.613  -0.834  -0.869  0.00  0.00    +0.192 HD
ATOM      7  C   UNL     1       6.366   0.526  -2.233  0.00  0.00    +0.223 A 
ATOM      8  O   UNL     1       7.668   0.211  -2.445  0.00  0.00    -0.423 OA
ATOM      9  C   UNL     1       8.286   0.785  -3.498  0.00  0.00    +0.200 C 
ATOM     10  C   UNL     1       7.782   1.833  -4.187  0.00  0.00    +0.099 C 
ENDROOT
BRANCH   3  11
ATOM     11  C   UNL     1       3.389   2.615  -2.859  0.00  0.00    +0.016 C 
ATOM     12  C   UNL     1       3.759   4.002  -2.331  0.00  0.00    +0.016 C 
ATOM     13  C   UNL     1       2.701   5.015  -2.772  0.00  0.00    -0.010 C 
ATOM     14  C   UNL     1       2.636   5.052  -4.300  0.00  0.00    +0.007 C 
ATOM     15  C   UNL     1       2.266   3.665  -4.829  0.00  0.00    -0.010 C 
ATOM     16  C   UNL     1       3.324   2.652  -4.387  0.00  0.00    +0.016 C 
ATOM     17  C   UNL     1       0.902   3.254  -4.270  0.00  0.00    +0.007 C 
ATOM     18  C   UNL     1       0.967   3.217  -2.742  0.00  0.00    -0.010 C 
ATOM     19  C   UNL     1       1.337   4.604  -2.214  0.00  0.00    +0.007 C 
ATOM     20  C   UNL     1       2.025   2.204  -2.301  0.00  0.00    +0.016 C 
ENDBRANCH   3  11
BRANCH   1  23
ATOM     21  C   UNL     1       6.881   6.162  -2.980  0.00  0.00    +0.008 A 
ATOM     22  C   UNL     1       6.613   5.052  -3.759  0.00  0.00    +0.012 A 
ATOM     23  C   UNL     1       6.703   3.820  -3.202  0.00  0.00    +0.003 A 
ATOM     24  S   UNL     1       7.180   4.207  -1.526  0.00  0.00    -0.101 S 
ATOM     25  C   UNL     1       7.226   5.984  -1.681  0.00  0.00    +0.045 A 
ENDBRANCH   1  23
BRANCH   9  26
ATOM     26  N   UNL     1       9.498   0.275  -3.892  0.00  0.00    -0.328 N 
ATOM     27  H   UNL     1       9.885  -0.477  -3.417  0.00  0.00    +0.145 HD
ATOM     28  H   UNL     1       9.966   0.666  -4.646  0.00  0.00    +0.145 HD
ENDBRANCH   9  26
BRANCH  10  29
ATOM     29  C   UNL     1       8.528   2.356  -5.292  0.00  0.00    +0.101 C 
ATOM     30  N   UNL     1       9.120   2.771  -6.168  0.00  0.00    -0.191 NA
ENDBRANCH  10  29
TORSDOF 4
