REMARK  Name = ZINC18521368
REMARK  6 active torsions:
REMARK  status: ('A' for Active; 'I' for Inactive)
REMARK    1  A    between atoms: C_1  and  C_2
REMARK    2  A    between atoms: C_5  and  N_9
REMARK    3  A    between atoms: C_10  and  C_12
REMARK    4  A    between atoms: C_12  and  C_14
REMARK    5  A    between atoms: C_12  and  S_15
REMARK    6  A    between atoms: S_15  and  C_16
REMARK                            x       y       z     vdW  Elec       q    Type
REMARK                         _______ _______ _______ _____ _____    ______ ____
ROOT
ATOM      1  C   UNL     1      -0.003   1.076  -0.003  0.00  0.00    +0.137 C 
ATOM      2  C   UNL     1      -0.710   1.565   1.263  0.00  0.00    +0.029 C 
ENDROOT
BRANCH   1   4
ATOM      3  N   UNL     1      -1.854   0.954  -1.639  0.00  0.00    -0.284 N 
ATOM      4  C   UNL     1      -0.738   1.582  -1.217  0.00  0.00    +0.230 C 
ATOM      5  O   UNL     1      -0.327   2.554  -1.814  0.00  0.00    -0.274 OA
ATOM      6  H   UNL     1      -2.147   0.139  -1.202  0.00  0.00    +0.155 HD
BRANCH   3  11
ATOM      7  C   UNL     1      -4.835   3.077  -5.975  0.00  0.00    +0.044 C 
ATOM      8  C   UNL     1      -4.044   2.513  -4.823  0.00  0.00    -0.049 A 
ATOM      9  C   UNL     1      -2.666   2.629  -4.810  0.00  0.00    +0.005 A 
ATOM     10  C   UNL     1      -1.937   2.113  -3.757  0.00  0.00    +0.024 A 
ATOM     11  C   UNL     1      -2.589   1.477  -2.708  0.00  0.00    +0.047 A 
ATOM     12  C   UNL     1      -3.973   1.357  -2.726  0.00  0.00    +0.039 A 
ATOM     13  C   UNL     1      -4.697   1.880  -3.781  0.00  0.00    +0.020 A 
ATOM     14 BR   UNL     1      -4.866   0.485  -1.306  0.00  0.00    -0.048 Br
ENDBRANCH   3  11
ENDBRANCH   1   4
BRANCH   1  15
ATOM     15  S   UNL     1       1.700   1.702  -0.023  0.00  0.00    -0.073 S 
BRANCH  15  16
ATOM     16  C   UNL     1       2.460   0.915   1.358  0.00  0.00    +0.197 A 
ATOM     17  N   UNL     1       1.884   0.077   2.191  0.00  0.00    -0.122 NA
ATOM     18  N   UNL     1       2.725  -0.314   3.083  0.00  0.00    -0.127 NA
ATOM     19  C   UNL     1       3.894   0.264   2.876  0.00  0.00    +0.180 A 
ATOM     20  N   UNL     1       3.753   1.067   1.764  0.00  0.00    -0.275 N 
ATOM     21  C   UNL     1       4.810   1.801   1.301  0.00  0.00    +0.115 A 
ATOM     22  C   UNL     1       6.004   1.750   1.926  0.00  0.00    +0.059 A 
ATOM     23  C   UNL     1       6.179   0.939   3.064  0.00  0.00    +0.045 A 
ATOM     24  C   UNL     1       5.138   0.203   3.537  0.00  0.00    +0.087 A 
ATOM     25 CL   UNL     1       5.339  -0.802   4.939  0.00  0.00    -0.080 Cl
ATOM     26 CL   UNL     1       7.334   2.689   1.324  0.00  0.00    -0.082 Cl
ENDBRANCH  15  16
ENDBRANCH   1  15
TORSDOF 4
