REMARK  Name = ZINC63613201
REMARK  7 active torsions:
REMARK  status: ('A' for Active; 'I' for Inactive)
REMARK    1  A    between atoms: C_1  and  O_2
REMARK    2  A    between atoms: O_2  and  C_3
REMARK    3  A    between atoms: C_9  and  C_12
REMARK    4  A    between atoms: C_12  and  C_13
REMARK    5  A    between atoms: C_13  and  N_14
REMARK    6  A    between atoms: C_15  and  C_17
REMARK    7  A    between atoms: C_27  and  C_28
REMARK                            x       y       z     vdW  Elec       q    Type
REMARK                         _______ _______ _______ _____ _____    ______ ____
ROOT
ATOM      1  C   UNL     1       1.978  -7.550  -2.659  0.00  0.00    +0.039 A 
ATOM      2  C   UNL     1       0.662  -7.987  -2.486  0.00  0.00    +0.017 A 
ATOM      3  C   UNL     1       0.274  -9.215  -2.976  0.00  0.00    +0.049 A 
ATOM      4  C   UNL     1       1.188 -10.021  -3.642  0.00  0.00    +0.150 A 
ATOM      5  C   UNL     1       2.504  -9.590  -3.820  0.00  0.00    +0.077 A 
ATOM      6  C   UNL     1       2.898  -8.356  -3.334  0.00  0.00    +0.040 A 
ATOM      7  N   UNL     1       3.426 -10.402  -4.495  0.00  0.00    -0.276 N 
ATOM      8  C   UNL     1       2.966 -11.464  -5.199  0.00  0.00    +0.284 C 
ATOM      9  O   UNL     1       3.725 -12.192  -5.812  0.00  0.00    -0.266 OA
ATOM     10  C   UNL     1       1.508 -11.706  -5.195  0.00  0.00    +0.191 C 
ATOM     11  C   UNL     1       0.900 -12.366  -6.205  0.00  0.00    +0.059 C 
ATOM     12  O   UNL     1       0.801 -11.234  -4.123  0.00  0.00    -0.449 OA
ATOM     13  H   UNL     1       4.375 -10.207  -4.458  0.00  0.00    +0.155 HD
ENDROOT
BRANCH  11  14
ATOM     14  C   UNL     1      -0.518 -12.742  -6.091  0.00  0.00    -0.021 A 
ATOM     15  C   UNL     1      -1.194 -13.281  -7.190  0.00  0.00    +0.009 A 
ATOM     16  C   UNL     1      -2.522 -13.631  -7.075  0.00  0.00    +0.020 A 
ATOM     17  C   UNL     1      -3.188 -13.449  -5.874  0.00  0.00    +0.041 A 
ATOM     18  C   UNL     1      -2.526 -12.915  -4.781  0.00  0.00    +0.020 A 
ATOM     19  C   UNL     1      -1.196 -12.566  -4.880  0.00  0.00    +0.009 A 
ATOM     20 CL   UNL     1      -4.861 -13.892  -5.739  0.00  0.00    -0.084 Cl
ENDBRANCH  11  14
BRANCH   1  22
ATOM     21  N   UNL     1       1.507  -5.458  -1.482  0.00  0.00    -0.311 N 
ATOM     22  C   UNL     1       2.394  -6.235  -2.133  0.00  0.00    +0.244 C 
ATOM     23  O   UNL     1       3.538  -5.853  -2.288  0.00  0.00    -0.270 OA
ATOM     24  H   UNL     1       0.594  -5.763  -1.358  0.00  0.00    +0.149 HD
BRANCH  21  25
ATOM     25  C   UNL     1       1.920  -4.153  -0.960  0.00  0.00    +0.109 C 
BRANCH  25  26
ATOM     26  C   UNL     1       0.732  -3.480  -0.270  0.00  0.00    +0.052 C 
BRANCH  26  33
ATOM     27  C   UNL     1       0.453   0.771  -1.986  0.00  0.00    +0.121 A 
ATOM     28  C   UNL     1       0.977   1.773  -1.149  0.00  0.00    +0.047 A 
ATOM     29  C   UNL     1       1.517   1.503   0.058  0.00  0.00    +0.029 A 
ATOM     30  C   UNL     1       1.570   0.118   0.538  0.00  0.00    +0.043 A 
ATOM     31  N   UNL     1       2.031  -0.407   1.646  0.00  0.00    -0.380 N 
ATOM     32  C   UNL     1       1.824  -1.859   1.595  0.00  0.00    +0.144 C 
ATOM     33  C   UNL     1       1.157  -2.137   0.267  0.00  0.00    -0.040 C 
ATOM     34  C   UNL     1       1.018  -0.938  -0.342  0.00  0.00    +0.002 A 
ATOM     35  C   UNL     1       0.450  -0.536  -1.633  0.00  0.00    +0.055 A 
ATOM     36  H   UNL     1       2.441   0.081   2.377  0.00  0.00    +0.160 HD
BRANCH  27  38
ATOM     37  C   UNL     1      -0.049   2.518  -3.519  0.00  0.00    +0.277 C 
ATOM     38  O   UNL     1      -0.073   1.128  -3.187  0.00  0.00    -0.495 OA
ENDBRANCH  27  38
ENDBRANCH  26  33
ENDBRANCH  25  26
ENDBRANCH  21  25
ENDBRANCH   1  22
TORSDOF 6
