REMARK  Name = ZINC59057461
REMARK  10 active torsions:
REMARK  status: ('A' for Active; 'I' for Inactive)
REMARK    1  A    between atoms: C_1  and  C_2
REMARK    2  A    between atoms: C_5  and  C_33
REMARK    3  A    between atoms: N_8  and  C_10
REMARK    4  A    between atoms: C_10  and  C_11
REMARK    5  A    between atoms: C_14  and  C_17
REMARK    6  A    between atoms: C_17  and  N_18
REMARK    7  A    between atoms: C_19  and  C_21
REMARK    8  A    between atoms: C_21  and  N_22
REMARK    9  A    between atoms: C_23  and  C_25
REMARK   10  A    between atoms: C_26  and  C_27
REMARK                            x       y       z     vdW  Elec       q    Type
REMARK                         _______ _______ _______ _____ _____    ______ ____
ROOT
ATOM      1  C   UNL     1       0.272   2.030   7.030  0.00  0.00    +0.139 C 
ENDROOT
BRANCH   1   5
ATOM      2  C   UNL     1       2.146   0.211   3.650  0.00  0.00    -0.064 A 
ATOM      3  C   UNL     1       2.582   1.442   4.103  0.00  0.00    +0.002 A 
ATOM      4  C   UNL     1       1.975   2.031   5.197  0.00  0.00    +0.005 A 
ATOM      5  C   UNL     1       0.932   1.388   5.838  0.00  0.00    -0.030 A 
ATOM      6  C   UNL     1       0.496   0.158   5.384  0.00  0.00    +0.005 A 
ATOM      7  C   UNL     1       1.100  -0.429   4.288  0.00  0.00    +0.002 A 
BRANCH   2   8
ATOM      8  C   UNL     1       2.808  -0.431   2.458  0.00  0.00    -0.043 C 
BRANCH   8  14
ATOM      9  C   UNL     1      -0.019   1.526   0.010  0.00  0.00    +0.005 C 
ATOM     10  C   UNL     1       0.002  -0.004   0.002  0.00  0.00    -0.031 C 
ATOM     11  C   UNL     1       0.721  -0.499  -1.257  0.00  0.00    +0.003 C 
ATOM     12  C   UNL     1       2.177  -0.027  -1.220  0.00  0.00    -0.031 C 
ATOM     13  C   UNL     1       2.839  -0.534   0.063  0.00  0.00    -0.075 C 
ATOM     14  N   UNL     1       2.123  -0.005   1.230  0.00  0.00    +0.383 N 
ATOM     15  C   UNL     1       0.744  -0.512   1.240  0.00  0.00    -0.075 C 
ATOM     16  C   UNL     1       2.924  -0.581  -2.434  0.00  0.00    +0.005 C 
ATOM     17  H   UNL     1       2.109   1.003   1.187  0.00  0.00    -0.081 HD
ENDBRANCH   8  14
ENDBRANCH   2   8
ENDBRANCH   1   5
BRANCH   1  18
ATOM     18  N   UNL     1      -0.844   2.866   6.580  0.00  0.00    -0.310 N 
ATOM     19  C   UNL     1      -1.586   3.542   7.480  0.00  0.00    +0.230 C 
ATOM     20  O   UNL     1      -1.330   3.458   8.662  0.00  0.00    -0.274 OA
ATOM     21  H   UNL     1      -1.049   2.933   5.634  0.00  0.00    +0.149 HD
BRANCH  19  22
ATOM     22  C   UNL     1      -2.733   4.401   7.016  0.00  0.00    +0.200 C 
BRANCH  22  23
ATOM     23  N   UNL     1      -3.376   5.025   8.176  0.00  0.00    -0.303 N 
ATOM     24  C   UNL     1      -4.433   5.842   8.002  0.00  0.00    +0.237 C 
ATOM     25  O   UNL     1      -4.854   6.063   6.882  0.00  0.00    -0.271 OA
ATOM     26  H   UNL     1      -3.040   4.849   9.069  0.00  0.00    +0.149 HD
BRANCH  24  27
ATOM     27  C   UNL     1      -5.075   6.465   9.162  0.00  0.00    +0.068 C 
ATOM     28  C   UNL     1      -6.132   7.283   8.988  0.00  0.00    +0.013 C 
BRANCH  28  29
ATOM     29  C   UNL     1      -6.778   7.910  10.153  0.00  0.00    -0.025 A 
ATOM     30  C   UNL     1      -6.293   7.663  11.441  0.00  0.00    +0.008 A 
ATOM     31  C   UNL     1      -6.903   8.254  12.528  0.00  0.00    +0.001 A 
ATOM     32  C   UNL     1      -7.992   9.088  12.346  0.00  0.00    +0.000 A 
ATOM     33  C   UNL     1      -8.478   9.337  11.074  0.00  0.00    +0.001 A 
ATOM     34  C   UNL     1      -7.875   8.759   9.977  0.00  0.00    +0.008 A 
ENDBRANCH  28  29
ENDBRANCH  24  27
ENDBRANCH  22  23
ENDBRANCH  19  22
ENDBRANCH   1  18
TORSDOF 8
