REMARK  Name = ZINC12469510
REMARK  5 active torsions:
REMARK  status: ('A' for Active; 'I' for Inactive)
REMARK    1  A    between atoms: C_3  and  C_6
REMARK    2  A    between atoms: C_9  and  C_31
REMARK    3  A    between atoms: C_14  and  C_16
REMARK    4  A    between atoms: N_18  and  C_19
REMARK    5  A    between atoms: C_19  and  C_20
REMARK                            x       y       z     vdW  Elec       q    Type
REMARK                         _______ _______ _______ _____ _____    ______ ____
ROOT
ATOM      1  C   UNL     1       3.599   0.625  -0.029  0.00  0.00    +0.140 C 
ATOM      2  C   UNL     1       4.121   0.346   1.384  0.00  0.00    +0.066 C 
ATOM      3  C   UNL     1       3.526  -0.964   1.912  0.00  0.00    +0.215 C 
ATOM      4  N   UNL     1       3.711  -2.010   0.902  0.00  0.00    -0.238 N 
ATOM      5  C   UNL     1       3.963  -1.755  -0.416  0.00  0.00    +0.119 A 
ATOM      6  C   UNL     1       4.081  -2.934  -1.058  0.00  0.00    +0.078 A 
ATOM      7  C   UNL     1       3.893  -3.960  -0.103  0.00  0.00    +0.149 A 
ATOM      8  N   UNL     1       3.671  -3.394   1.071  0.00  0.00    -0.164 NA
ATOM      9  N   UNL     1       4.061  -0.453  -0.926  0.00  0.00    -0.319 N 
ATOM     10  H   UNL     1       4.412  -0.269  -1.812  0.00  0.00    +0.148 HD
ENDROOT
BRANCH   1  13
ATOM     11  C   UNL     1      -0.016   1.341   0.009  0.00  0.00    +0.041 A 
ATOM     12  C   UNL     1       1.331   1.769  -0.001  0.00  0.00    +0.046 A 
ATOM     13  C   UNL     1       2.092   0.660  -0.014  0.00  0.00    +0.125 A 
ATOM     14  O   UNL     1       1.282  -0.411  -0.012  0.00  0.00    -0.466 OA
ATOM     15  C   UNL     1       0.002  -0.004   0.002  0.00  0.00    +0.195 A 
ENDBRANCH   1  13
BRANCH   7  16
ATOM     16  C   UNL     1       3.938  -5.412  -0.370  0.00  0.00    +0.264 C 
ATOM     17  O   UNL     1       4.152  -5.816  -1.497  0.00  0.00    -0.268 OA
ATOM     18  N   UNL     1       3.742  -6.288   0.634  0.00  0.00    -0.310 N 
ATOM     19  H   UNL     1       3.571  -5.966   1.533  0.00  0.00    +0.149 HD
BRANCH  18  20
ATOM     20  C   UNL     1       3.786  -7.729   0.369  0.00  0.00    +0.111 C 
BRANCH  20  21
ATOM     21  C   UNL     1       3.534  -8.495   1.669  0.00  0.00    -0.013 C 
ATOM     22  C   UNL     1       4.612  -8.131   2.693  0.00  0.00    +0.012 C 
ATOM     23  C   UNL     1       4.360  -8.897   3.993  0.00  0.00    -0.010 C 
ATOM     24  C   UNL     1       4.406 -10.401   3.716  0.00  0.00    +0.007 C 
ATOM     25  C   UNL     1       3.328 -10.765   2.692  0.00  0.00    -0.010 C 
ATOM     26  C   UNL     1       3.580  -9.998   1.392  0.00  0.00    +0.012 C 
ATOM     27  C   UNL     1       1.952 -10.390   3.246  0.00  0.00    +0.007 C 
ATOM     28  C   UNL     1       1.906  -8.886   3.523  0.00  0.00    -0.010 C 
ATOM     29  C   UNL     1       2.984  -8.523   4.547  0.00  0.00    +0.007 C 
ATOM     30  C   UNL     1       2.158  -8.120   2.223  0.00  0.00    +0.012 C 
ENDBRANCH  20  21
ENDBRANCH  18  20
ENDBRANCH   7  16
BRANCH   3  31
ATOM     31  C   UNL     1       4.236  -1.366   3.205  0.00  0.00    +0.412 C 
ATOM     32  F   UNL     1       4.067  -0.360   4.162  0.00  0.00    -0.168 F 
ATOM     33  F   UNL     1       3.691  -2.562   3.685  0.00  0.00    -0.168 F 
ATOM     34  F   UNL     1       5.601  -1.544   2.952  0.00  0.00    -0.168 F 
ENDBRANCH   3  31
TORSDOF 5
