REMARK  Name = ZINC62875796
REMARK  5 active torsions:
REMARK  status: ('A' for Active; 'I' for Inactive)
REMARK    1  A    between atoms: C_1  and  C_2
REMARK    2  A    between atoms: C_9  and  C_11
REMARK    3  A    between atoms: C_11  and  N_12
REMARK    4  A    between atoms: C_16  and  C_18
REMARK    5  A    between atoms: C_16  and  C_19
REMARK                            x       y       z     vdW  Elec       q    Type
REMARK                         _______ _______ _______ _____ _____    ______ ____
ROOT
ATOM      1  N   UNL     1       2.617   0.986   3.990  0.00  0.00    +0.386 N 
ATOM      2  C   UNL     1       1.429   1.490   4.691  0.00  0.00    -0.078 C 
ATOM      3  C   UNL     1       1.810   2.707   5.537  0.00  0.00    -0.018 C 
ATOM      4  C   UNL     1       2.873   2.298   6.560  0.00  0.00    +0.014 C 
ATOM      5  C   UNL     1       4.077   1.706   5.822  0.00  0.00    +0.055 C 
ATOM      6  C   UNL     1       3.613   0.526   4.965  0.00  0.00    -0.060 C 
ATOM      7  C   UNL     1       4.702   2.775   4.923  0.00  0.00    +0.021 C 
ATOM      8  H   UNL     1       3.013   1.726   3.430  0.00  0.00    -0.081 HD
ENDROOT
BRANCH   5   9
ATOM      9  C   UNL     1       5.097   1.230   6.824  0.00  0.00    +0.360 C 
ATOM     10  O   UNL     1       4.883   1.352   8.018  0.00  0.00    -0.246 OA
ATOM     11  O   UNL     1       6.137   0.722   6.440  0.00  0.00    -0.246 OA
ENDBRANCH   5   9
BRANCH   1  12
ATOM     12  C   UNL     1       2.232  -0.133   3.120  0.00  0.00    +0.019 C 
BRANCH  12  20
ATOM     13  C   UNL     1       0.008   1.528  -0.006  0.00  0.00    +0.028 C 
ATOM     14  C   UNL     1       0.016  -0.002  -0.007  0.00  0.00    +0.073 C 
ATOM     15  C   UNL     1       0.633  -0.512  -1.313  0.00  0.00    +0.022 C 
ATOM     16  C   UNL     1       0.765  -2.035  -1.250  0.00  0.00    +0.003 C 
ATOM     17  C   UNL     1       1.692  -2.421  -0.095  0.00  0.00    +0.019 C 
ATOM     18  C   UNL     1       1.087  -1.933   1.225  0.00  0.00    +0.108 C 
ATOM     19  N   UNL     1       0.819  -0.492   1.122  0.00  0.00    -0.300 N 
ATOM     20  C   UNL     1       1.304   0.365   2.042  0.00  0.00    +0.199 C 
ATOM     21  O   UNL     1       0.994   1.537   2.003  0.00  0.00    -0.278 OA
ENDBRANCH  12  20
ENDBRANCH   1  12
TORSDOF 3
