REMARK  Name = ZINC19840492
REMARK  5 active torsions:
REMARK  status: ('A' for Active; 'I' for Inactive)
REMARK    1  A    between atoms: C_5  and  N_7
REMARK    2  A    between atoms: C_10  and  N_13
REMARK    3  A    between atoms: N_13  and  C_14
REMARK    4  A    between atoms: C_14  and  C_15
REMARK    5  A    between atoms: C_20  and  C_21
REMARK                            x       y       z     vdW  Elec       q    Type
REMARK                         _______ _______ _______ _____ _____    ______ ____
ROOT
ATOM      1  N   UNL     1      -0.727   2.015  -1.180  0.00  0.00    +0.384 N 
ATOM      2  H   UNL     1      -0.027   2.066  -2.028  0.00  0.00    -0.085 HD
ATOM      3  H   UNL     1      -1.550   1.327  -1.425  0.00  0.00    -0.085 HD
ENDROOT
BRANCH   1   7
ATOM      4  N   UNL     1       2.163   0.021   1.155  0.00  0.00    -0.328 N 
ATOM      5  C   UNL     1       0.793  -0.505   1.212  0.00  0.00    +0.103 C 
ATOM      6  C   UNL     1       0.002  -0.004   0.002  0.00  0.00    +0.003 C 
ATOM      7  C   UNL     1      -0.019   1.527   0.010  0.00  0.00    -0.068 C 
ATOM      8  C   UNL     1       1.421   2.049  -0.001  0.00  0.00    +0.003 C 
ATOM      9  C   UNL     1       2.171   1.488   1.210  0.00  0.00    +0.103 C 
BRANCH   4  14
ATOM     10  C   UNL     1       3.382  -0.868   4.508  0.00  0.00    +0.002 A 
ATOM     11  C   UNL     1       4.513  -1.597   4.192  0.00  0.00    +0.003 A 
ATOM     12  C   UNL     1       4.867  -1.791   2.869  0.00  0.00    +0.040 A 
ATOM     13  C   UNL     1       4.090  -1.256   1.859  0.00  0.00    +0.144 A 
ATOM     14  C   UNL     1       2.952  -0.523   2.174  0.00  0.00    +0.065 A 
ATOM     15  C   UNL     1       2.603  -0.327   3.504  0.00  0.00    +0.026 A 
ATOM     16  F   UNL     1       4.437  -1.445   0.566  0.00  0.00    -0.204 F 
ENDBRANCH   4  14
ENDBRANCH   1   7
BRANCH   1  17
ATOM     17  C   UNL     1      -1.286   3.354  -0.949  0.00  0.00    -0.043 C 
BRANCH  17  18
ATOM     18  C   UNL     1      -2.003   3.820  -2.189  0.00  0.00    -0.019 A 
ATOM     19  C   UNL     1      -1.518   4.676  -3.115  0.00  0.00    +0.107 A 
ATOM     20  N   UNL     1      -2.459   4.836  -4.070  0.00  0.00    -0.284 N 
ATOM     21  H   UNL     1      -2.264   5.493  -4.930  0.00  0.00    +0.188 HD
ATOM     22  N   UNL     1      -3.572   4.060  -3.719  0.00  0.00    -0.174 NA
ATOM     23  C   UNL     1      -3.302   3.445  -2.587  0.00  0.00    +0.094 A 
BRANCH  23  24
ATOM     24  C   UNL     1      -4.205   2.521  -1.858  0.00  0.00    +0.006 A 
ATOM     25  C   UNL     1      -3.680   1.429  -1.170  0.00  0.00    +0.014 A 
ATOM     26  C   UNL     1      -4.521   0.570  -0.493  0.00  0.00    +0.050 A 
ATOM     27  C   UNL     1      -5.890   0.789  -0.495  0.00  0.00    +0.166 A 
ATOM     28  C   UNL     1      -6.421   1.880  -1.181  0.00  0.00    +0.167 A 
ATOM     29  C   UNL     1      -5.580   2.747  -1.856  0.00  0.00    +0.059 A 
ATOM     30  O   UNL     1      -7.778   1.872  -1.029  0.00  0.00    -0.453 OA
ATOM     31  C   UNL     1      -8.034   1.005   0.092  0.00  0.00    +0.466 C 
ATOM     32  O   UNL     1      -6.915   0.099   0.086  0.00  0.00    -0.453 OA
ENDBRANCH  23  24
ENDBRANCH  17  18
ENDBRANCH   1  17
TORSDOF 5
