REMARK  Name = ZINC65008905
REMARK  7 active torsions:
REMARK  status: ('A' for Active; 'I' for Inactive)
REMARK    1  A    between atoms: C_1  and  C_2
REMARK    2  A    between atoms: N_8  and  S_9
REMARK    3  A    between atoms: S_9  and  C_12
REMARK    4  A    between atoms: C_14  and  C_19
REMARK    5  A    between atoms: N_15  and  C_18
REMARK    6  A    between atoms: C_16  and  C_17
REMARK    7  A    between atoms: C_21  and  C_24
REMARK                            x       y       z     vdW  Elec       q    Type
REMARK                         _______ _______ _______ _____ _____    ______ ____
ROOT
ATOM      1  C   UNL     1       0.096  -6.599   1.100  0.00  0.00    +0.134 A 
ATOM      2  C   UNL     1       1.134  -7.495   1.395  0.00  0.00    +0.059 A 
ATOM      3  C   UNL     1       0.750  -8.725   0.943  0.00  0.00    +0.076 A 
ATOM      4  N   UNL     1      -0.496  -8.596   0.380  0.00  0.00    -0.344 N 
ATOM      5  C   UNL     1      -0.887  -7.295   0.487  0.00  0.00    +0.043 A 
ATOM      6  C   UNL     1      -2.196  -6.727   0.000  0.00  0.00    +0.065 C 
ATOM      7  C   UNL     1      -1.277  -9.676  -0.227  0.00  0.00    +0.149 C 
ENDROOT
BRANCH   3   8
ATOM      8  C   UNL     1       1.532  -9.968   1.041  0.00  0.00    +0.125 A 
ATOM      9  N   UNL     1       2.730 -10.166   1.573  0.00  0.00    -0.238 NA
ATOM     10  C   UNL     1       3.289 -11.362   1.575  0.00  0.00    +0.079 A 
ATOM     11  C   UNL     1       2.619 -12.419   1.018  0.00  0.00    +0.075 A 
ATOM     12  S   UNL     1       1.115 -11.614   0.482  0.00  0.00    -0.074 S 
BRANCH  10  13
ATOM     13  C   UNL     1       4.631 -11.559   2.175  0.00  0.00    +0.002 A 
ATOM     14  C   UNL     1       5.221 -12.822   2.170  0.00  0.00    +0.010 A 
ATOM     15  C   UNL     1       6.470 -13.001   2.729  0.00  0.00    +0.002 A 
ATOM     16  C   UNL     1       7.137 -11.929   3.296  0.00  0.00    +0.020 A 
ATOM     17  C   UNL     1       6.556 -10.672   3.304  0.00  0.00    +0.042 A 
ATOM     18  C   UNL     1       5.310 -10.481   2.741  0.00  0.00    +0.030 A 
ATOM     19 CL   UNL     1       7.400  -9.333   4.017  0.00  0.00    -0.084 Cl
ENDBRANCH  10  13
ENDBRANCH   3   8
BRANCH   1  20
ATOM     20  S   UNL     1       0.075  -4.876   1.468  0.00  0.00    +0.102 S 
ATOM     21  O   UNL     1       1.319  -4.577   2.085  0.00  0.00    -0.146 OA
ATOM     22  O   UNL     1      -1.171  -4.611   2.098  0.00  0.00    -0.146 OA
BRANCH  20  30
ATOM     23  C   UNL     1      -0.018   1.503   0.010  0.00  0.00    +0.045 C 
ATOM     24  C   UNL     1       0.002  -0.004   0.002  0.00  0.00    -0.034 A 
ATOM     25  C   UNL     1       0.006  -0.696  -1.222  0.00  0.00    +0.008 A 
ATOM     26  C   UNL     1       0.024  -2.054  -1.226  0.00  0.00    +0.048 A 
ATOM     27  C   UNL     1       0.039  -2.750   0.006  0.00  0.00    +0.153 A 
ATOM     28  N   UNL     1       0.035  -2.044   1.185  0.00  0.00    -0.345 N 
ATOM     29  C   UNL     1       0.022  -0.681   1.169  0.00  0.00    +0.087 A 
ATOM     30  N   UNL     1       0.057  -4.067   0.023  0.00  0.00    -0.111 NA
ATOM     31  H   UNL     1       0.045  -2.517   2.031  0.00  0.00    +0.167 HD
ENDBRANCH  20  30
ENDBRANCH   1  20
TORSDOF 4
