REMARK  Name = ZINC39687683
REMARK  9 active torsions:
REMARK  status: ('A' for Active; 'I' for Inactive)
REMARK    1  A    between atoms: C_1  and  C_2
REMARK    2  A    between atoms: C_2  and  C_3
REMARK    3  A    between atoms: C_3  and  C_4
REMARK    4  A    between atoms: C_4  and  C_5
REMARK    5  A    between atoms: C_5  and  C_7
REMARK    6  A    between atoms: C_5  and  C_8
REMARK    7  A    between atoms: C_12  and  C_21
REMARK    8  A    between atoms: N_23  and  C_24
REMARK    9  A    between atoms: C_31  and  C_36
REMARK                            x       y       z     vdW  Elec       q    Type
REMARK                         _______ _______ _______ _____ _____    ______ ____
ROOT
ATOM      1  C   UNL     1      -2.818  -4.156  -0.145  0.00  0.00    +0.218 C 
ATOM      2  O   UNL     1      -1.775  -4.759  -0.289  0.00  0.00    -0.275 OA
ATOM      3  N   UNL     1      -3.990  -4.818  -0.182  0.00  0.00    -0.300 N 
ATOM      4  C   UNL     1      -5.355  -4.259  -0.035  0.00  0.00    +0.121 C 
ATOM      5  C   UNL     1      -6.208  -5.035  -1.063  0.00  0.00    +0.100 C 
ATOM      6  C   UNL     1      -5.451  -6.355  -1.285  0.00  0.00    -0.004 C 
ATOM      7  C   UNL     1      -4.207  -6.271  -0.388  0.00  0.00    +0.115 C 
ATOM      8  C   UNL     1      -6.321  -7.539  -0.873  0.00  0.00    -0.010 C 
ATOM      9  C   UNL     1      -5.569  -8.842  -1.157  0.00  0.00    -0.082 C 
ATOM     10  N   UNL     1      -5.245  -8.921  -2.587  0.00  0.00    +0.379 N 
ATOM     11  C   UNL     1      -4.333  -7.831  -2.954  0.00  0.00    -0.082 C 
ATOM     12  C   UNL     1      -5.033  -6.485  -2.746  0.00  0.00    -0.010 C 
ATOM     13  H   UNL     1      -4.804  -9.807  -2.782  0.00  0.00    -0.086 HD
ATOM     14  H   UNL     1      -6.093  -8.845  -3.127  0.00  0.00    -0.086 HD
ENDROOT
BRANCH   5  15
ATOM     15  C   UNL     1      -7.583  -5.303  -0.508  0.00  0.00    +0.218 C 
ATOM     16  O   UNL     1      -7.737  -5.451   0.686  0.00  0.00    -0.275 OA
ATOM     17  N   UNL     1      -8.642  -5.379  -1.338  0.00  0.00    -0.312 N 
ATOM     18  H   UNL     1      -8.519  -5.261  -2.293  0.00  0.00    +0.149 HD
BRANCH  17  19
ATOM     19  C   UNL     1      -9.979  -5.639  -0.799  0.00  0.00    +0.076 C 
ATOM     20  C   UNL     1     -10.180  -7.148  -0.640  0.00  0.00    +0.041 C 
ATOM     21  C   UNL     1     -11.565  -7.415  -0.043  0.00  0.00    +0.108 C 
ATOM     22  N   UNL     1     -12.576  -6.757  -0.882  0.00  0.00    -0.316 N 
ATOM     23  C   UNL     1     -12.429  -5.325  -1.173  0.00  0.00    +0.108 C 
ATOM     24  C   UNL     1     -11.033  -5.081  -1.757  0.00  0.00    +0.041 C 
ATOM     25  C   UNL     1     -13.651  -7.476  -1.391  0.00  0.00    +0.102 A 
ATOM     26  C   UNL     1     -14.861  -7.485  -0.705  0.00  0.00    -0.012 A 
ATOM     27  C   UNL     1     -15.923  -8.205  -1.222  0.00  0.00    +0.008 A 
ATOM     28  C   UNL     1     -15.738  -8.894  -2.414  0.00  0.00    +0.018 A 
ATOM     29  C   UNL     1     -14.510  -8.841  -3.042  0.00  0.00    +0.084 A 
ATOM     30  N   UNL     1     -13.516  -8.142  -2.527  0.00  0.00    -0.349 N 
ATOM     31  C   UNL     1     -15.013  -6.722   0.586  0.00  0.00    +0.047 C 
ATOM     32  H   UNL     1     -12.665  -8.119  -2.991  0.00  0.00    +0.167 HD
ENDBRANCH  17  19
ENDBRANCH   5  15
BRANCH   1  33
ATOM     33  C   UNL     1      -2.801  -2.665   0.077  0.00  0.00    +0.072 C 
ATOM     34  C   UNL     1      -3.452  -2.342   1.423  0.00  0.00    +0.017 C 
BRANCH  33  35
ATOM     35  C   UNL     1      -1.355  -2.165   0.076  0.00  0.00    +0.012 C 
BRANCH  35  36
ATOM     36  C   UNL     1      -1.343  -0.638   0.176  0.00  0.00    +0.000 C 
BRANCH  36  38
ATOM     37  C   UNL     1       0.115   1.388   0.275  0.00  0.00    +0.004 C 
ATOM     38  C   UNL     1       0.103  -0.139   0.175  0.00  0.00    -0.003 C 
ENDBRANCH  36  38
ENDBRANCH  35  36
ENDBRANCH  33  35
ENDBRANCH   1  33
TORSDOF 6
