REMARK  Name = ZINC38979788
REMARK  2 active torsions:
REMARK  status: ('A' for Active; 'I' for Inactive)
REMARK    1  A    between atoms: C_5  and  C_7
REMARK    2  A    between atoms: C_11  and  C_16
REMARK                            x       y       z     vdW  Elec       q    Type
REMARK                         _______ _______ _______ _____ _____    ______ ____
ROOT
ATOM      1  C   UNL     1       1.229  -2.186  -0.022  0.00  0.00    +0.184 C 
ATOM      2  N   UNL     1      -0.142  -2.751  -0.138  0.00  0.00    -0.263 N 
ATOM      3  N   UNL     1      -0.357  -3.893   0.576  0.00  0.00    -0.222 N 
ATOM      4  C   UNL     1      -1.249  -4.950   0.557  0.00  0.00    +0.182 A 
ATOM      5  N   UNL     1      -0.963  -5.735   1.553  0.00  0.00    -0.129 NA
ATOM      6  N   UNL     1       0.051  -5.276   2.200  0.00  0.00    -0.121 NA
ATOM      7  C   UNL     1       0.461  -4.181   1.638  0.00  0.00    +0.211 A 
ATOM      8  S   UNL     1       1.666  -2.869   1.636  0.00  0.00    -0.056 S 
ATOM      9  H   UNL     1      -0.840  -2.054   0.076  0.00  0.00    +0.168 HD
ENDROOT
BRANCH   4  10
ATOM     10  C   UNL     1      -2.359  -5.155  -0.442  0.00  0.00    +0.225 C 
ATOM     11  C   UNL     1      -2.024  -6.286  -1.392  0.00  0.00    -0.013 C 
ATOM     12  C   UNL     1      -2.976  -7.194  -1.189  0.00  0.00    +0.065 C 
ATOM     13  C   UNL     1      -2.747  -8.391  -2.094  0.00  0.00    +0.057 C 
ATOM     14  C   UNL     1      -1.766  -7.894  -3.178  0.00  0.00    +0.011 C 
ATOM     15  C   UNL     1      -1.045  -6.742  -2.443  0.00  0.00    +0.035 C 
ATOM     16  N   UNL     1      -3.843  -6.751  -0.238  0.00  0.00    -0.158 NA
ATOM     17  N   UNL     1      -3.580  -5.637   0.227  0.00  0.00    -0.172 NA
ENDBRANCH   4  10
BRANCH   1  22
ATOM     18  C   UNL     1       0.053   1.381  -0.403  0.00  0.00    +0.000 A 
ATOM     19  C   UNL     1       1.171   2.086   0.002  0.00  0.00    +0.001 A 
ATOM     20  C   UNL     1       2.308   1.409   0.400  0.00  0.00    +0.020 A 
ATOM     21  C   UNL     1       2.328   0.025   0.392  0.00  0.00    +0.047 A 
ATOM     22  C   UNL     1       1.208  -0.679  -0.013  0.00  0.00    +0.003 A 
ATOM     23  C   UNL     1       0.071  -0.001  -0.411  0.00  0.00    +0.008 A 
ATOM     24 CL   UNL     1       3.756  -0.826   0.891  0.00  0.00    -0.083 Cl
ENDBRANCH   1  22
TORSDOF 2
