REMARK  Name = ZINC15023519
REMARK  12 active torsions:
REMARK  status: ('A' for Active; 'I' for Inactive)
REMARK    1  A    between atoms: C_1  and  C_2
REMARK    2  A    between atoms: C_13  and  C_33
REMARK    3  A    between atoms: C_15  and  C_23
REMARK    4  A    between atoms: C_17  and  C_18
REMARK    5  A    between atoms: C_17  and  C_20
REMARK    6  A    between atoms: C_26  and  O_31
REMARK    7  A    between atoms: C_27  and  O_29
REMARK    8  A    between atoms: O_29  and  C_30
REMARK    9  A    between atoms: O_31  and  C_32
REMARK   10  A    between atoms: C_33  and  C_35
REMARK   11  A    between atoms: C_39  and  O_41
REMARK   12  A    between atoms: O_41  and  C_42
REMARK                            x       y       z     vdW  Elec       q    Type
REMARK                         _______ _______ _______ _____ _____    ______ ____
ROOT
ATOM      1  C   UNL     1      -5.463  -1.919   5.665  0.00  0.00    +0.044 C 
ATOM      2  C   UNL     1      -5.015  -1.668   4.248  0.00  0.00    -0.050 A 
ATOM      3  C   UNL     1      -3.892  -0.895   4.007  0.00  0.00    +0.005 A 
ATOM      4  C   UNL     1      -3.466  -0.658   2.713  0.00  0.00    +0.024 A 
ATOM      5  C   UNL     1      -4.165  -1.195   1.649  0.00  0.00    +0.038 A 
ATOM      6  C   UNL     1      -5.315  -1.978   1.892  0.00  0.00    -0.004 A 
ATOM      7  C   UNL     1      -5.729  -2.210   3.196  0.00  0.00    +0.013 A 
ATOM      8  C   UNL     1      -6.051  -2.533   0.731  0.00  0.00    +0.007 C 
ATOM      9  C   UNL     1      -5.371  -2.700  -0.417  0.00  0.00    -0.002 C 
ATOM     10  C   UNL     1      -3.925  -2.302  -0.401  0.00  0.00    +0.127 C 
ATOM     11  N   UNL     1      -3.809  -1.016   0.335  0.00  0.00    -0.310 N 
ATOM     12  C   UNL     1      -2.484  -0.497   0.011  0.00  0.00    +0.155 C 
ATOM     13  C   UNL     1      -2.162  -1.020  -1.411  0.00  0.00    +0.078 C 
ATOM     14  C   UNL     1      -3.361  -1.935  -1.784  0.00  0.00    +0.163 C 
ENDROOT
BRANCH  13  15
ATOM     15  C   UNL     1      -2.058   0.129  -2.381  0.00  0.00    -0.036 A 
ATOM     16  C   UNL     1      -3.135   0.976  -2.564  0.00  0.00    +0.008 A 
ATOM     17  C   UNL     1      -3.042   2.034  -3.449  0.00  0.00    +0.049 A 
ATOM     18  C   UNL     1      -1.873   2.241  -4.162  0.00  0.00    +0.161 A 
ATOM     19  C   UNL     1      -0.791   1.385  -3.982  0.00  0.00    +0.162 A 
ATOM     20  C   UNL     1      -0.888   0.330  -3.089  0.00  0.00    +0.053 A 
BRANCH  19  21
ATOM     21  O   UNL     1       0.360   1.585  -4.679  0.00  0.00    -0.491 OA
ATOM     22  C   UNL     1       1.429   0.667  -4.442  0.00  0.00    +0.277 C 
ENDBRANCH  19  21
BRANCH  18  23
ATOM     23  O   UNL     1      -1.782   3.279  -5.036  0.00  0.00    -0.491 OA
ATOM     24  C   UNL     1      -2.932   4.117  -5.170  0.00  0.00    +0.277 C 
ENDBRANCH  18  23
ENDBRANCH  13  15
BRANCH  14  25
ATOM     25  C   UNL     1      -2.893  -3.165  -2.517  0.00  0.00    +0.233 C 
ATOM     26  O   UNL     1      -1.727  -3.275  -2.833  0.00  0.00    -0.274 OA
ATOM     27  N   UNL     1      -3.769  -4.143  -2.822  0.00  0.00    -0.328 N 
ATOM     28  H   UNL     1      -4.701  -4.054  -2.570  0.00  0.00    +0.145 HD
ATOM     29  H   UNL     1      -3.467  -4.934  -3.295  0.00  0.00    +0.145 HD
ENDBRANCH  14  25
BRANCH  14  30
ATOM     30  C   UNL     1      -4.357  -1.198  -2.579  0.00  0.00    +0.082 C 
ATOM     31  N   UNL     1      -5.126  -0.630  -3.193  0.00  0.00    -0.195 NA
ENDBRANCH  14  30
BRANCH  12  32
ATOM     32  C   UNL     1      -2.500   1.010   0.019  0.00  0.00    +0.184 C 
ATOM     33  O   UNL     1      -3.556   1.605   0.028  0.00  0.00    -0.290 OA
BRANCH  32  34
ATOM     34  C   UNL     1      -1.233   1.759   0.017  0.00  0.00    +0.023 A 
ATOM     35  C   UNL     1      -0.013   1.076   0.008  0.00  0.00    +0.011 A 
ATOM     36  C   UNL     1       1.172   1.782   0.000  0.00  0.00    +0.004 A 
ATOM     37  C   UNL     1       1.158   3.165   0.007  0.00  0.00    +0.045 A 
ATOM     38  C   UNL     1      -0.048   3.854   0.023  0.00  0.00    +0.121 A 
ATOM     39  C   UNL     1      -1.244   3.157   0.030  0.00  0.00    +0.057 A 
BRANCH  38  40
ATOM     40  O   UNL     1      -0.054   5.213   0.030  0.00  0.00    -0.495 OA
ATOM     41  C   UNL     1       1.216   5.867   0.021  0.00  0.00    +0.277 C 
ENDBRANCH  38  40
ENDBRANCH  32  34
ENDBRANCH  12  32
TORSDOF 8
