REMARK  Name = ZINC67412953
REMARK  6 active torsions:
REMARK  status: ('A' for Active; 'I' for Inactive)
REMARK    1  A    between atoms: C_1  and  C_2
REMARK    2  A    between atoms: N_4  and  C_5
REMARK    3  A    between atoms: C_5  and  C_6
REMARK    4  A    between atoms: N_11  and  C_13
REMARK    5  A    between atoms: C_13  and  C_14
REMARK    6  A    between atoms: C_19  and  C_22
REMARK                            x       y       z     vdW  Elec       q    Type
REMARK                         _______ _______ _______ _____ _____    ______ ____
ROOT
ATOM      1  C   UNL     1       0.363  -6.100  -4.030  0.00  0.00    +0.019 C 
ENDROOT
BRANCH   1   2
ATOM      2  C   UNL     1       0.486  -6.580  -5.453  0.00  0.00    +0.202 C 
ATOM      3  O   UNL     1       0.402  -5.789  -6.369  0.00  0.00    -0.277 OA
ATOM      4  N   UNL     1       0.689  -7.887  -5.708  0.00  0.00    -0.266 N 
ATOM      5  C   UNL     1       0.802  -8.329  -7.021  0.00  0.00    +0.165 A 
ATOM      6  N   UNL     1       0.995  -9.554  -7.475  0.00  0.00    -0.224 NA
ATOM      7  C   UNL     1       1.080  -9.799  -8.780  0.00  0.00    +0.087 A 
ATOM      8  C   UNL     1       0.965  -8.760  -9.664  0.00  0.00    +0.077 A 
ATOM      9  S   UNL     1       0.718  -7.392  -8.540  0.00  0.00    -0.060 S 
ATOM     10  H   UNL     1       0.756  -8.520  -4.976  0.00  0.00    +0.157 HD
BRANCH   7  11
ATOM     11  C   UNL     1       1.296 -11.178  -9.270  0.00  0.00    +0.038 A 
ATOM     12  C   UNL     1       1.429 -12.336  -8.553  0.00  0.00    +0.017 A 
ATOM     13  C   UNL     1       1.625 -13.518  -9.236  0.00  0.00    +0.008 A 
ATOM     14  C   UNL     1       1.681 -13.497 -10.591  0.00  0.00    +0.046 A 
ATOM     15  S   UNL     1       1.444 -11.765 -10.949  0.00  0.00    -0.095 S 
ENDBRANCH   7  11
ENDBRANCH   1   2
BRANCH   1  20
ATOM     16  C   UNL     1       0.013  -2.639  -2.622  0.00  0.00    -0.011 C 
ATOM     17  C   UNL     1      -1.308  -2.250  -3.292  0.00  0.00    +0.001 C 
ATOM     18  C   UNL     1      -1.337  -2.824  -4.712  0.00  0.00    -0.018 C 
ATOM     19  C   UNL     1      -1.144  -4.341  -4.646  0.00  0.00    -0.078 C 
ATOM     20  N   UNL     1       0.147  -4.647  -4.020  0.00  0.00    +0.386 N 
ATOM     21  C   UNL     1       0.157  -4.162  -2.634  0.00  0.00    -0.073 C 
ATOM     22  H   UNL     1       0.887  -4.196  -4.538  0.00  0.00    -0.081 HD
BRANCH  16  23
ATOM     23  C   UNL     1       0.020  -2.136  -1.177  0.00  0.00    +0.105 C 
BRANCH  23  27
ATOM     24  C   UNL     1      -0.018   1.503   0.010  0.00  0.00    +0.109 C 
ATOM     25  C   UNL     1       0.002  -0.004   0.002  0.00  0.00    +0.210 C 
ATOM     26  O   UNL     1       0.020  -0.616   1.049  0.00  0.00    -0.276 OA
ATOM     27  N   UNL     1       0.000  -0.672  -1.169  0.00  0.00    -0.315 N 
ATOM     28  H   UNL     1      -0.015  -0.182  -2.006  0.00  0.00    +0.149 HD
ENDBRANCH  23  27
ENDBRANCH  16  23
ENDBRANCH   1  20
TORSDOF 5
