REMARK  Name = ZINC39666886
REMARK  10 active torsions:
REMARK  status: ('A' for Active; 'I' for Inactive)
REMARK    1  A    between atoms: C_1  and  C_2
REMARK    2  A    between atoms: C_2  and  C_3
REMARK    3  A    between atoms: C_3  and  C_4
REMARK    4  A    between atoms: C_3  and  C_6
REMARK    5  A    between atoms: C_4  and  C_5
REMARK    6  A    between atoms: C_6  and  N_7
REMARK    7  A    between atoms: C_8  and  C_10
REMARK    8  A    between atoms: C_21  and  C_23
REMARK    9  A    between atoms: C_26  and  O_30
REMARK   10  A    between atoms: O_30  and  C_31
REMARK                            x       y       z     vdW  Elec       q    Type
REMARK                         _______ _______ _______ _____ _____    ______ ____
ROOT
ATOM      1  C   UNL     1      -3.696  -4.239  -0.802  0.00  0.00    +0.100 C 
ATOM      2  C   UNL     1      -4.201  -3.638  -2.133  0.00  0.00    +0.121 C 
ATOM      3  N   UNL     1      -4.166  -4.768  -3.091  0.00  0.00    -0.296 N 
ATOM      4  C   UNL     1      -4.628  -5.935  -2.301  0.00  0.00    +0.115 C 
ATOM      5  C   UNL     1      -3.981  -5.746  -0.915  0.00  0.00    -0.004 C 
ATOM      6  C   UNL     1      -4.946  -6.185   0.182  0.00  0.00    -0.010 C 
ATOM      7  C   UNL     1      -5.169  -7.697   0.086  0.00  0.00    -0.082 C 
ATOM      8  N   UNL     1      -3.885  -8.393   0.228  0.00  0.00    +0.379 N 
ATOM      9  C   UNL     1      -2.995  -8.036  -0.884  0.00  0.00    -0.082 C 
ATOM     10  C   UNL     1      -2.680  -6.538  -0.828  0.00  0.00    -0.010 C 
ATOM     11  C   UNL     1      -3.797  -4.742  -4.387  0.00  0.00    +0.247 C 
ATOM     12  O   UNL     1      -3.356  -3.718  -4.872  0.00  0.00    -0.270 OA
ATOM     13  H   UNL     1      -3.454  -8.126   1.101  0.00  0.00    -0.086 HD
ATOM     14  H   UNL     1      -4.042  -9.389   0.225  0.00  0.00    -0.086 HD
ENDROOT
BRANCH  11  15
ATOM     15  C   UNL     1      -3.930  -5.955  -5.217  0.00  0.00    +0.040 A 
ATOM     16  C   UNL     1      -4.828  -6.960  -4.850  0.00  0.00    +0.036 A 
ATOM     17  C   UNL     1      -4.949  -8.092  -5.627  0.00  0.00    +0.085 A 
ATOM     18  C   UNL     1      -4.178  -8.234  -6.776  0.00  0.00    +0.157 A 
ATOM     19  C   UNL     1      -3.283  -7.235  -7.145  0.00  0.00    +0.085 A 
ATOM     20  C   UNL     1      -3.162  -6.098  -6.375  0.00  0.00    +0.036 A 
ATOM     21 CL   UNL     1      -2.323  -7.418  -8.579  0.00  0.00    -0.080 Cl
ATOM     22 CL   UNL     1      -6.064  -9.341  -5.172  0.00  0.00    -0.080 Cl
BRANCH  18  23
ATOM     23  O   UNL     1      -4.299  -9.350  -7.539  0.00  0.00    -0.492 OA
ATOM     24  C   UNL     1      -5.271  -9.317  -8.586  0.00  0.00    +0.277 C 
ENDBRANCH  18  23
ENDBRANCH  11  15
BRANCH   1  26
ATOM     25  N   UNL     1      -1.675  -3.910   0.587  0.00  0.00    -0.315 N 
ATOM     26  C   UNL     1      -2.217  -3.996  -0.644  0.00  0.00    +0.218 C 
ATOM     27  O   UNL     1      -1.514  -3.877  -1.625  0.00  0.00    -0.275 OA
ATOM     28  H   UNL     1      -2.237  -4.006   1.372  0.00  0.00    +0.149 HD
BRANCH  25  29
ATOM     29  C   UNL     1      -0.237  -3.674   0.740  0.00  0.00    +0.107 C 
BRANCH  29  30
ATOM     30  C   UNL     1       0.115  -3.621   2.228  0.00  0.00    +0.006 C 
BRANCH  30  32
ATOM     31  C   UNL     1       0.119  -4.911   4.368  0.00  0.00    +0.004 C 
ATOM     32  C   UNL     1      -0.140  -4.990   2.862  0.00  0.00    +0.002 C 
ENDBRANCH  30  32
BRANCH  30  33
ATOM     33  C   UNL     1       1.591  -3.251   2.390  0.00  0.00    +0.002 C 
ATOM     34  C   UNL     1       1.827  -1.843   1.839  0.00  0.00    +0.004 C 
ENDBRANCH  30  33
ENDBRANCH  29  30
ENDBRANCH  25  29
ENDBRANCH   1  26
TORSDOF 7
