REMARK  Name = ZINC04237017
REMARK  12 active torsions:
REMARK  status: ('A' for Active; 'I' for Inactive)
REMARK    1  A    between atoms: C_1  and  C_2
REMARK    2  A    between atoms: C_5  and  O_38
REMARK    3  A    between atoms: C_7  and  C_35
REMARK    4  A    between atoms: C_7  and  C_36
REMARK    5  A    between atoms: C_17  and  O_19
REMARK    6  A    between atoms: O_19  and  C_20
REMARK    7  A    between atoms: C_20  and  C_21
REMARK    8  A    between atoms: C_23  and  C_25
REMARK    9  A    between atoms: C_25  and  C_26
REMARK   10  A    between atoms: N_28  and  C_29
REMARK   11  A    between atoms: C_29  and  C_30
REMARK   12  A    between atoms: C_36  and  O_37
REMARK                            x       y       z     vdW  Elec       q    Type
REMARK                         _______ _______ _______ _____ _____    ______ ____
ROOT
ATOM      1  C   UNL     1       0.021   3.640  -0.457  0.00  0.00    +0.012 C 
ATOM      2  C   UNL     1      -1.264   2.839  -0.670  0.00  0.00    -0.019 C 
ATOM      3  C   UNL     1      -2.004   3.372  -1.902  0.00  0.00    +0.010 C 
ATOM      4  C   UNL     1      -1.154   3.184  -3.156  0.00  0.00    +0.032 C 
ATOM      5  C   UNL     1      -0.887   1.689  -3.352  0.00  0.00    +0.123 C 
ATOM      6  C   UNL     1      -0.108   1.167  -2.146  0.00  0.00    +0.021 C 
ATOM      7  C   UNL     1      -0.921   1.360  -0.862  0.00  0.00    +0.011 C 
ATOM      8  C   UNL     1      -0.036   0.895   0.311  0.00  0.00    +0.049 C 
ATOM      9  C   UNL     1      -0.629   1.378   1.588  0.00  0.00    +0.015 A 
ATOM     10  C   UNL     1      -1.594   2.320   1.749  0.00  0.00    +0.058 A 
ATOM     11  N   UNL     1      -1.955   2.575   3.005  0.00  0.00    -0.229 NA
ATOM     12  C   UNL     1      -1.408   1.951   4.033  0.00  0.00    +0.167 A 
ATOM     13  S   UNL     1      -0.275   0.888   3.255  0.00  0.00    -0.057 S 
ATOM     14  N   UNL     1      -1.674   2.104   5.389  0.00  0.00    -0.230 N 
ATOM     15  C   UNL     1      -1.004   1.363   6.295  0.00  0.00    +0.406 C 
ATOM     16  O   UNL     1      -0.169   0.562   5.926  0.00  0.00    -0.226 OA
ATOM     17  C   UNL     1      -2.196   3.014   0.537  0.00  0.00    +0.054 C 
ATOM     18  C   UNL     1       0.189  -0.321  -2.340  0.00  0.00    +0.016 C 
ATOM     19  H   UNL     1      -2.341   2.743   5.684  0.00  0.00    +0.160 HD
ENDROOT
BRANCH   5  20
ATOM     20  O   UNL     1      -0.120   1.490  -4.541  0.00  0.00    -0.391 OA
ATOM     21  H   UNL     1      -0.551   1.810  -5.345  0.00  0.00    +0.210 HD
ENDBRANCH   5  20
BRANCH  15  22
ATOM     22  O   UNL     1      -1.262   1.511   7.608  0.00  0.00    -0.446 OA
BRANCH  22  23
ATOM     23  C   UNL     1      -0.503   0.680   8.526  0.00  0.00    +0.261 C 
BRANCH  23  24
ATOM     24  C   UNL     1      -0.923   0.982   9.941  0.00  0.00    +0.006 C 
ATOM     25  C   UNL     1      -1.147   0.001  10.781  0.00  0.00    +0.007 C 
ENDBRANCH  23  24
ENDBRANCH  22  23
ENDBRANCH  15  22
BRANCH  17  26
ATOM     26  C   UNL     1      -2.367   4.504   0.836  0.00  0.00    +0.106 C 
BRANCH  26  27
ATOM     27  C   UNL     1      -3.432   4.687   1.886  0.00  0.00    +0.214 C 
ATOM     28  O   UNL     1      -3.998   3.720   2.350  0.00  0.00    -0.276 OA
ATOM     29  N   UNL     1      -3.756   5.924   2.310  0.00  0.00    -0.311 N 
ATOM     30  H   UNL     1      -3.303   6.698   1.939  0.00  0.00    +0.149 HD
BRANCH  29  31
ATOM     31  C   UNL     1      -4.791   6.101   3.332  0.00  0.00    +0.146 C 
BRANCH  31  32
ATOM     32  C   UNL     1      -4.960   7.570   3.626  0.00  0.00    +0.007 A 
ATOM     33  C   UNL     1      -5.788   8.468   3.039  0.00  0.00    +0.013 A 
ATOM     34  C   UNL     1      -5.774   9.779   3.478  0.00  0.00    +0.008 A 
ATOM     35  C   UNL     1      -4.933  10.127   4.482  0.00  0.00    +0.045 A 
ATOM     36  S   UNL     1      -4.128   8.575   4.844  0.00  0.00    -0.100 S 
ENDBRANCH  31  32
ENDBRANCH  29  31
ENDBRANCH  26  27
ENDBRANCH  17  26
BRANCH   6  37
ATOM     37  C   UNL     1       1.213   1.931  -2.028  0.00  0.00    +0.165 C 
BRANCH  37  38
ATOM     38  O   UNL     1       2.040   1.630  -3.154  0.00  0.00    -0.394 OA
ATOM     39  H   UNL     1       2.895   2.081  -3.145  0.00  0.00    +0.209 HD
ENDBRANCH  37  38
ENDBRANCH   6  37
TORSDOF 10
