REMARK  Name = ZINC03229991
REMARK  7 active torsions:
REMARK  status: ('A' for Active; 'I' for Inactive)
REMARK    1  A    between atoms: C_1  and  O_2
REMARK    2  A    between atoms: O_2  and  C_3
REMARK    3  A    between atoms: C_6  and  C_9
REMARK    4  A    between atoms: C_12  and  C_14
REMARK    5  A    between atoms: C_21  and  C_24
REMARK    6  A    between atoms: C_22  and  N_23
REMARK    7  A    between atoms: C_24  and  C_26
REMARK                            x       y       z     vdW  Elec       q    Type
REMARK                         _______ _______ _______ _____ _____    ______ ____
ROOT
ATOM      1  C   UNL     1       3.580  -5.906   5.479  0.00  0.00    +0.054 A 
ATOM      2  C   UNL     1       4.233  -6.492   6.582  0.00  0.00    +0.058 A 
ATOM      3  C   UNL     1       4.781  -5.935   7.747  0.00  0.00    +0.027 A 
ATOM      4  C   UNL     1       5.366  -6.752   8.670  0.00  0.00    +0.003 A 
ATOM      5  C   UNL     1       5.411  -8.134   8.438  0.00  0.00    +0.018 A 
ATOM      6  C   UNL     1       4.878  -8.652   7.309  0.00  0.00    +0.092 A 
ATOM      7  N   UNL     1       4.290  -7.845   6.380  0.00  0.00    -0.311 N 
ATOM      8  C   UNL     1       3.685  -8.137   5.167  0.00  0.00    +0.116 A 
ATOM      9  C   UNL     1       3.235  -6.943   4.600  0.00  0.00    +0.064 A 
ENDROOT
BRANCH   1  13
ATOM     10  C   UNL     1       2.534  -2.549   4.275  0.00  0.00    +0.079 A 
ATOM     11  C   UNL     1       3.006  -1.807   5.324  0.00  0.00    +0.075 A 
ATOM     12  S   UNL     1       3.709  -3.092   6.350  0.00  0.00    -0.075 S 
ATOM     13  C   UNL     1       3.306  -4.472   5.288  0.00  0.00    +0.113 A 
ATOM     14  N   UNL     1       2.691  -3.861   4.285  0.00  0.00    -0.239 NA
BRANCH  10  18
ATOM     15  C   UNL     1       0.567  -0.646   1.019  0.00  0.00    +0.120 A 
ATOM     16  C   UNL     1       1.139   0.120   2.025  0.00  0.00    +0.046 A 
ATOM     17  C   UNL     1       1.777  -0.494   3.083  0.00  0.00    +0.013 A 
ATOM     18  C   UNL     1       1.848  -1.885   3.140  0.00  0.00    +0.001 A 
ATOM     19  C   UNL     1       1.273  -2.651   2.127  0.00  0.00    +0.013 A 
ATOM     20  C   UNL     1       0.631  -2.032   1.075  0.00  0.00    +0.046 A 
BRANCH  15  22
ATOM     21  C   UNL     1      -0.090   1.390  -0.017  0.00  0.00    +0.277 C 
ATOM     22  O   UNL     1      -0.061  -0.038  -0.022  0.00  0.00    -0.495 OA
ENDBRANCH  15  22
ENDBRANCH  10  18
ENDBRANCH   1  13
BRANCH   9  23
ATOM     23  N   UNL     1       2.570  -6.807   3.387  0.00  0.00    -0.356 N 
ATOM     24  H   UNL     1       2.365  -5.924   3.043  0.00  0.00    +0.142 HD
ATOM     25  H   UNL     1       2.311  -7.596   2.885  0.00  0.00    +0.142 HD
ENDBRANCH   9  23
BRANCH   8  26
ATOM     26  C   UNL     1       3.544  -9.420   4.606  0.00  0.00    +0.211 C 
ATOM     27  O   UNL     1       2.598 -10.123   4.920  0.00  0.00    -0.285 OA
BRANCH  26  28
ATOM     28  C   UNL     1       4.544  -9.916   3.634  0.00  0.00    +0.024 A 
ATOM     29  C   UNL     1       5.689  -9.166   3.362  0.00  0.00    +0.012 A 
ATOM     30  C   UNL     1       6.617  -9.634   2.455  0.00  0.00    +0.001 A 
ATOM     31  C   UNL     1       6.415 -10.844   1.816  0.00  0.00    +0.000 A 
ATOM     32  C   UNL     1       5.282 -11.593   2.081  0.00  0.00    +0.001 A 
ATOM     33  C   UNL     1       4.349 -11.139   2.990  0.00  0.00    +0.012 A 
ENDBRANCH  26  28
ENDBRANCH   8  26
TORSDOF 6
