REMARK  Name = ZINC38845216
REMARK  10 active torsions:
REMARK  status: ('A' for Active; 'I' for Inactive)
REMARK    1  A    between atoms: C_1  and  N_2
REMARK    2  A    between atoms: N_2  and  C_3
REMARK    3  A    between atoms: N_2  and  C_4
REMARK    4  A    between atoms: C_4  and  C_5
REMARK    5  A    between atoms: C_5  and  N_6
REMARK    6  A    between atoms: C_15  and  S_16
REMARK    7  A    between atoms: S_16  and  C_17
REMARK    8  A    between atoms: C_18  and  C_20
REMARK    9  A    between atoms: N_23  and  S_26
REMARK   10  A    between atoms: S_26  and  C_29
REMARK                            x       y       z     vdW  Elec       q    Type
REMARK                         _______ _______ _______ _____ _____    ______ ____
ROOT
ATOM      1  N   UNL     1      -2.654  -2.882  -0.070  0.00  0.00    -0.252 N 
ATOM      2  C   UNL     1      -3.200  -3.304  -1.272  0.00  0.00    +0.168 A 
ATOM      3  N   UNL     1      -4.416  -3.727  -1.520  0.00  0.00    -0.223 NA
ATOM      4  C   UNL     1      -4.815  -4.109  -2.753  0.00  0.00    +0.094 A 
ATOM      5  C   UNL     1      -3.836  -4.026  -3.767  0.00  0.00    +0.042 A 
ATOM      6  S   UNL     1      -2.427  -3.402  -2.881  0.00  0.00    -0.052 S 
ATOM      7  C   UNL     1      -4.085  -4.378  -5.072  0.00  0.00    +0.017 A 
ATOM      8  C   UNL     1      -5.339  -4.835  -5.431  0.00  0.00    +0.002 A 
ATOM      9  C   UNL     1      -6.330  -4.933  -4.466  0.00  0.00    +0.017 A 
ATOM     10  C   UNL     1      -6.092  -4.583  -3.155  0.00  0.00    +0.034 A 
ATOM     11  C   UNL     1      -3.443  -2.732   1.013  0.00  0.00    +0.224 C 
ATOM     12  O   UNL     1      -2.978  -2.301   2.047  0.00  0.00    -0.275 OA
ENDROOT
BRANCH  11  13
ATOM     13  C   UNL     1      -4.902  -3.099   0.938  0.00  0.00    +0.078 C 
ATOM     14  C   UNL     1      -5.689  -1.938   0.325  0.00  0.00    +0.030 C 
ATOM     15  C   UNL     1      -7.167  -2.328   0.219  0.00  0.00    +0.110 C 
ATOM     16  N   UNL     1      -7.642  -2.747   1.545  0.00  0.00    -0.176 NA
ATOM     17  C   UNL     1      -6.903  -3.794   2.263  0.00  0.00    +0.110 C 
ATOM     18  C   UNL     1      -5.428  -3.388   2.346  0.00  0.00    +0.030 C 
BRANCH  16  19
ATOM     19  S   UNL     1      -8.986  -2.050   2.218  0.00  0.00    +0.067 S 
ATOM     20  O   UNL     1      -8.868  -2.217   3.624  0.00  0.00    -0.152 OA
ATOM     21  O   UNL     1      -9.128  -0.773   1.612  0.00  0.00    -0.152 OA
BRANCH  19  22
ATOM     22  C   UNL     1     -10.377  -3.006   1.712  0.00  0.00    +0.143 A 
ATOM     23  C   UNL     1     -10.944  -4.076   2.321  0.00  0.00    +0.036 A 
ATOM     24  C   UNL     1     -12.044  -4.675   1.735  0.00  0.00    +0.010 A 
ATOM     25  C   UNL     1     -12.522  -4.174   0.570  0.00  0.00    +0.047 A 
ATOM     26  S   UNL     1     -11.410  -2.811   0.269  0.00  0.00    -0.077 S 
ENDBRANCH  19  22
ENDBRANCH  16  19
ENDBRANCH  11  13
BRANCH  10  27
ATOM     27  S   UNL     1      -7.384  -4.724  -1.965  0.00  0.00    -0.126 S 
ATOM     28  C   UNL     1      -8.792  -5.354  -2.919  0.00  0.00    +0.090 C 
ENDBRANCH  10  27
BRANCH   1  29
ATOM     29  C   UNL     1      -1.219  -2.600   0.025  0.00  0.00    +0.097 C 
BRANCH  29  30
ATOM     30  C   UNL     1      -0.963  -1.136  -0.340  0.00  0.00    -0.060 C 
BRANCH  30  32
ATOM     31  C   UNL     1       0.737   0.516  -0.711  0.00  0.00    -0.097 C 
ATOM     32  N   UNL     1       0.476  -0.853  -0.246  0.00  0.00    +0.377 N 
ATOM     33  C   UNL     1       0.910  -0.987   1.151  0.00  0.00    -0.097 C 
ATOM     34  H   UNL     1       0.986  -1.506  -0.821  0.00  0.00    -0.083 HD
ENDBRANCH  30  32
ENDBRANCH  29  30
ENDBRANCH   1  29
TORSDOF 7
