REMARK  Name = ZINC66054611
REMARK  2 active torsions:
REMARK  status: ('A' for Active; 'I' for Inactive)
REMARK    1  A    between atoms: C_6  and  C_7
REMARK    2  A    between atoms: C_12  and  C_14
REMARK                            x       y       z     vdW  Elec       q    Type
REMARK                         _______ _______ _______ _____ _____    ______ ____
ROOT
ATOM      1  C   UNL     1      -0.017   1.383   0.010  0.00  0.00    +0.013 A 
ATOM      2  C   UNL     1       1.179   2.078   0.002  0.00  0.00    +0.018 A 
ATOM      3  C   UNL     1       2.364   1.385  -0.013  0.00  0.00    +0.040 A 
ATOM      4  C   UNL     1       2.422  -0.029  -0.021  0.00  0.00    +0.079 A 
ATOM      5  C   UNL     1       1.179  -0.705  -0.013  0.00  0.00    +0.041 A 
ATOM      6  C   UNL     1       0.002  -0.004   0.002  0.00  0.00    +0.057 A 
ATOM      7  N   UNL     1       3.660  -0.563  -0.036  0.00  0.00    -0.239 NA
ATOM      8  C   UNL     1       4.749   0.176  -0.042  0.00  0.00    +0.115 A 
ATOM      9  S   UNL     1       4.083   1.835  -0.027  0.00  0.00    -0.067 S 
ENDROOT
BRANCH   8  10
ATOM     10  C   UNL     1       6.161  -0.256  -0.058  0.00  0.00    +0.081 A 
ATOM     11  C   UNL     1       6.497  -1.616  -0.074  0.00  0.00    +0.145 A 
ATOM     12  N   UNL     1       7.773  -1.960  -0.088  0.00  0.00    -0.202 NA
ATOM     13  C   UNL     1       8.727  -1.040  -0.087  0.00  0.00    +0.215 A 
ATOM     14  N   UNL     1       8.451   0.257  -0.071  0.00  0.00    -0.202 NA
ATOM     15  C   UNL     1       7.200   0.684  -0.063  0.00  0.00    +0.145 A 
ATOM     16 CL   UNL     1       6.850   2.385  -0.051  0.00  0.00    -0.061 Cl
ATOM     17  N   UNL     1      10.049  -1.444  -0.101  0.00  0.00    -0.327 N 
ATOM     18 CL   UNL     1       5.256  -2.830  -0.076  0.00  0.00    -0.061 Cl
ATOM     19  H   UNL     1      10.267  -2.389  -0.112  0.00  0.00    +0.145 HD
ATOM     20  H   UNL     1      10.758  -0.782  -0.100  0.00  0.00    +0.145 HD
ENDBRANCH   8  10
BRANCH   6  21
ATOM     21  C   UNL     1      -1.303  -0.758   0.010  0.00  0.00    +0.417 C 
ATOM     22  F   UNL     1      -2.366   0.151   0.025  0.00  0.00    -0.166 F 
ATOM     23  F   UNL     1      -1.388  -1.556  -1.135  0.00  0.00    -0.166 F 
ATOM     24  F   UNL     1      -1.366  -1.568   1.149  0.00  0.00    -0.166 F 
ENDBRANCH   6  21
TORSDOF 2
