REMARK  Name = ZINC33807245
REMARK  7 active torsions:
REMARK  status: ('A' for Active; 'I' for Inactive)
REMARK    1  A    between atoms: C_1  and  C_2
REMARK    2  A    between atoms: C_9  and  N_29
REMARK    3  A    between atoms: C_10  and  C_13
REMARK    4  A    between atoms: N_17  and  C_21
REMARK    5  A    between atoms: C_21  and  C_22
REMARK    6  A    between atoms: N_29  and  C_30
REMARK    7  A    between atoms: C_33  and  C_36
REMARK                            x       y       z     vdW  Elec       q    Type
REMARK                         _______ _______ _______ _____ _____    ______ ____
ROOT
ATOM      1  C   UNL     1      -3.393  -6.390   1.098  0.00  0.00    +0.047 C 
ATOM      2  C   UNL     1      -4.273  -5.797   2.168  0.00  0.00    -0.007 A 
ATOM      3  C   UNL     1      -5.455  -6.393   2.493  0.00  0.00    +0.008 A 
ATOM      4  C   UNL     1      -6.262  -5.829   3.491  0.00  0.00    +0.019 A 
ATOM      5  C   UNL     1      -5.868  -4.702   4.125  0.00  0.00    +0.096 A 
ATOM      6  N   UNL     1      -4.688  -4.098   3.808  0.00  0.00    -0.267 N 
ATOM      7  C   UNL     1      -3.880  -4.624   2.838  0.00  0.00    +0.145 A 
ATOM      8  N   UNL     1      -2.724  -4.045   2.510  0.00  0.00    -0.214 NA
ATOM      9  C   UNL     1      -2.303  -2.943   3.113  0.00  0.00    +0.134 A 
ATOM     10  C   UNL     1      -3.098  -2.354   4.124  0.00  0.00    +0.081 A 
ATOM     11  C   UNL     1      -4.325  -2.974   4.460  0.00  0.00    +0.267 A 
ATOM     12  O   UNL     1      -5.041  -2.500   5.325  0.00  0.00    -0.267 OA
ENDROOT
BRANCH  10  13
ATOM     13  C   UNL     1      -2.676  -1.175   4.782  0.00  0.00    +0.037 C 
ATOM     14  C   UNL     1      -2.360  -1.209   6.109  0.00  0.00    +0.077 C 
ATOM     15  C   UNL     1      -2.283  -2.323   6.993  0.00  0.00    +0.259 C 
ATOM     16  O   UNL     1      -2.515  -3.453   6.599  0.00  0.00    -0.269 OA
ATOM     17  N   UNL     1      -1.951  -2.097   8.252  0.00  0.00    -0.251 N 
ATOM     18  C   UNL     1      -1.693  -0.844   8.688  0.00  0.00    +0.121 C 
ATOM     19  S   UNL     1      -1.249  -0.324  10.258  0.00  0.00    -0.027 S 
ATOM     20  S   UNL     1      -1.923   0.130   7.209  0.00  0.00    -0.061 S 
BRANCH  17  21
ATOM     21  C   UNL     1      -1.862  -3.221   9.188  0.00  0.00    +0.150 C 
BRANCH  21  22
ATOM     22  C   UNL     1      -0.460  -3.773   9.178  0.00  0.00    -0.029 A 
ATOM     23  C   UNL     1      -0.123  -4.786   8.299  0.00  0.00    +0.008 A 
ATOM     24  C   UNL     1       1.164  -5.289   8.285  0.00  0.00    +0.038 A 
ATOM     25  C   UNL     1       2.112  -4.787   9.160  0.00  0.00    +0.123 A 
ATOM     26  C   UNL     1       1.772  -3.777  10.043  0.00  0.00    +0.038 A 
ATOM     27  C   UNL     1       0.486  -3.271  10.051  0.00  0.00    +0.008 A 
ATOM     28  F   UNL     1       3.369  -5.283   9.151  0.00  0.00    -0.205 F 
ENDBRANCH  21  22
ENDBRANCH  17  21
ENDBRANCH  10  13
BRANCH   9  29
ATOM     29  N   UNL     1      -1.101  -2.373   2.754  0.00  0.00    -0.326 N 
ATOM     30  H   UNL     1      -0.757  -1.456   3.254  0.00  0.00    +0.148 HD
BRANCH  29  31
ATOM     31  C   UNL     1      -0.282  -2.988   1.707  0.00  0.00    +0.072 C 
ATOM     32  C   UNL     1       1.183  -2.596   1.909  0.00  0.00    +0.022 C 
ATOM     33  C   UNL     1       1.319  -1.074   1.835  0.00  0.00    +0.005 C 
ATOM     34  C   UNL     1       0.846  -0.586   0.465  0.00  0.00    -0.014 C 
ATOM     35  C   UNL     1      -0.619  -0.978   0.262  0.00  0.00    +0.005 C 
ATOM     36  C   UNL     1      -0.755  -2.500   0.336  0.00  0.00    +0.022 C 
ATOM     37  C   UNL     1       0.982   0.936   0.391  0.00  0.00    +0.007 C 
ENDBRANCH  29  31
ENDBRANCH   9  29
TORSDOF 5
