REMARK  Name = ZINC65886443
REMARK  3 active torsions:
REMARK  status: ('A' for Active; 'I' for Inactive)
REMARK    1  A    between atoms: C_5  and  O_11
REMARK    2  A    between atoms: O_11  and  S_12
REMARK    3  A    between atoms: S_12  and  C_15
REMARK                            x       y       z     vdW  Elec       q    Type
REMARK                         _______ _______ _______ _____ _____    ______ ____
ROOT
ATOM      1  S   UNL     1       6.521   2.171   1.344  0.00  0.00    +0.154 S 
ATOM      2  O   UNL     1       7.660   3.002   1.162  0.00  0.00    -0.131 OA
ATOM      3  O   UNL     1       5.422   2.554   2.158  0.00  0.00    -0.131 OA
ENDROOT
BRANCH   1   4
ATOM      4  C   UNL     1       7.113   0.639   1.983  0.00  0.00    +0.163 A 
ATOM      5  C   UNL     1       6.266  -0.179   2.708  0.00  0.00    +0.039 A 
ATOM      6  C   UNL     1       6.726  -1.380   3.210  0.00  0.00    -0.024 A 
ATOM      7  C   UNL     1       8.041  -1.768   2.987  0.00  0.00    +0.039 A 
ATOM      8  C   UNL     1       8.891  -0.946   2.259  0.00  0.00    +0.064 A 
ATOM      9  C   UNL     1       8.423   0.254   1.754  0.00  0.00    +0.153 A 
ATOM     10  F   UNL     1       9.246   1.053   1.041  0.00  0.00    -0.203 F 
ATOM     11  N   UNL     1       8.506  -2.985   3.495  0.00  0.00    -0.285 N 
ATOM     12  C   UNL     1       7.638  -3.945   3.865  0.00  0.00    +0.218 C 
ATOM     13  O   UNL     1       8.057  -4.989   4.318  0.00  0.00    -0.275 OA
ATOM     14  C   UNL     1       6.154  -3.737   3.726  0.00  0.00    +0.101 C 
ATOM     15  C   UNL     1       5.805  -2.273   4.000  0.00  0.00    +0.046 C 
ATOM     16  H   UNL     1       9.460  -3.139   3.580  0.00  0.00    +0.155 HD
ENDBRANCH   1   4
BRANCH   1  17
ATOM     17  O   UNL     1       5.960   1.893  -0.043  0.00  0.00    -0.342 OA
BRANCH  17  22
ATOM     18  C   UNL     1      -0.017   1.389   0.010  0.00  0.00    +0.020 A 
ATOM     19  C   UNL     1       1.158   2.086   0.002  0.00  0.00    +0.011 A 
ATOM     20  C   UNL     1       2.362   1.359  -0.013  0.00  0.00    +0.004 A 
ATOM     21  C   UNL     1       3.607   2.007  -0.021  0.00  0.00    +0.058 A 
ATOM     22  C   UNL     1       4.754   1.266  -0.036  0.00  0.00    +0.157 A 
ATOM     23  C   UNL     1       4.702  -0.132  -0.043  0.00  0.00    +0.051 A 
ATOM     24  C   UNL     1       3.511  -0.788  -0.036  0.00  0.00    +0.032 A 
ATOM     25  C   UNL     1       2.309  -0.058  -0.020  0.00  0.00    +0.071 A 
ATOM     26  N   UNL     1       1.126  -0.679  -0.012  0.00  0.00    -0.255 NA
ATOM     27  C   UNL     1       0.002  -0.004   0.002  0.00  0.00    +0.111 A 
ENDBRANCH  17  22
ENDBRANCH   1  17
TORSDOF 3
