REMARK  Name = ZINC00071085
REMARK  3 active torsions:
REMARK  status: ('A' for Active; 'I' for Inactive)
REMARK    1  A    between atoms: C_3  and  C_8
REMARK    2  A    between atoms: C_10  and  C_21
REMARK    3  A    between atoms: C_11  and  N_20
REMARK                            x       y       z     vdW  Elec       q    Type
REMARK                         _______ _______ _______ _____ _____    ______ ____
ROOT
ATOM      1  C   UNL     1       1.277   2.193   0.002  0.00  0.00    +0.101 C 
ATOM      2  C   UNL     1      -0.017   1.428   0.010  0.00  0.00    +0.098 C 
ATOM      3  C   UNL     1      -1.202   2.086   0.019  0.00  0.00    +0.198 C 
ATOM      4  O   UNL     1      -1.258   3.426   0.027  0.00  0.00    -0.445 OA
ATOM      5  C   UNL     1      -0.196   4.141   0.445  0.00  0.00    +0.115 C 
ATOM      6  C   UNL     1       1.042   3.612   0.459  0.00  0.00    +0.046 C 
ATOM      7  C   UNL     1       2.152   4.359   0.899  0.00  0.00    +0.163 C 
ATOM      8  O   UNL     1       3.257   3.854   0.878  0.00  0.00    -0.292 OA
ATOM      9  C   UNL     1       1.994   5.771   1.394  0.00  0.00    +0.080 C 
ATOM     10  C   UNL     1       0.586   5.936   1.976  0.00  0.00    +0.016 C 
ATOM     11  C   UNL     1      -0.432   5.563   0.897  0.00  0.00    +0.075 C 
ENDROOT
BRANCH   1  14
ATOM     12  C   UNL     1       1.632   2.775  -3.712  0.00  0.00    +0.003 A 
ATOM     13  C   UNL     1       1.112   2.758  -2.431  0.00  0.00    +0.005 A 
ATOM     14  C   UNL     1       1.841   2.204  -1.395  0.00  0.00    -0.032 A 
ATOM     15  C   UNL     1       3.086   1.656  -1.642  0.00  0.00    +0.043 A 
ATOM     16  C   UNL     1       3.605   1.667  -2.925  0.00  0.00    +0.124 A 
ATOM     17  C   UNL     1       2.876   2.227  -3.961  0.00  0.00    +0.038 A 
ATOM     18  F   UNL     1       4.821   1.131  -3.167  0.00  0.00    -0.205 F 
ENDBRANCH   1  14
BRANCH   3  19
ATOM     19  N   UNL     1      -2.371   1.365   0.026  0.00  0.00    -0.328 N 
ATOM     20  H   UNL     1      -2.342   0.395   0.025  0.00  0.00    +0.145 HD
ATOM     21  H   UNL     1      -3.224   1.825   0.033  0.00  0.00    +0.145 HD
ENDBRANCH   3  19
BRANCH   2  22
ATOM     22  C   UNL     1       0.002  -0.004   0.002  0.00  0.00    +0.101 C 
ATOM     23  N   UNL     1       0.018  -1.140  -0.004  0.00  0.00    -0.191 NA
ENDBRANCH   2  22
TORSDOF 3
