REMARK  Name = ZINC01153504
REMARK  12 active torsions:
REMARK  status: ('A' for Active; 'I' for Inactive)
REMARK    1  A    between atoms: C_1  and  C_2
REMARK    2  A    between atoms: C_2  and  C_3
REMARK    3  A    between atoms: C_2  and  C_4
REMARK    4  A    between atoms: C_4  and  C_5
REMARK    5  A    between atoms: C_8  and  C_11
REMARK    6  A    between atoms: C_18  and  N_34
REMARK    7  A    between atoms: C_19  and  C_32
REMARK    8  A    between atoms: C_20  and  C_22
REMARK    9  A    between atoms: C_26  and  O_30
REMARK   10  A    between atoms: C_27  and  O_28
REMARK   11  A    between atoms: O_28  and  C_29
REMARK   12  A    between atoms: O_30  and  C_31
REMARK                            x       y       z     vdW  Elec       q    Type
REMARK                         _______ _______ _______ _____ _____    ______ ____
ROOT
ATOM      1  C   UNL     1       6.761   0.929  -1.789  0.00  0.00    +0.100 A 
ATOM      2  C   UNL     1       7.470   0.964  -0.585  0.00  0.00    +0.054 A 
ATOM      3  C   UNL     1       8.765   1.291  -0.867  0.00  0.00    +0.223 A 
ATOM      4  N   UNL     1       8.866   1.454  -2.202  0.00  0.00    -0.246 N 
ATOM      5  H   UNL     1       9.671   1.689  -2.689  0.00  0.00    +0.192 HD
ATOM      6  N   UNL     1       7.601   1.218  -2.764  0.00  0.00    -0.171 NA
ATOM      7  O   UNL     1       9.716   1.411   0.094  0.00  0.00    -0.423 OA
ATOM      8  C   UNL     1       9.304   1.470   1.376  0.00  0.00    +0.200 C 
ATOM      9  C   UNL     1       8.052   1.158   1.779  0.00  0.00    +0.098 C 
ATOM     10  C   UNL     1       6.983   0.704   0.817  0.00  0.00    +0.105 C 
ENDROOT
BRANCH   1  14
ATOM     11  C   UNL     1       2.629   0.026  -2.232  0.00  0.00    -0.047 A 
ATOM     12  C   UNL     1       3.551  -0.522  -3.105  0.00  0.00    +0.004 A 
ATOM     13  C   UNL     1       4.893  -0.232  -2.966  0.00  0.00    +0.010 A 
ATOM     14  C   UNL     1       5.319   0.614  -1.944  0.00  0.00    +0.003 A 
ATOM     15  C   UNL     1       4.385   1.163  -1.067  0.00  0.00    +0.010 A 
ATOM     16  C   UNL     1       3.045   0.871  -1.219  0.00  0.00    +0.004 A 
BRANCH  11  17
ATOM     17  C   UNL     1       1.164  -0.293  -2.389  0.00  0.00    +0.038 C 
BRANCH  17  19
ATOM     18  C   UNL     1       1.114   0.592  -4.725  0.00  0.00    +0.007 C 
ATOM     19  C   UNL     1       0.516   0.731  -3.324  0.00  0.00    -0.013 C 
ATOM     20  C   UNL     1      -0.992   0.482  -3.385  0.00  0.00    +0.007 C 
ENDBRANCH  17  19
ENDBRANCH  11  17
ENDBRANCH   1  14
BRANCH  10  21
ATOM     21  C   UNL     1       6.726  -0.770   1.000  0.00  0.00    +0.011 A 
ATOM     22  C   UNL     1       5.581  -1.198   1.646  0.00  0.00    +0.008 A 
ATOM     23  C   UNL     1       5.343  -2.548   1.816  0.00  0.00    +0.004 A 
ATOM     24  C   UNL     1       6.249  -3.478   1.341  0.00  0.00    +0.049 A 
ATOM     25  C   UNL     1       7.399  -3.057   0.694  0.00  0.00    +0.162 A 
ATOM     26  C   UNL     1       7.636  -1.697   0.517  0.00  0.00    +0.166 A 
BRANCH  26  27
ATOM     27  O   UNL     1       8.760  -1.278  -0.123  0.00  0.00    -0.491 OA
ATOM     28  C   UNL     1       9.968  -1.248   0.640  0.00  0.00    +0.277 C 
ENDBRANCH  26  27
BRANCH  25  29
ATOM     29  O   UNL     1       8.292  -3.970   0.226  0.00  0.00    -0.491 OA
ATOM     30  C   UNL     1       7.980  -5.349   0.438  0.00  0.00    +0.277 C 
ENDBRANCH  25  29
ENDBRANCH  10  21
BRANCH   8  31
ATOM     31  N   UNL     1      10.209   1.870   2.328  0.00  0.00    -0.328 N 
ATOM     32  H   UNL     1      11.115   2.100   2.070  0.00  0.00    +0.145 HD
ATOM     33  H   UNL     1       9.942   1.921   3.259  0.00  0.00    +0.145 HD
ENDBRANCH   8  31
BRANCH   9  34
ATOM     34  C   UNL     1       7.729   1.262   3.171  0.00  0.00    +0.101 C 
ATOM     35  N   UNL     1       7.473   1.345   4.274  0.00  0.00    -0.191 NA
ENDBRANCH   9  34
TORSDOF 8
