REMARK  Name = ZINC04823582
REMARK  6 active torsions:
REMARK  status: ('A' for Active; 'I' for Inactive)
REMARK    1  A    between atoms: C_1  and  N_44
REMARK    2  A    between atoms: C_2  and  C_3
REMARK    3  A    between atoms: C_2  and  N_44
REMARK    4  A    between atoms: C_8  and  O_9
REMARK    5  A    between atoms: C_12  and  N_13
REMARK    6  A    between atoms: C_12  and  N_44
REMARK                            x       y       z     vdW  Elec       q    Type
REMARK                         _______ _______ _______ _____ _____    ______ ____
ROOT
ATOM      1  C   UNL     1      -4.289   5.644  -1.325  0.00  0.00    +0.047 C 
ENDROOT
BRANCH   1   2
ATOM      2  N   UNL     1      -4.751   5.781  -2.709  0.00  0.00    -0.357 N 
ATOM      3  C   UNL     1      -4.528   6.886  -3.511  0.00  0.00    +0.048 A 
ATOM      4  C   UNL     1      -3.856   8.084  -3.290  0.00  0.00    +0.026 A 
ATOM      5  C   UNL     1      -3.780   9.028  -4.292  0.00  0.00    +0.002 A 
ATOM      6  C   UNL     1      -4.366   8.795  -5.526  0.00  0.00    +0.001 A 
ATOM      7  C   UNL     1      -5.033   7.612  -5.766  0.00  0.00    +0.010 A 
ATOM      8  C   UNL     1      -5.116   6.650  -4.763  0.00  0.00    +0.008 A 
ATOM      9  C   UNL     1      -5.736   5.314  -4.688  0.00  0.00    +0.008 A 
ATOM     10  C   UNL     1      -5.479   4.827  -3.398  0.00  0.00    +0.048 A 
ATOM     11  C   UNL     1      -5.951   3.569  -3.038  0.00  0.00    +0.026 A 
ATOM     12  C   UNL     1      -6.665   2.815  -3.944  0.00  0.00    +0.002 A 
ATOM     13  C   UNL     1      -6.919   3.297  -5.219  0.00  0.00    +0.001 A 
ATOM     14  C   UNL     1      -6.459   4.541  -5.594  0.00  0.00    +0.010 A 
ENDBRANCH   1   2
BRANCH   1  16
ATOM     15  C   UNL     1      -1.960   5.912  -1.929  0.00  0.00    -0.093 C 
ATOM     16  N   UNL     1      -2.958   5.002  -1.329  0.00  0.00    +0.392 N 
ATOM     17  H   UNL     1      -3.004   4.142  -1.889  0.00  0.00    -0.079 HD
BRANCH  16  18
ATOM     18  C   UNL     1      -2.561   4.655   0.052  0.00  0.00    -0.037 C 
BRANCH  18  19
ATOM     19  C   UNL     1      -1.399   3.696  -0.005  0.00  0.00    -0.020 A 
ATOM     20  C   UNL     1      -0.123   4.138   0.284  0.00  0.00    +0.020 A 
ATOM     21  C   UNL     1       0.944   3.260   0.227  0.00  0.00    +0.019 A 
ATOM     22  C   UNL     1       0.735   1.934  -0.110  0.00  0.00    +0.034 A 
ATOM     23  C   UNL     1      -0.541   1.486  -0.395  0.00  0.00    +0.060 A 
ATOM     24  C   UNL     1      -1.613   2.368  -0.343  0.00  0.00    +0.132 A 
ATOM     25 BR   UNL     1      -0.828  -0.325  -0.854  0.00  0.00    -0.046 Br
ATOM     26 BR   UNL     1       2.691   3.870   0.616  0.00  0.00    -0.050 Br
BRANCH  24  27
ATOM     27  O   UNL     1      -2.868   1.930  -0.623  0.00  0.00    -0.505 OA
ATOM     28  H   UNL     1      -3.326   1.538   0.133  0.00  0.00    +0.292 HD
ENDBRANCH  24  27
ENDBRANCH  18  19
ENDBRANCH  16  18
ENDBRANCH   1  16
TORSDOF 5
