REMARK  Name = ZINC34683975
REMARK  11 active torsions:
REMARK  status: ('A' for Active; 'I' for Inactive)
REMARK    1  A    between atoms: C_1  and  C_2
REMARK    2  A    between atoms: C_2  and  C_3
REMARK    3  A    between atoms: C_6  and  N_9
REMARK    4  A    between atoms: N_9  and  C_10
REMARK    5  A    between atoms: N_9  and  S_26
REMARK    6  A    between atoms: N_13  and  C_16
REMARK    7  A    between atoms: C_16  and  C_17
REMARK    8  A    between atoms: C_21  and  O_24
REMARK    9  A    between atoms: C_22  and  O_23
REMARK   10  A    between atoms: O_24  and  C_25
REMARK   11  A    between atoms: S_26  and  C_29
REMARK                            x       y       z     vdW  Elec       q    Type
REMARK                         _______ _______ _______ _____ _____    ______ ____
ROOT
ATOM      1  N   UNL     1       2.745  -1.883   4.596  0.00  0.00    -0.200 N 
ENDROOT
BRANCH   1   2
ATOM      2  C   UNL     1       2.249  -1.548   5.933  0.00  0.00    +0.095 C 
ATOM      3  C   UNL     1       2.108  -0.029   6.062  0.00  0.00    +0.006 C 
ATOM      4  C   UNL     1       1.515   0.309   7.431  0.00  0.00    -0.077 C 
ATOM      5  N   UNL     1       0.196  -0.319   7.566  0.00  0.00    +0.383 N 
ATOM      6  C   UNL     1       0.332  -1.780   7.516  0.00  0.00    -0.077 C 
ATOM      7  C   UNL     1       0.879  -2.198   6.149  0.00  0.00    +0.006 C 
ATOM      8  H   UNL     1      -0.400  -0.012   6.812  0.00  0.00    -0.081 HD
BRANCH   5   9
ATOM      9  C   UNL     1      -0.402   0.072   8.849  0.00  0.00    -0.039 C 
BRANCH   9  10
ATOM     10  C   UNL     1      -1.806  -0.471   8.936  0.00  0.00    -0.019 A 
ATOM     11  C   UNL     1      -2.883   0.352   8.665  0.00  0.00    +0.005 A 
ATOM     12  C   UNL     1      -4.171  -0.143   8.743  0.00  0.00    +0.004 A 
ATOM     13  C   UNL     1      -4.388  -1.464   9.093  0.00  0.00    +0.049 A 
ATOM     14  C   UNL     1      -3.313  -2.293   9.366  0.00  0.00    +0.161 A 
ATOM     15  C   UNL     1      -2.015  -1.796   9.281  0.00  0.00    +0.160 A 
BRANCH  15  16
ATOM     16  O   UNL     1      -0.956  -2.609   9.542  0.00  0.00    -0.503 OA
ATOM     17  H   UNL     1      -0.685  -2.616  10.470  0.00  0.00    +0.292 HD
ENDBRANCH  15  16
BRANCH  14  18
ATOM     18  O   UNL     1      -3.524  -3.592   9.710  0.00  0.00    -0.491 OA
ATOM     19  C   UNL     1      -4.882  -4.034   9.771  0.00  0.00    +0.277 C 
ENDBRANCH  14  18
ENDBRANCH   9  10
ENDBRANCH   5   9
ENDBRANCH   1   2
BRANCH   1  23
ATOM     20  C   UNL     1       0.614  -0.684   1.226  0.00  0.00    -0.048 A 
ATOM     21  C   UNL     1       0.326  -1.895   1.829  0.00  0.00    +0.005 A 
ATOM     22  C   UNL     1       1.031  -2.296   2.947  0.00  0.00    +0.025 A 
ATOM     23  C   UNL     1       2.030  -1.481   3.465  0.00  0.00    +0.052 A 
ATOM     24  C   UNL     1       2.316  -0.265   2.857  0.00  0.00    +0.025 A 
ATOM     25  C   UNL     1       1.611   0.127   1.736  0.00  0.00    +0.005 A 
BRANCH  20  27
ATOM     26  C   UNL     1       0.548  -0.760  -1.252  0.00  0.00    +0.009 C 
ATOM     27  C   UNL     1      -0.158  -0.250   0.006  0.00  0.00    +0.032 C 
ENDBRANCH  20  27
ENDBRANCH   1  23
BRANCH   1  28
ATOM     28  S   UNL     1       4.152  -2.738   4.425  0.00  0.00    +0.075 S 
ATOM     29  O   UNL     1       4.264  -3.571   5.571  0.00  0.00    -0.150 OA
ATOM     30  O   UNL     1       4.154  -3.258   3.103  0.00  0.00    -0.150 OA
BRANCH  28  31
ATOM     31  C   UNL     1       5.479  -1.581   4.512  0.00  0.00    +0.109 A 
ATOM     32  C   UNL     1       5.942  -0.973   3.361  0.00  0.00    +0.029 A 
ATOM     33  C   UNL     1       6.983  -0.066   3.429  0.00  0.00    +0.002 A 
ATOM     34  C   UNL     1       7.559   0.234   4.650  0.00  0.00    +0.000 A 
ATOM     35  C   UNL     1       7.095  -0.374   5.801  0.00  0.00    +0.002 A 
ATOM     36  C   UNL     1       6.052  -1.278   5.733  0.00  0.00    +0.029 A 
ENDBRANCH  28  31
ENDBRANCH   1  28
TORSDOF 9
