REMARK  Name = ZINC35936732
REMARK  4 active torsions:
REMARK  status: ('A' for Active; 'I' for Inactive)
REMARK    1  A    between atoms: C_1  and  C_2
REMARK    2  A    between atoms: C_2  and  C_3
REMARK    3  A    between atoms: C_3  and  C_4
REMARK    4  A    between atoms: C_11  and  C_15
REMARK                            x       y       z     vdW  Elec       q    Type
REMARK                         _______ _______ _______ _____ _____    ______ ____
ROOT
ATOM      1  C   UNL     1      -1.299  -2.054  -0.111  0.00  0.00    +0.216 C 
ATOM      2  O   UNL     1      -0.251  -2.663  -0.147  0.00  0.00    -0.276 OA
ATOM      3  N   UNL     1      -2.467  -2.725  -0.061  0.00  0.00    -0.297 N 
ATOM      4  C   UNL     1      -3.747  -2.003  -0.023  0.00  0.00    +0.114 C 
ATOM      5  C   UNL     1      -4.534  -2.283  -1.310  0.00  0.00    +0.076 C 
ATOM      6  C   UNL     1      -4.490  -3.764  -1.590  0.00  0.00    +0.070 A 
ATOM      7  C   UNL     1      -3.555  -4.635  -1.015  0.00  0.00    +0.023 A 
ATOM      8  C   UNL     1      -3.838  -5.879  -1.515  0.00  0.00    +0.125 A 
ATOM      9  N   UNL     1      -4.910  -5.711  -2.352  0.00  0.00    -0.272 N 
ATOM     10  H   UNL     1      -5.341  -6.418  -2.856  0.00  0.00    +0.189 HD
ATOM     11  N   UNL     1      -5.258  -4.471  -2.368  0.00  0.00    -0.178 NA
ATOM     12  C   UNL     1      -2.489  -4.200  -0.051  0.00  0.00    +0.147 C 
ENDROOT
BRANCH   8  13
ATOM     13  C   UNL     1      -3.135  -7.137  -1.216  0.00  0.00    +0.265 C 
ATOM     14  O   UNL     1      -2.428  -7.654  -2.060  0.00  0.00    -0.268 OA
ATOM     15  N   UNL     1      -3.275  -7.715  -0.007  0.00  0.00    -0.296 N 
ATOM     16  C   UNL     1      -4.224  -7.175   0.976  0.00  0.00    +0.108 C 
ATOM     17  C   UNL     1      -5.155  -8.302   1.434  0.00  0.00    +0.019 C 
ATOM     18  C   UNL     1      -4.316  -9.474   1.949  0.00  0.00    +0.003 C 
ATOM     19  C   UNL     1      -3.433 -10.007   0.818  0.00  0.00    +0.019 C 
ATOM     20  C   UNL     1      -2.487  -8.902   0.351  0.00  0.00    +0.108 C 
ENDBRANCH   8  13
BRANCH   1  21
ATOM     21  C   UNL     1      -1.296  -0.547  -0.122  0.00  0.00    +0.096 C 
BRANCH  21  23
ATOM     22  C   UNL     1       0.150   1.490  -0.192  0.00  0.00    +0.004 C 
ATOM     23  C   UNL     1       0.146  -0.040  -0.181  0.00  0.00    +0.006 C 
ENDBRANCH  21  23
ENDBRANCH   1  21
TORSDOF 3
