REMARK  Name = ZINC13127375
REMARK  3 active torsions:
REMARK  status: ('A' for Active; 'I' for Inactive)
REMARK    1  A    between atoms: C_1  and  C_2
REMARK    2  A    between atoms: C_2  and  C_23
REMARK    3  A    between atoms: C_6  and  C_14
REMARK                            x       y       z     vdW  Elec       q    Type
REMARK                         _______ _______ _______ _____ _____    ______ ____
ROOT
ATOM      1  C   UNL     1      -0.019   1.526   0.010  0.00  0.00    +0.011 C 
ATOM      2  C   UNL     1       0.002  -0.004   0.002  0.00  0.00    -0.023 C 
ATOM      3  C   UNL     1      -1.431  -0.539   0.041  0.00  0.00    +0.058 C 
ATOM      4  C   UNL     1      -1.409  -2.049   0.077  0.00  0.00    +0.020 C 
ATOM      5  C   UNL     1      -0.393  -2.714   0.667  0.00  0.00    +0.042 C 
ATOM      6  C   UNL     1      -0.342  -4.226   0.717  0.00  0.00    +0.194 C 
ATOM      7  N   UNL     1      -1.641  -4.780   0.360  0.00  0.00    -0.219 N 
ATOM      8  C   UNL     1      -2.628  -4.054  -0.222  0.00  0.00    +0.219 A 
ATOM      9  N   UNL     1      -3.649  -4.844  -0.415  0.00  0.00    -0.201 NA
ATOM     10  C   UNL     1      -3.356  -6.070   0.031  0.00  0.00    +0.247 A 
ATOM     11  N   UNL     1      -2.138  -6.074   0.513  0.00  0.00    -0.156 NA
ATOM     12  N   UNL     1      -2.464  -2.709  -0.507  0.00  0.00    -0.287 N 
ATOM     13  C   UNL     1       0.675  -2.019   1.263  0.00  0.00    +0.164 C 
ATOM     14  O   UNL     1       1.564  -2.646   1.806  0.00  0.00    -0.292 OA
ATOM     15  C   UNL     1       0.742  -0.517   1.242  0.00  0.00    +0.086 C 
ATOM     16  C   UNL     1       0.706  -0.503  -1.262  0.00  0.00    +0.011 C 
ATOM     17  H   UNL     1      -3.075  -2.246  -1.101  0.00  0.00    +0.155 HD
ENDROOT
BRANCH   6  18
ATOM     18  C   UNL     1       0.696  -4.724  -0.255  0.00  0.00    +0.070 A 
ATOM     19  C   UNL     1       0.358  -4.902  -1.583  0.00  0.00    +0.026 A 
ATOM     20  C   UNL     1       1.321  -5.361  -2.469  0.00  0.00    +0.003 A 
ATOM     21  C   UNL     1       2.593  -5.624  -1.984  0.00  0.00    +0.020 A 
ATOM     22  C   UNL     1       2.857  -5.422  -0.643  0.00  0.00    +0.111 A 
ATOM     23  N   UNL     1       1.918  -4.979   0.171  0.00  0.00    -0.257 NA
ENDBRANCH   6  18
TORSDOF 1
