REMARK  Name = ZINC40176073
REMARK  10 active torsions:
REMARK  status: ('A' for Active; 'I' for Inactive)
REMARK    1  A    between atoms: C_1  and  C_2
REMARK    2  A    between atoms: C_2  and  N_3
REMARK    3  A    between atoms: N_3  and  C_4
REMARK    4  A    between atoms: N_3  and  C_6
REMARK    5  A    between atoms: C_4  and  C_5
REMARK    6  A    between atoms: C_9  and  C_12
REMARK    7  A    between atoms: C_22  and  S_24
REMARK    8  A    between atoms: S_24  and  N_27
REMARK    9  A    between atoms: N_27  and  C_28
REMARK   10  A    between atoms: C_31  and  C_33
REMARK                            x       y       z     vdW  Elec       q    Type
REMARK                         _______ _______ _______ _____ _____    ______ ____
ROOT
ATOM      1  C   UNL     1       6.277  -1.353   0.991  0.00  0.00    +0.251 C 
ATOM      2  O   UNL     1       5.083  -1.130   1.044  0.00  0.00    -0.270 OA
ATOM      3  N   UNL     1       6.909  -1.899   2.049  0.00  0.00    -0.267 N 
ATOM      4  C   UNL     1       8.360  -2.126   2.018  0.00  0.00    +0.114 C 
ATOM      5  C   UNL     1       8.627  -3.529   2.578  0.00  0.00    +0.024 C 
ATOM      6  C   UNL     1       8.178  -3.572   4.038  0.00  0.00    +0.038 C 
ATOM      7  C   UNL     1       6.767  -3.063   4.171  0.00  0.00    -0.024 A 
ATOM      8  C   UNL     1       6.193  -2.255   3.200  0.00  0.00    +0.040 A 
ATOM      9  C   UNL     1       4.891  -1.793   3.357  0.00  0.00    +0.026 A 
ATOM     10  C   UNL     1       4.168  -2.135   4.483  0.00  0.00    +0.031 A 
ATOM     11  C   UNL     1       4.740  -2.938   5.452  0.00  0.00    +0.111 A 
ATOM     12  C   UNL     1       6.033  -3.408   5.293  0.00  0.00    +0.034 A 
ENDROOT
BRANCH   1  16
ATOM     13  C   UNL     1       8.458  -0.408  -2.527  0.00  0.00    +0.030 A 
ATOM     14  C   UNL     1       7.228  -1.053  -2.625  0.00  0.00    +0.024 A 
ATOM     15  C   UNL     1       6.519  -1.361  -1.486  0.00  0.00    +0.015 A 
ATOM     16  C   UNL     1       7.035  -1.025  -0.231  0.00  0.00    +0.037 A 
ATOM     17  C   UNL     1       8.271  -0.378  -0.137  0.00  0.00    +0.015 A 
ATOM     18  C   UNL     1       8.978  -0.078  -1.278  0.00  0.00    +0.024 A 
BRANCH  13  19
ATOM     19  N   UNL     1       9.172  -0.099  -3.680  0.00  0.00    -0.330 N 
BRANCH  19  21
ATOM     20  C   UNL     1       9.097  -1.848  -5.388  0.00  0.00    +0.024 C 
ATOM     21  C   UNL     1       8.627  -0.446  -4.994  0.00  0.00    +0.102 C 
ENDBRANCH  19  21
BRANCH  19  22
ATOM     22  C   UNL     1      10.470   0.574  -3.579  0.00  0.00    +0.102 C 
ATOM     23  C   UNL     1      10.262   2.089  -3.608  0.00  0.00    +0.024 C 
ENDBRANCH  19  22
ENDBRANCH  13  19
ENDBRANCH   1  16
BRANCH  11  24
ATOM     24  S   UNL     1       3.816  -3.375   6.888  0.00  0.00    +0.094 S 
ATOM     25  O   UNL     1       4.763  -3.685   7.901  0.00  0.00    -0.148 OA
ATOM     26  O   UNL     1       2.824  -2.372   7.054  0.00  0.00    -0.148 OA
BRANCH  24  27
ATOM     27  N   UNL     1       3.014  -4.783   6.544  0.00  0.00    -0.068 NA
BRANCH  27  28
ATOM     28  C   UNL     1       2.200  -5.369   7.501  0.00  0.00    +0.224 A 
ATOM     29  N   UNL     1       1.917  -4.977   8.737  0.00  0.00    -0.123 NA
ATOM     30  N   UNL     1       1.145  -5.638   9.483  0.00  0.00    -0.145 NA
ATOM     31  C   UNL     1       0.572  -6.756   9.087  0.00  0.00    +0.101 A 
ATOM     32  S   UNL     1       1.222  -6.866   7.422  0.00  0.00    -0.033 S 
ATOM     33  C   UNL     1      -0.369  -7.676   9.822  0.00  0.00    +0.075 C 
ENDBRANCH  27  28
ENDBRANCH  24  27
ENDBRANCH  11  24
TORSDOF 7
