REMARK  Name = ZINC20565961
REMARK  7 active torsions:
REMARK  status: ('A' for Active; 'I' for Inactive)
REMARK    1  A    between atoms: C_1  and  C_2
REMARK    2  A    between atoms: C_2  and  C_3
REMARK    3  A    between atoms: C_3  and  C_4
REMARK    4  A    between atoms: C_4  and  N_5
REMARK    5  A    between atoms: C_26  and  C_28
REMARK    6  A    between atoms: C_28  and  C_29
REMARK    7  A    between atoms: C_28  and  C_30
REMARK                            x       y       z     vdW  Elec       q    Type
REMARK                         _______ _______ _______ _____ _____    ______ ____
ROOT
ATOM      1  N   UNL     1      -2.431  -3.110  -0.243  0.00  0.00    -0.242 N 
ATOM      2  C   UNL     1      -3.104  -3.122   0.913  0.00  0.00    +0.227 C 
ATOM      3  O   UNL     1      -2.618  -2.939   2.008  0.00  0.00    -0.275 OA
ATOM      4  C   UNL     1      -4.565  -3.398   0.641  0.00  0.00    +0.107 C 
ATOM      5  C   UNL     1      -4.618  -3.566  -0.903  0.00  0.00    +0.122 C 
ATOM      6  C   UNL     1      -3.184  -3.338  -1.326  0.00  0.00    +0.228 C 
ATOM      7  O   UNL     1      -2.778  -3.361  -2.468  0.00  0.00    -0.275 OA
ATOM      8  C   UNL     1      -5.011  -5.033  -1.118  0.00  0.00    +0.136 C 
ATOM      9  C   UNL     1      -4.326  -5.615  -2.322  0.00  0.00    +0.004 A 
ATOM     10  C   UNL     1      -3.005  -5.780  -2.674  0.00  0.00    +0.023 A 
ATOM     11  C   UNL     1      -2.679  -6.368  -3.884  0.00  0.00    +0.018 A 
ATOM     12  C   UNL     1      -3.684  -6.790  -4.737  0.00  0.00    +0.017 A 
ATOM     13  C   UNL     1      -5.008  -6.626  -4.389  0.00  0.00    +0.025 A 
ATOM     14  C   UNL     1      -5.345  -6.035  -3.173  0.00  0.00    +0.039 A 
ATOM     15  N   UNL     1      -6.592  -5.762  -2.605  0.00  0.00    -0.283 N 
ATOM     16  C   UNL     1      -6.482  -5.173  -1.398  0.00  0.00    +0.243 C 
ATOM     17  O   UNL     1      -7.393  -4.824  -0.677  0.00  0.00    -0.273 OA
ATOM     18 BR   UNL     1      -0.866  -6.595  -4.370  0.00  0.00    -0.050 Br
ATOM     19  N   UNL     1      -4.626  -5.741   0.116  0.00  0.00    -0.295 NA
ATOM     20  C   UNL     1      -4.940  -4.779   1.219  0.00  0.00    +0.070 C 
ATOM     21  H   UNL     1      -7.438  -5.972  -3.030  0.00  0.00    +0.155 HD
ATOM     22  H   UNL     1      -5.151  -6.597   0.220  0.00  0.00    +0.124 HD
ENDROOT
BRANCH  20  23
ATOM     23  C   UNL     1      -4.116  -5.073   2.474  0.00  0.00    +0.001 C 
ATOM     24  C   UNL     1      -4.502  -4.088   3.580  0.00  0.00    +0.009 C 
ATOM     25  C   UNL     1      -4.394  -6.502   2.944  0.00  0.00    +0.009 C 
ENDBRANCH  20  23
BRANCH   1  26
ATOM     26  C   UNL     1      -0.990  -2.861  -0.319  0.00  0.00    +0.116 C 
BRANCH  26  27
ATOM     27  C   UNL     1      -0.738  -1.360  -0.469  0.00  0.00    +0.019 C 
BRANCH  27  29
ATOM     28  C   UNL     1       1.019   0.402  -0.698  0.00  0.00    +0.004 C 
ATOM     29  C   UNL     1       0.768  -1.100  -0.547  0.00  0.00    -0.002 C 
ENDBRANCH  27  29
ENDBRANCH  26  27
ENDBRANCH   1  26
TORSDOF 4
