REMARK  Name = ZINC39734038
REMARK  6 active torsions:
REMARK  status: ('A' for Active; 'I' for Inactive)
REMARK    1  A    between atoms: C_1  and  C_2
REMARK    2  A    between atoms: C_2  and  C_4
REMARK    3  A    between atoms: C_2  and  S_13
REMARK    4  A    between atoms: N_6  and  C_7
REMARK    5  A    between atoms: S_13  and  C_14
REMARK    6  A    between atoms: C_18  and  C_20
REMARK                            x       y       z     vdW  Elec       q    Type
REMARK                         _______ _______ _______ _____ _____    ______ ____
ROOT
ATOM      1  C   UNL     1      -0.220  -0.041  -2.848  0.00  0.00    +0.340 C 
ATOM      2  N   UNL     1      -0.387   1.422  -2.812  0.00  0.00    -0.219 N 
ATOM      3  N   UNL     1      -1.761   1.639  -2.630  0.00  0.00    -0.145 NA
ATOM      4  C   UNL     1      -2.391   0.496  -2.558  0.00  0.00    +0.238 C 
ATOM      5  O   UNL     1      -1.546  -0.561  -2.680  0.00  0.00    -0.443 OA
ATOM      6  H   UNL     1       0.307   2.094  -2.897  0.00  0.00    +0.173 HD
ENDROOT
BRANCH   4   7
ATOM      7  C   UNL     1      -3.776   0.375  -2.378  0.00  0.00    +0.043 C 
ATOM      8  C   UNL     1      -4.704   1.409  -2.253  0.00  0.00    +0.008 A 
ATOM      9  C   UNL     1      -4.573   2.814  -2.264  0.00  0.00    +0.010 A 
ATOM     10  C   UNL     1      -5.674   3.595  -2.117  0.00  0.00    +0.001 A 
ATOM     11  C   UNL     1      -6.946   3.042  -1.954  0.00  0.00    +0.002 A 
ATOM     12  C   UNL     1      -7.146   1.700  -1.934  0.00  0.00    +0.026 A 
ATOM     13  C   UNL     1      -6.042   0.821  -2.081  0.00  0.00    +0.043 A 
ATOM     14  N   UNL     1      -5.972  -0.496  -2.095  0.00  0.00    -0.380 N 
ATOM     15  C   UNL     1      -4.577  -0.905  -2.285  0.00  0.00    +0.154 C 
ATOM     16  H   UNL     1      -6.726  -1.099  -2.000  0.00  0.00    +0.160 HD
ENDBRANCH   4   7
BRANCH   1  17
ATOM     17  S   UNL     1       0.851  -0.589  -1.490  0.00  0.00    -0.084 S 
BRANCH  17  19
ATOM     18  C   UNL     1      -0.019   1.526   0.010  0.00  0.00    +0.029 C 
ATOM     19  C   UNL     1       0.002  -0.004   0.002  0.00  0.00    +0.134 C 
BRANCH  19  20
ATOM     20  C   UNL     1       0.731  -0.503   1.223  0.00  0.00    +0.226 C 
ATOM     21  O   UNL     1       1.911  -0.775   1.156  0.00  0.00    -0.275 OA
ATOM     22  N   UNL     1       0.071  -0.647   2.389  0.00  0.00    -0.312 N 
ATOM     23  H   UNL     1      -0.872  -0.430   2.443  0.00  0.00    +0.149 HD
BRANCH  22  24
ATOM     24  C   UNL     1       0.780  -1.133   3.576  0.00  0.00    +0.073 C 
ATOM     25  C   UNL     1       0.801  -2.663   3.568  0.00  0.00    +0.022 C 
ATOM     26  C   UNL     1       1.541  -3.169   4.808  0.00  0.00    +0.002 C 
ATOM     27  C   UNL     1       0.825  -2.676   6.066  0.00  0.00    +0.000 C 
ATOM     28  C   UNL     1       0.804  -1.146   6.075  0.00  0.00    +0.002 C 
ATOM     29  C   UNL     1       0.064  -0.639   4.835  0.00  0.00    +0.022 C 
ENDBRANCH  22  24
ENDBRANCH  19  20
ENDBRANCH  17  19
ENDBRANCH   1  17
TORSDOF 5
