REMARK  Name = ZINC67419134
REMARK  6 active torsions:
REMARK  status: ('A' for Active; 'I' for Inactive)
REMARK    1  A    between atoms: C_1  and  C_2
REMARK    2  A    between atoms: N_4  and  C_5
REMARK    3  A    between atoms: C_5  and  C_6
REMARK    4  A    between atoms: N_11  and  C_13
REMARK    5  A    between atoms: C_13  and  C_14
REMARK    6  A    between atoms: N_19  and  C_20
REMARK                            x       y       z     vdW  Elec       q    Type
REMARK                         _______ _______ _______ _____ _____    ______ ____
ROOT
ATOM      1  C   UNL     1      -0.406  -6.592  -5.445  0.00  0.00    +0.204 C 
ATOM      2  O   UNL     1      -0.361  -5.800  -6.361  0.00  0.00    -0.277 OA
ATOM      3  N   UNL     1      -0.578  -7.904  -5.697  0.00  0.00    -0.242 N 
ATOM      4  C   UNL     1      -0.700  -8.337  -6.967  0.00  0.00    +0.306 C 
ATOM      5  O   UNL     1      -0.656  -7.543  -7.886  0.00  0.00    -0.252 OA
ATOM      6  N   UNL     1      -0.873  -9.649  -7.219  0.00  0.00    -0.294 N 
ATOM      7  H   UNL     1      -0.614  -8.538  -4.963  0.00  0.00    +0.159 HD
ATOM      8  H   UNL     1      -0.908 -10.283  -6.486  0.00  0.00    +0.151 HD
ENDROOT
BRANCH   6   9
ATOM      9  C   UNL     1      -1.006 -10.119  -8.600  0.00  0.00    +0.037 C 
ATOM     10  C   UNL     1      -2.222  -9.456  -9.250  0.00  0.00    +0.029 C 
ATOM     11  C   UNL     1      -2.361  -9.946 -10.692  0.00  0.00    -0.008 C 
ATOM     12  C   UNL     1      -2.544 -11.465 -10.699  0.00  0.00    +0.007 C 
ATOM     13  C   UNL     1      -1.328 -12.129 -10.050  0.00  0.00    -0.008 C 
ATOM     14  C   UNL     1      -1.189 -11.638  -8.607  0.00  0.00    +0.029 C 
ATOM     15  C   UNL     1      -0.067 -11.764 -10.836  0.00  0.00    +0.007 C 
ATOM     16  C   UNL     1       0.116 -10.245 -10.829  0.00  0.00    -0.008 C 
ATOM     17  C   UNL     1      -1.100  -9.581 -11.479  0.00  0.00    +0.007 C 
ATOM     18  C   UNL     1       0.255  -9.754  -9.387  0.00  0.00    +0.029 C 
ENDBRANCH   6   9
BRANCH   1  19
ATOM     19  C   UNL     1      -0.269  -6.109  -4.024  0.00  0.00    +0.019 C 
BRANCH  19  24
ATOM     20  C   UNL     1       0.013  -2.639  -2.622  0.00  0.00    -0.011 C 
ATOM     21  C   UNL     1       1.310  -2.214  -3.317  0.00  0.00    +0.001 C 
ATOM     22  C   UNL     1       1.328  -2.788  -4.737  0.00  0.00    -0.018 C 
ATOM     23  C   UNL     1       1.178  -4.309  -4.668  0.00  0.00    -0.078 C 
ATOM     24  N   UNL     1      -0.093  -4.650  -4.018  0.00  0.00    +0.386 N 
ATOM     25  C   UNL     1      -0.090  -4.165  -2.632  0.00  0.00    -0.073 C 
ATOM     26  H   UNL     1      -0.854  -4.219  -4.521  0.00  0.00    -0.081 HD
BRANCH  20  27
ATOM     27  C   UNL     1       0.020  -2.136  -1.177  0.00  0.00    +0.105 C 
BRANCH  27  31
ATOM     28  C   UNL     1      -0.018   1.503   0.010  0.00  0.00    +0.109 C 
ATOM     29  C   UNL     1       0.002  -0.004   0.002  0.00  0.00    +0.210 C 
ATOM     30  O   UNL     1       0.020  -0.616   1.049  0.00  0.00    -0.276 OA
ATOM     31  N   UNL     1       0.000  -0.672  -1.169  0.00  0.00    -0.315 N 
ATOM     32  H   UNL     1      -0.015  -0.182  -2.006  0.00  0.00    +0.149 HD
ENDBRANCH  27  31
ENDBRANCH  20  27
ENDBRANCH  19  24
ENDBRANCH   1  19
TORSDOF 5
