REMARK  Name = ZINC12568390
REMARK  7 active torsions:
REMARK  status: ('A' for Active; 'I' for Inactive)
REMARK    1  A    between atoms: C_1  and  C_2
REMARK    2  A    between atoms: C_2  and  C_4
REMARK    3  A    between atoms: C_2  and  S_19
REMARK    4  A    between atoms: N_6  and  C_7
REMARK    5  A    between atoms: S_19  and  C_20
REMARK    6  A    between atoms: C_24  and  S_29
REMARK    7  A    between atoms: S_29  and  N_32
REMARK                            x       y       z     vdW  Elec       q    Type
REMARK                         _______ _______ _______ _____ _____    ______ ____
ROOT
ATOM      1  S   UNL     1       4.122  -4.324  -5.637  0.00  0.00    -0.055 S 
ENDROOT
BRANCH   1   2
ATOM      2  C   UNL     1       4.132  -3.308  -4.197  0.00  0.00    +0.259 A 
ATOM      3  N   UNL     1       3.330  -3.451  -3.172  0.00  0.00    -0.203 NA
ATOM      4  C   UNL     1       3.625  -2.494  -2.251  0.00  0.00    +0.112 A 
ATOM      5  C   UNL     1       3.110  -2.177  -0.993  0.00  0.00    +0.060 A 
ATOM      6  C   UNL     1       3.634  -1.115  -0.288  0.00  0.00    +0.108 A 
ATOM      7  C   UNL     1       4.676  -0.368  -0.817  0.00  0.00    +0.032 A 
ATOM      8  C   UNL     1       5.198  -0.675  -2.057  0.00  0.00    +0.050 A 
ATOM      9  C   UNL     1       4.679  -1.736  -2.781  0.00  0.00    +0.156 A 
ATOM     10  O   UNL     1       4.965  -2.272  -3.990  0.00  0.00    -0.431 OA
BRANCH   6  11
ATOM     11  S   UNL     1       2.981  -0.708   1.297  0.00  0.00    +0.061 S 
ATOM     12  O   UNL     1       4.008  -0.017   1.994  0.00  0.00    -0.153 OA
ATOM     13  O   UNL     1       2.380  -1.892   1.804  0.00  0.00    -0.153 OA
BRANCH  11  14
ATOM     14  N   UNL     1       1.756   0.380   1.057  0.00  0.00    -0.177 NA
ATOM     15  C   UNL     1       0.375  -0.080   0.853  0.00  0.00    +0.109 C 
ATOM     16  C   UNL     1      -0.164   0.538  -0.441  0.00  0.00    +0.017 C 
ATOM     17  C   UNL     1      -0.011   2.059  -0.377  0.00  0.00    +0.003 C 
ATOM     18  C   UNL     1       1.471   2.420  -0.250  0.00  0.00    +0.017 C 
ATOM     19  C   UNL     1       2.028   1.823   1.046  0.00  0.00    +0.109 C 
ENDBRANCH  11  14
ENDBRANCH   6  11
ENDBRANCH   1   2
BRANCH   1  21
ATOM     20  C   UNL     1       5.058  -2.121  -6.955  0.00  0.00    +0.029 C 
ATOM     21  C   UNL     1       5.460  -3.548  -6.578  0.00  0.00    +0.139 C 
BRANCH  21  22
ATOM     22  C   UNL     1       5.720  -4.344  -7.831  0.00  0.00    +0.230 C 
ATOM     23  O   UNL     1       4.840  -5.028  -8.309  0.00  0.00    -0.274 OA
ATOM     24  N   UNL     1       6.931  -4.297  -8.420  0.00  0.00    -0.285 N 
ATOM     25  H   UNL     1       7.611  -3.692  -8.083  0.00  0.00    +0.155 HD
BRANCH  24  26
ATOM     26  C   UNL     1       7.209  -5.120  -9.519  0.00  0.00    +0.035 A 
ATOM     27  C   UNL     1       8.059  -4.673 -10.524  0.00  0.00    +0.025 A 
ATOM     28  C   UNL     1       8.336  -5.479 -11.609  0.00  0.00    +0.029 A 
ATOM     29  C   UNL     1       7.765  -6.740 -11.698  0.00  0.00    +0.067 A 
ATOM     30  C   UNL     1       6.911  -7.192 -10.690  0.00  0.00    +0.069 A 
ATOM     31  C   UNL     1       6.639  -6.382  -9.599  0.00  0.00    +0.051 A 
ATOM     32  N   UNL     1       6.502  -8.473 -11.053  0.00  0.00    -0.306 N 
ATOM     33  H   UNL     1       5.903  -9.043 -10.546  0.00  0.00    +0.170 HD
ATOM     34  C   UNL     1       7.080  -8.787 -12.228  0.00  0.00    +0.325 A 
ATOM     35  O   UNL     1       6.931  -9.837 -12.825  0.00  0.00    -0.247 OA
ATOM     36  N   UNL     1       7.848  -7.762 -12.644  0.00  0.00    -0.306 N 
ATOM     37  H   UNL     1       8.370  -7.739 -13.461  0.00  0.00    +0.170 HD
ENDBRANCH  24  26
ENDBRANCH  21  22
ENDBRANCH   1  21
TORSDOF 6
