REMARK  Name = ZINC13080675
REMARK  12 active torsions:
REMARK  status: ('A' for Active; 'I' for Inactive)
REMARK    1  A    between atoms: C_1  and  C_2
REMARK    2  A    between atoms: C_7  and  N_8
REMARK    3  A    between atoms: C_9  and  C_11
REMARK    4  A    between atoms: C_11  and  S_12
REMARK    5  A    between atoms: S_12  and  C_13
REMARK    6  A    between atoms: C_14  and  C_38
REMARK    7  A    between atoms: C_15  and  C_32
REMARK    8  A    between atoms: C_17  and  C_21
REMARK    9  A    between atoms: C_18  and  C_20
REMARK   10  A    between atoms: N_23  and  C_24
REMARK   11  A    between atoms: C_29  and  O_30
REMARK   12  A    between atoms: O_30  and  C_31
REMARK                            x       y       z     vdW  Elec       q    Type
REMARK                         _______ _______ _______ _____ _____    ______ ____
ROOT
ATOM      1  C   UNL     1       7.013   5.624   0.185  0.00  0.00    +0.080 C 
ATOM      2  C   UNL     1       5.824   6.277   0.286  0.00  0.00    +0.069 C 
ATOM      3  C   UNL     1       4.532   5.606  -0.087  0.00  0.00    +0.098 C 
ATOM      4  C   UNL     1       4.709   4.118  -0.176  0.00  0.00    +0.044 C 
ATOM      5  C   UNL     1       5.925   3.554  -0.255  0.00  0.00    +0.014 C 
ATOM      6  N   UNL     1       7.059   4.321  -0.259  0.00  0.00    -0.312 N 
ATOM      7  C   UNL     1       6.043   2.055  -0.346  0.00  0.00    +0.061 C 
ATOM      8  H   UNL     1       8.007   3.895  -0.617  0.00  0.00    +0.152 HD
ENDROOT
BRANCH   3   9
ATOM      9  C   UNL     1       4.070   6.131  -1.422  0.00  0.00    -0.035 A 
ATOM     10  C   UNL     1       4.857   5.956  -2.544  0.00  0.00    +0.004 A 
ATOM     11  C   UNL     1       4.431   6.433  -3.770  0.00  0.00    +0.000 A 
ATOM     12  C   UNL     1       3.221   7.095  -3.871  0.00  0.00    +0.000 A 
ATOM     13  C   UNL     1       2.436   7.275  -2.747  0.00  0.00    +0.000 A 
ATOM     14  C   UNL     1       2.861   6.794  -1.523  0.00  0.00    +0.004 A 
ENDBRANCH   3   9
BRANCH   4  15
ATOM     15  C   UNL     1       3.563   3.286  -0.171  0.00  0.00    +0.247 C 
ATOM     16  O   UNL     1       2.908   3.159   0.847  0.00  0.00    -0.270 OA
ATOM     17  N   UNL     1       3.198   2.636  -1.294  0.00  0.00    -0.279 N 
ATOM     18  H   UNL     1       3.829   2.693  -2.193  0.00  0.00    +0.155 HD
BRANCH  17  19
ATOM     19  C   UNL     1       2.014   1.888  -1.316  0.00  0.00    +0.076 A 
ATOM     20  C   UNL     1       1.597   1.211  -0.179  0.00  0.00    +0.027 A 
ATOM     21  C   UNL     1       0.429   0.474  -0.203  0.00  0.00    +0.002 A 
ATOM     22  C   UNL     1      -0.325   0.405  -1.360  0.00  0.00    +0.004 A 
ATOM     23  C   UNL     1       0.080   1.081  -2.495  0.00  0.00    +0.047 A 
ATOM     24  C   UNL     1       1.251   1.822  -2.480  0.00  0.00    +0.141 A 
BRANCH  24  25
ATOM     25  O   UNL     1       1.654   2.484  -3.597  0.00  0.00    -0.493 OA
ATOM     26  C   UNL     1       0.822   2.371  -4.753  0.00  0.00    +0.277 C 
ENDBRANCH  24  25
ENDBRANCH  17  19
ENDBRANCH   4  15
BRANCH   2  27
ATOM     27  C   UNL     1       5.803   7.628   0.759  0.00  0.00    +0.098 C 
ATOM     28  N   UNL     1       5.787   8.700   1.134  0.00  0.00    -0.191 NA
ENDBRANCH   2  27
BRANCH   1  29
ATOM     29  S   UNL     1       8.505   6.451   0.624  0.00  0.00    -0.100 S 
BRANCH  29  30
ATOM     30  C   UNL     1       9.703   5.135   0.295  0.00  0.00    +0.171 C 
BRANCH  30  32
ATOM     31  N   UNL     1      12.152   4.814   0.438  0.00  0.00    -0.285 N 
ATOM     32  C   UNL     1      11.092   5.629   0.609  0.00  0.00    +0.227 C 
ATOM     33  O   UNL     1      11.255   6.760   1.014  0.00  0.00    -0.275 OA
ATOM     34  H   UNL     1      12.010   3.810   0.012  0.00  0.00    +0.155 HD
BRANCH  31  41
ATOM     35  C   UNL     1      14.088   2.846   1.127  0.00  0.00    +0.045 C 
ATOM     36  C   UNL     1      14.407   4.318   1.146  0.00  0.00    -0.029 A 
ATOM     37  C   UNL     1      15.671   4.747   1.500  0.00  0.00    +0.005 A 
ATOM     38  C   UNL     1      15.963   6.098   1.524  0.00  0.00    +0.000 A 
ATOM     39  C   UNL     1      14.992   7.025   1.188  0.00  0.00    +0.002 A 
ATOM     40  C   UNL     1      13.728   6.602   0.828  0.00  0.00    +0.023 A 
ATOM     41  C   UNL     1      13.432   5.245   0.803  0.00  0.00    +0.036 A 
ENDBRANCH  31  41
ENDBRANCH  30  32
ENDBRANCH  29  30
ENDBRANCH   1  29
TORSDOF 9
