REMARK  Name = ZINC13144748
REMARK  9 active torsions:
REMARK  status: ('A' for Active; 'I' for Inactive)
REMARK    1  A    between atoms: C_1  and  C_2
REMARK    2  A    between atoms: C_2  and  N_3
REMARK    3  A    between atoms: N_3  and  C_4
REMARK    4  A    between atoms: C_4  and  C_5
REMARK    5  A    between atoms: C_6  and  C_8
REMARK    6  A    between atoms: C_19  and  S_24
REMARK    7  A    between atoms: S_24  and  C_25
REMARK    8  A    between atoms: C_30  and  N_31
REMARK    9  A    between atoms: CA_34  and  C_37
REMARK                            x       y       z     vdW  Elec       q    Type
REMARK                         _______ _______ _______ _____ _____    ______ ____
ROOT
ATOM      1  C   UNL     1      -2.563  -1.183   2.669  0.00  0.00    +0.037 A 
ATOM      2  C   UNL     1      -3.781  -0.599   2.307  0.00  0.00    +0.015 A 
ATOM      3  C   UNL     1      -4.003   0.732   2.571  0.00  0.00    +0.024 A 
ATOM      4  C   UNL     1      -3.019   1.496   3.196  0.00  0.00    +0.031 A 
ATOM      5  C   UNL     1      -1.808   0.925   3.561  0.00  0.00    -0.021 A 
ATOM      6  C   UNL     1      -1.582  -0.413   3.296  0.00  0.00    +0.018 A 
ATOM      7  C   UNL     1      -0.716   1.709   4.238  0.00  0.00    +0.045 C 
ATOM      8  C   UNL     1      -0.979   3.223   4.170  0.00  0.00    +0.030 C 
ATOM      9  C   UNL     1      -0.594   3.628   2.737  0.00  0.00    +0.022 C 
ATOM     10  C   UNL     1       0.397   2.558   2.234  0.00  0.00    +0.070 C 
ATOM     11  C   UNL     1       0.574   1.551   3.389  0.00  0.00    +0.101 C 
ATOM     12 CL   UNL     1       2.030   1.965   4.370  0.00  0.00    -0.120 Cl
ATOM     13  CA  UNL     1      -2.444   3.534   4.443  0.00  0.00    +0.188 C 
ATOM     14  N   UNL     1      -3.272   2.843   3.448  0.00  0.00    -0.331 N 
ATOM     15  H   UNL     1      -3.978   3.313   2.977  0.00  0.00    +0.147 HD
ENDROOT
BRANCH   1  17
ATOM     16  N   UNL     1      -3.241  -3.532   2.720  0.00  0.00    -0.298 N 
ATOM     17  C   UNL     1      -2.315  -2.610   2.389  0.00  0.00    +0.247 C 
ATOM     18  O   UNL     1      -1.276  -2.954   1.861  0.00  0.00    -0.270 OA
BRANCH  16  20
ATOM     19  C   UNL     1      -2.191  -5.481   3.759  0.00  0.00    +0.024 C 
ATOM     20  C   UNL     1      -2.953  -4.957   2.540  0.00  0.00    +0.104 C 
ENDBRANCH  16  20
BRANCH  16  21
ATOM     21  C   UNL     1      -4.536  -3.109   3.258  0.00  0.00    +0.104 C 
ATOM     22  C   UNL     1      -5.576  -3.096   2.136  0.00  0.00    +0.024 C 
ENDBRANCH  16  21
ENDBRANCH   1  17
BRANCH  13  23
ATOM     23  C   UNL     1      -2.812   3.057   5.825  0.00  0.00    +0.376 C 
ATOM     24  O   UNL     1      -3.388   2.004   5.967  0.00  0.00    -0.244 OA
ATOM     25  OXT UNL     1      -2.500   3.801   6.897  0.00  0.00    -0.244 OA
ENDBRANCH  13  23
BRANCH  10  26
ATOM     26  S   UNL     1       1.990   3.324   1.826  0.00  0.00    -0.118 S 
BRANCH  26  27
ATOM     27  C   UNL     1       2.948   1.994   1.180  0.00  0.00    +0.038 A 
ATOM     28  C   UNL     1       2.404   0.718   1.099  0.00  0.00    +0.017 A 
ATOM     29  C   UNL     1       3.156  -0.321   0.587  0.00  0.00    +0.001 A 
ATOM     30  C   UNL     1       4.454  -0.095   0.166  0.00  0.00    +0.002 A 
ATOM     31  C   UNL     1       5.001   1.172   0.250  0.00  0.00    +0.034 A 
ATOM     32  C   UNL     1       4.253   2.217   0.756  0.00  0.00    +0.140 A 
BRANCH  32  33
ATOM     33  N   UNL     1       4.839   3.573   0.845  0.00  0.00    +0.058 N 
ATOM     34  O   UNL     1       5.982   3.768   0.473  0.00  0.00    -0.126 OA
ATOM     35  O   UNL     1       4.178   4.494   1.291  0.00  0.00    -0.126 OA
ENDBRANCH  32  33
ENDBRANCH  26  27
ENDBRANCH  10  26
TORSDOF 7
