REMARK  Name = ZINC39467751
REMARK  6 active torsions:
REMARK  status: ('A' for Active; 'I' for Inactive)
REMARK    1  A    between atoms: C_1  and  O_2
REMARK    2  A    between atoms: O_2  and  C_3
REMARK    3  A    between atoms: P_12  and  O_28
REMARK    4  A    between atoms: C_20  and  C_21
REMARK    5  A    between atoms: C_26  and  O_27
REMARK    6  A    between atoms: O_28  and  C_29
REMARK                            x       y       z     vdW  Elec       q    Type
REMARK                         _______ _______ _______ _____ _____    ______ ____
ROOT
ATOM      1  C   UNL     1      -1.200  -0.637   0.010  0.00  0.00    +0.124 C 
ATOM      2  C   UNL     1      -2.330   0.070   0.019  0.00  0.00    +0.023 C 
ATOM      3  C   UNL     1      -3.659  -0.646   0.017  0.00  0.00    +0.025 C 
ATOM      4  C   UNL     1      -3.981  -1.089   1.445  0.00  0.00    +0.031 C 
ATOM      5  C   UNL     1      -5.270  -1.918   1.475  0.00  0.00    +0.100 C 
ATOM      6  C   UNL     1      -5.505  -2.334   2.932  0.00  0.00    +0.191 C 
ATOM      7  O   UNL     1      -6.724  -3.092   3.028  0.00  0.00    -0.294 OA
ATOM      8  P   UNL     1      -6.920  -4.345   2.009  0.00  0.00    +0.421 P 
ATOM      9  O   UNL     1      -8.357  -4.669   1.865  0.00  0.00    -0.239 OA
ATOM     10  N   UNL     1      -6.302  -3.831   0.568  0.00  0.00    -0.156 NA
ATOM     11  N   UNL     1      -5.139  -3.088   0.601  0.00  0.00    -0.228 NA
ATOM     12  C   UNL     1      -4.837  -2.697  -0.787  0.00  0.00    +0.111 C 
ATOM     13  C   UNL     1      -3.554  -1.882  -0.881  0.00  0.00    +0.035 C 
ATOM     14  C   UNL     1      -2.384  -2.722  -0.445  0.00  0.00    -0.010 C 
ATOM     15  C   UNL     1      -1.262  -2.118   0.003  0.00  0.00    +0.023 C 
ATOM     16  H   UNL     1      -6.740  -4.046  -0.271  0.00  0.00    +0.153 HD
ENDROOT
BRANCH  15  17
ATOM     17  C   UNL     1      -0.101  -2.920   0.458  0.00  0.00    +0.027 A 
ATOM     18  C   UNL     1       0.710  -3.568  -0.471  0.00  0.00    +0.012 A 
ATOM     19  C   UNL     1       1.790  -4.312  -0.042  0.00  0.00    +0.001 A 
ATOM     20  C   UNL     1       2.071  -4.418   1.309  0.00  0.00    +0.004 A 
ATOM     21  C   UNL     1       1.273  -3.780   2.240  0.00  0.00    +0.046 A 
ATOM     22  C   UNL     1       0.189  -3.024   1.822  0.00  0.00    +0.125 A 
BRANCH  22  23
ATOM     23  O   UNL     1      -0.593  -2.392   2.736  0.00  0.00    -0.506 OA
ATOM     24  H   UNL     1      -1.334  -2.924   3.055  0.00  0.00    +0.292 HD
ENDBRANCH  22  23
ENDBRANCH  15  17
BRANCH   1  26
ATOM     25  C   UNL     1      -0.017   1.425   0.010  0.00  0.00    +0.277 C 
ATOM     26  O   UNL     1       0.002  -0.004   0.002  0.00  0.00    -0.495 OA
ENDBRANCH   1  26
BRANCH   8  27
ATOM     27  O   UNL     1      -6.110  -5.630   2.541  0.00  0.00    -0.299 OA
ATOM     28  C   UNL     1      -6.256  -6.933   1.973  0.00  0.00    +0.206 C 
ENDBRANCH   8  27
TORSDOF 4
