REMARK  Name = ZINC39955315
REMARK  4 active torsions:
REMARK  status: ('A' for Active; 'I' for Inactive)
REMARK    1  A    between atoms: C_5  and  N_7
REMARK    2  A    between atoms: C_8  and  N_22
REMARK    3  A    between atoms: C_9  and  C_20
REMARK    4  A    between atoms: C_10  and  C_12
REMARK                            x       y       z     vdW  Elec       q    Type
REMARK                         _______ _______ _______ _____ _____    ______ ____
ROOT
ATOM      1  N   UNL     1       1.239  -2.082  -0.001  0.00  0.00    -0.216 N 
ATOM      2  C   UNL     1       0.146  -2.882   0.077  0.00  0.00    +0.138 A 
ATOM      3  C   UNL     1       0.588  -4.200   0.009  0.00  0.00    +0.119 A 
ATOM      4  C   UNL     1       2.049  -4.138  -0.117  0.00  0.00    +0.114 A 
ATOM      5  N   UNL     1       2.386  -2.869  -0.123  0.00  0.00    -0.163 NA
ENDROOT
BRANCH   4   6
ATOM      6  C   UNL     1       2.971  -5.293  -0.224  0.00  0.00    +0.022 A 
ATOM      7  C   UNL     1       2.468  -6.594  -0.214  0.00  0.00    +0.013 A 
ATOM      8  C   UNL     1       3.330  -7.666  -0.314  0.00  0.00    +0.021 A 
ATOM      9  C   UNL     1       4.694  -7.453  -0.422  0.00  0.00    +0.042 A 
ATOM     10  C   UNL     1       5.200  -6.165  -0.431  0.00  0.00    +0.040 A 
ATOM     11  C   UNL     1       4.345  -5.084  -0.339  0.00  0.00    +0.052 A 
ATOM     12 CL   UNL     1       4.980  -3.468  -0.358  0.00  0.00    -0.083 Cl
ATOM     13 CL   UNL     1       5.774  -8.807  -0.545  0.00  0.00    -0.083 Cl
ENDBRANCH   4   6
BRANCH   1  18
ATOM     14  C   UNL     1       0.478   1.363   1.044  0.00  0.00    +0.002 A 
ATOM     15  C   UNL     1       1.179   2.085   0.096  0.00  0.00    +0.002 A 
ATOM     16  C   UNL     1       1.899   1.429  -0.885  0.00  0.00    +0.022 A 
ATOM     17  C   UNL     1       1.921   0.047  -0.920  0.00  0.00    +0.066 A 
ATOM     18  C   UNL     1       1.219  -0.681   0.032  0.00  0.00    +0.086 A 
ATOM     19  C   UNL     1       0.496  -0.018   1.015  0.00  0.00    +0.029 A 
ATOM     20 CL   UNL     1       2.825  -0.776  -2.152  0.00  0.00    -0.081 Cl
ENDBRANCH   1  18
BRANCH   2  21
ATOM     21  N   UNL     1      -1.165  -2.466   0.201  0.00  0.00    -0.342 N 
ATOM     22  H   UNL     1      -1.381  -1.521   0.151  0.00  0.00    +0.144 HD
ATOM     23  H   UNL     1      -1.871  -3.118   0.337  0.00  0.00    +0.144 HD
ENDBRANCH   2  21
BRANCH   3  24
ATOM     24  C   UNL     1      -0.221  -5.381   0.053  0.00  0.00    +0.105 C 
ATOM     25  N   UNL     1      -0.863  -6.317   0.089  0.00  0.00    -0.191 NA
ENDBRANCH   3  24
TORSDOF 4
