REMARK  Name = ZINC13129238
REMARK  9 active torsions:
REMARK  status: ('A' for Active; 'I' for Inactive)
REMARK    1  A    between atoms: C_1  and  C_2
REMARK    2  A    between atoms: C_2  and  C_4
REMARK    3  A    between atoms: C_2  and  N_10
REMARK    4  A    between atoms: C_20  and  S_21
REMARK    5  A    between atoms: S_21  and  C_22
REMARK    6  A    between atoms: C_22  and  C_23
REMARK    7  A    between atoms: N_25  and  C_26
REMARK    8  A    between atoms: C_29  and  S_32
REMARK    9  A    between atoms: S_32  and  N_35
REMARK                            x       y       z     vdW  Elec       q    Type
REMARK                         _______ _______ _______ _____ _____    ______ ____
ROOT
ATOM      1  N   UNL     1       0.408  -2.639   0.356  0.00  0.00    -0.280 N 
ATOM      2  C   UNL     1       1.375  -1.709   0.180  0.00  0.00    +0.263 A 
ATOM      3  O   UNL     1       2.390  -1.964  -0.442  0.00  0.00    -0.267 OA
ATOM      4  C   UNL     1       1.155  -0.381   0.768  0.00  0.00    +0.065 A 
ATOM      5  C   UNL     1       2.090   0.645   0.643  0.00  0.00    +0.015 A 
ATOM      6  C   UNL     1       1.835   1.862   1.211  0.00  0.00    +0.001 A 
ATOM      7  C   UNL     1       0.655   2.087   1.909  0.00  0.00    +0.002 A 
ATOM      8  C   UNL     1      -0.279   1.099   2.047  0.00  0.00    +0.028 A 
ATOM      9  C   UNL     1      -0.047  -0.157   1.478  0.00  0.00    +0.079 A 
ATOM     10  N   UNL     1      -0.942  -1.159   1.590  0.00  0.00    -0.223 NA
ATOM     11  C   UNL     1      -0.724  -2.336   1.057  0.00  0.00    +0.173 A 
ENDROOT
BRANCH   1  13
ATOM     12  C   UNL     1       2.034  -4.420  -0.052  0.00  0.00    +0.036 C 
ATOM     13  C   UNL     1       0.577  -3.981  -0.209  0.00  0.00    +0.119 C 
BRANCH  13  14
ATOM     14  C   UNL     1       0.213  -3.959  -1.671  0.00  0.00    -0.025 A 
ATOM     15  C   UNL     1       0.402  -2.808  -2.413  0.00  0.00    +0.005 A 
ATOM     16  C   UNL     1       0.072  -2.789  -3.756  0.00  0.00    +0.000 A 
ATOM     17  C   UNL     1      -0.455  -3.918  -4.354  0.00  0.00    +0.000 A 
ATOM     18  C   UNL     1      -0.649  -5.068  -3.610  0.00  0.00    +0.000 A 
ATOM     19  C   UNL     1      -0.315  -5.088  -2.269  0.00  0.00    +0.005 A 
ENDBRANCH  13  14
ENDBRANCH   1  13
BRANCH  11  20
ATOM     20  S   UNL     1      -1.950  -3.587   1.254  0.00  0.00    -0.078 S 
BRANCH  20  21
ATOM     21  C   UNL     1      -3.178  -2.674   2.221  0.00  0.00    +0.173 C 
BRANCH  21  22
ATOM     22  C   UNL     1      -4.353  -3.570   2.517  0.00  0.00    +0.227 C 
ATOM     23  O   UNL     1      -4.359  -4.714   2.113  0.00  0.00    -0.275 OA
ATOM     24  N   UNL     1      -5.396  -3.102   3.230  0.00  0.00    -0.285 N 
ATOM     25  H   UNL     1      -5.372  -2.200   3.588  0.00  0.00    +0.155 HD
BRANCH  24  26
ATOM     26  C   UNL     1      -6.512  -3.915   3.454  0.00  0.00    +0.034 A 
ATOM     27  C   UNL     1      -7.777  -3.349   3.548  0.00  0.00    +0.025 A 
ATOM     28  C   UNL     1      -8.878  -4.155   3.762  0.00  0.00    +0.030 A 
ATOM     29  C   UNL     1      -8.720  -5.523   3.895  0.00  0.00    +0.105 A 
ATOM     30  C   UNL     1      -7.461  -6.088   3.808  0.00  0.00    +0.030 A 
ATOM     31  C   UNL     1      -6.357  -5.288   3.588  0.00  0.00    +0.025 A 
BRANCH  29  32
ATOM     32  S   UNL     1     -10.126  -6.547   4.177  0.00  0.00    +0.056 S 
ATOM     33  O   UNL     1     -11.251  -5.839   3.674  0.00  0.00    -0.153 OA
ATOM     34  O   UNL     1      -9.779  -7.847   3.722  0.00  0.00    -0.153 OA
BRANCH  32  35
ATOM     35  N   UNL     1     -10.331  -6.658   5.816  0.00  0.00    -0.204 NA
ATOM     36  H   UNL     1      -9.721  -6.197   6.413  0.00  0.00    +0.144 HD
ATOM     37  H   UNL     1     -11.060  -7.184   6.179  0.00  0.00    +0.144 HD
ENDBRANCH  32  35
ENDBRANCH  29  32
ENDBRANCH  24  26
ENDBRANCH  21  22
ENDBRANCH  20  21
ENDBRANCH  11  20
TORSDOF 8
