REMARK  Name = ZINC03218801
REMARK  6 active torsions:
REMARK  status: ('A' for Active; 'I' for Inactive)
REMARK    1  A    between atoms: C_4  and  C_7
REMARK    2  A    between atoms: N_12  and  N_15
REMARK    3  A    between atoms: C_16  and  C_17
REMARK    4  A    between atoms: C_23  and  S_24
REMARK    5  A    between atoms: S_24  and  C_25
REMARK    6  A    between atoms: C_30  and  N_31
REMARK                            x       y       z     vdW  Elec       q    Type
REMARK                         _______ _______ _______ _____ _____    ______ ____
ROOT
ATOM      1  C   UNL     1       1.056   3.231   0.585  0.00  0.00    +0.017 A 
ATOM      2  C   UNL     1       1.587   4.040  -0.409  0.00  0.00    +0.083 A 
ATOM      3  C   UNL     1       1.481   5.448  -0.215  0.00  0.00    +0.117 A 
ATOM      4  N   UNL     1       1.950   6.298  -1.103  0.00  0.00    -0.228 NA
ATOM      5  C   UNL     1       2.546   5.895  -2.203  0.00  0.00    +0.227 A 
ATOM      6  N   UNL     1       2.701   4.596  -2.499  0.00  0.00    -0.185 N 
ATOM      7  C   UNL     1       2.259   3.629  -1.672  0.00  0.00    +0.283 A 
ATOM      8  O   UNL     1       2.404   2.454  -1.950  0.00  0.00    -0.265 OA
ATOM      9  S   UNL     1       0.659   5.632   1.347  0.00  0.00    -0.061 S 
ATOM     10  C   UNL     1       0.444   3.908   1.751  0.00  0.00    +0.060 A 
ENDROOT
BRANCH   1  14
ATOM     11  C   UNL     1       1.199  -0.997   0.304  0.00  0.00    +0.000 A 
ATOM     12  C   UNL     1      -0.025  -0.347   0.290  0.00  0.00    +0.001 A 
ATOM     13  C   UNL     1      -0.082   1.026   0.381  0.00  0.00    +0.008 A 
ATOM     14  C   UNL     1       1.106   1.767   0.488  0.00  0.00    -0.016 A 
ATOM     15  C   UNL     1       2.340   1.099   0.501  0.00  0.00    +0.008 A 
ATOM     16  C   UNL     1       2.376  -0.274   0.410  0.00  0.00    +0.001 A 
ENDBRANCH   1  14
BRANCH   6  17
ATOM     17  N   UNL     1       3.337   4.237  -3.695  0.00  0.00    -0.170 NA
ATOM     18  C   UNL     1       3.866   5.156  -4.454  0.00  0.00    +0.148 C 
BRANCH  18  19
ATOM     19  C   UNL     1       4.419   4.798  -5.760  0.00  0.00    +0.032 A 
ATOM     20  C   UNL     1       5.019   5.613  -6.710  0.00  0.00    +0.017 A 
ATOM     21  C   UNL     1       5.456   5.009  -7.864  0.00  0.00    +0.008 A 
ATOM     22  C   UNL     1       5.283   3.671  -8.018  0.00  0.00    +0.046 A 
ATOM     23  S   UNL     1       4.506   3.197  -6.543  0.00  0.00    -0.096 S 
ENDBRANCH  18  19
ENDBRANCH   6  17
BRANCH  10  24
ATOM     24  S   UNL     1      -0.286   3.212   3.134  0.00  0.00    -0.079 S 
BRANCH  24  25
ATOM     25  C   UNL     1      -0.603   4.667   4.077  0.00  0.00    +0.043 A 
ATOM     26  C   UNL     1      -1.891   5.196   4.133  0.00  0.00    +0.017 A 
ATOM     27  C   UNL     1      -2.134   6.335   4.873  0.00  0.00    +0.001 A 
ATOM     28  C   UNL     1      -1.102   6.952   5.558  0.00  0.00    +0.002 A 
ATOM     29  C   UNL     1       0.179   6.430   5.505  0.00  0.00    +0.034 A 
ATOM     30  C   UNL     1       0.431   5.288   4.772  0.00  0.00    +0.140 A 
BRANCH  30  31
ATOM     31  N   UNL     1       1.800   4.728   4.722  0.00  0.00    +0.058 N 
ATOM     32  O   UNL     1       2.778   5.316   5.380  0.00  0.00    -0.126 OA
ATOM     33  O   UNL     1       2.041   3.640   4.019  0.00  0.00    -0.126 OA
ENDBRANCH  30  31
ENDBRANCH  24  25
ENDBRANCH  10  24
TORSDOF 6
