REMARK  Name = ZINC39325728
REMARK  6 active torsions:
REMARK  status: ('A' for Active; 'I' for Inactive)
REMARK    1  A    between atoms: C_1  and  C_2
REMARK    2  A    between atoms: C_4  and  C_16
REMARK    3  A    between atoms: C_6  and  C_14
REMARK    4  A    between atoms: C_7  and  N_13
REMARK    5  A    between atoms: C_20  and  O_22
REMARK    6  A    between atoms: O_22  and  C_23
REMARK                            x       y       z     vdW  Elec       q    Type
REMARK                         _______ _______ _______ _____ _____    ______ ____
ROOT
ATOM      1  C   UNL     1       0.424   1.353   0.771  0.00  0.00    +0.067 C 
ATOM      2  C   UNL     1       0.331  -0.144   0.616  0.00  0.00    +0.066 C 
ATOM      3  C   UNL     1      -0.778  -0.806   0.392  0.00  0.00    +0.030 C 
ATOM      4  C   UNL     1      -2.192  -0.389   0.092  0.00  0.00    +0.098 C 
ATOM      5  C   UNL     1      -2.668  -1.325  -1.004  0.00  0.00    +0.097 C 
ATOM      6  C   UNL     1      -1.943  -2.397  -1.386  0.00  0.00    +0.195 C 
ATOM      7  O   UNL     1      -0.743  -2.768  -0.904  0.00  0.00    -0.448 OA
ATOM      8  C   UNL     1      -0.368  -2.279   0.386  0.00  0.00    +0.343 C 
ATOM      9  N   UNL     1       1.087  -2.191   0.545  0.00  0.00    -0.138 NA
ATOM     10  N   UNL     1       1.385  -0.998   0.681  0.00  0.00    -0.155 NA
ENDROOT
BRANCH   4  11
ATOM     11  C   UNL     1      -3.052  -0.540   1.320  0.00  0.00    -0.031 A 
ATOM     12  C   UNL     1      -3.195  -1.781   1.914  0.00  0.00    +0.005 A 
ATOM     13  C   UNL     1      -3.983  -1.923   3.041  0.00  0.00    +0.004 A 
ATOM     14  C   UNL     1      -4.630  -0.825   3.576  0.00  0.00    +0.045 A 
ATOM     15  C   UNL     1      -4.488   0.420   2.981  0.00  0.00    +0.121 A 
ATOM     16  C   UNL     1      -3.692   0.561   1.854  0.00  0.00    +0.050 A 
BRANCH  15  17
ATOM     17  O   UNL     1      -5.124   1.501   3.505  0.00  0.00    -0.489 OA
BRANCH  17  18
ATOM     18  C   UNL     1      -5.823   1.308   4.737  0.00  0.00    +0.173 C 
ATOM     19  C   UNL     1      -7.258   0.815   4.458  0.00  0.00    +0.044 C 
ATOM     20  C   UNL     1      -8.118   1.520   5.537  0.00  0.00    +0.004 C 
ATOM     21  C   UNL     1      -7.466   2.922   5.631  0.00  0.00    +0.004 C 
ATOM     22  C   UNL     1      -5.955   2.648   5.482  0.00  0.00    +0.044 C 
ENDBRANCH  17  18
ENDBRANCH  15  17
ENDBRANCH   4  11
BRANCH   6  23
ATOM     23  N   UNL     1      -2.485  -3.190  -2.365  0.00  0.00    -0.329 N 
ATOM     24  H   UNL     1      -3.349  -2.967  -2.747  0.00  0.00    +0.145 HD
ATOM     25  H   UNL     1      -2.005  -3.974  -2.676  0.00  0.00    +0.145 HD
ENDBRANCH   6  23
BRANCH   5  26
ATOM     26  C   UNL     1      -3.919  -1.063  -1.650  0.00  0.00    +0.101 C 
ATOM     27  N   UNL     1      -4.912  -0.856  -2.162  0.00  0.00    -0.191 NA
ENDBRANCH   5  26
TORSDOF 5
