REMARK  Name = ZINC35745968
REMARK  13 active torsions:
REMARK  status: ('A' for Active; 'I' for Inactive)
REMARK    1  A    between atoms: C_1  and  C_2
REMARK    2  A    between atoms: C_2  and  C_3
REMARK    3  A    between atoms: C_3  and  C_4
REMARK    4  A    between atoms: C_4  and  C_6
REMARK    5  A    between atoms: C_4  and  O_31
REMARK    6  A    between atoms: C_6  and  N_7
REMARK    7  A    between atoms: N_7  and  C_8
REMARK    8  A    between atoms: N_7  and  C_27
REMARK    9  A    between atoms: C_8  and  C_9
REMARK   10  A    between atoms: C_15  and  C_20
REMARK   11  A    between atoms: C_27  and  C_28
REMARK   12  A    between atoms: C_28  and  C_29
REMARK   13  A    between atoms: C_28  and  C_30
REMARK                            x       y       z     vdW  Elec       q    Type
REMARK                         _______ _______ _______ _____ _____    ______ ____
ROOT
ATOM      1  C   UNL     1       3.198  -3.936  -3.771  0.00  0.00    +0.094 A 
ATOM      2  N   UNL     1       4.055  -4.222  -4.784  0.00  0.00    -0.312 N 
ATOM      3  H   UNL     1       3.761  -4.796  -5.507  0.00  0.00    +0.170 HD
ATOM      4  C   UNL     1       5.305  -3.723  -4.804  0.00  0.00    +0.260 A 
ATOM      5  O   UNL     1       6.063  -3.989  -5.721  0.00  0.00    -0.267 OA
ATOM      6  C   UNL     1       5.731  -2.875  -3.732  0.00  0.00    +0.080 A 
ATOM      7  C   UNL     1       7.018  -2.220  -3.529  0.00  0.00    +0.004 A 
ATOM      8  C   UNL     1       7.193  -1.455  -2.425  0.00  0.00    +0.056 A 
ATOM      9  S   UNL     1       5.623  -1.572  -1.589  0.00  0.00    -0.076 S 
ATOM     10  C   UNL     1       4.777  -2.635  -2.730  0.00  0.00    +0.116 A 
ATOM     11  N   UNL     1       3.556  -3.161  -2.781  0.00  0.00    -0.229 NA
ENDROOT
BRANCH   7  12
ATOM     12  C   UNL     1       8.115  -2.390  -4.511  0.00  0.00    -0.016 A 
ATOM     13  C   UNL     1       8.476  -3.665  -4.944  0.00  0.00    +0.010 A 
ATOM     14  C   UNL     1       9.497  -3.818  -5.859  0.00  0.00    +0.020 A 
ATOM     15  C   UNL     1      10.163  -2.707  -6.348  0.00  0.00    +0.041 A 
ATOM     16  C   UNL     1       9.810  -1.438  -5.921  0.00  0.00    +0.020 A 
ATOM     17  C   UNL     1       8.786  -1.274  -5.011  0.00  0.00    +0.010 A 
ATOM     18 CL   UNL     1      11.447  -2.905  -7.499  0.00  0.00    -0.084 Cl
ENDBRANCH   7  12
BRANCH   1  19
ATOM     19  C   UNL     1       1.808  -4.516  -3.791  0.00  0.00    -0.003 C 
BRANCH  19  20
ATOM     20  N   UNL     1       1.027  -3.958  -2.679  0.00  0.00    +0.386 N 
ATOM     21  H   UNL     1       1.531  -4.089  -1.814  0.00  0.00    -0.081 HD
BRANCH  20  22
ATOM     22  C   UNL     1       0.810  -2.522  -2.905  0.00  0.00    -0.047 C 
BRANCH  22  23
ATOM     23  C   UNL     1       0.107  -1.915  -1.690  0.00  0.00    +0.098 C 
BRANCH  23  24
ATOM     24  O   UNL     1       0.969  -1.992  -0.552  0.00  0.00    -0.394 OA
ATOM     25  H   UNL     1       1.807  -1.522  -0.661  0.00  0.00    +0.210 HD
ENDBRANCH  23  24
BRANCH  23  26
ATOM     26  C   UNL     1      -0.231  -0.450  -1.975  0.00  0.00    +0.029 C 
BRANCH  26  28
ATOM     27  C   UNL     1      -1.381   1.587  -1.097  0.00  0.00    +0.004 C 
ATOM     28  C   UNL     1      -1.043   0.122  -0.812  0.00  0.00    -0.001 C 
ENDBRANCH  26  28
ENDBRANCH  23  26
ENDBRANCH  22  23
ENDBRANCH  20  22
BRANCH  20  29
ATOM     29  C   UNL     1      -0.270  -4.642  -2.598  0.00  0.00    -0.075 C 
BRANCH  29  30
ATOM     30  C   UNL     1      -0.049  -6.112  -2.237  0.00  0.00    -0.034 C 
ATOM     31  C   UNL     1       0.605  -6.206  -0.857  0.00  0.00    +0.005 C 
ATOM     32  C   UNL     1      -1.395  -6.839  -2.214  0.00  0.00    +0.005 C 
ENDBRANCH  29  30
ENDBRANCH  20  29
ENDBRANCH  19  20
ENDBRANCH   1  19
TORSDOF 10
