REMARK  Name = ZINC58280682
REMARK  4 active torsions:
REMARK  status: ('A' for Active; 'I' for Inactive)
REMARK    1  A    between atoms: C_1  and  N_2
REMARK    2  A    between atoms: N_11  and  C_12
REMARK    3  A    between atoms: C_12  and  C_14
REMARK    4  A    between atoms: C_14  and  C_15
REMARK                            x       y       z     vdW  Elec       q    Type
REMARK                         _______ _______ _______ _____ _____    ______ ____
ROOT
ATOM      1  C   UNL     1      -0.017   1.461   0.032  0.00  0.00    +0.152 C 
ATOM      2  N   UNL     1       0.002  -0.003   0.017  0.00  0.00    -0.315 N 
ATOM      3  C   UNL     1      -1.114  -0.834   0.020  0.00  0.00    +0.068 A 
ATOM      4  C   UNL     1      -2.480  -0.584   0.037  0.00  0.00    +0.029 A 
ATOM      5  C   UNL     1      -3.371  -1.638   0.035  0.00  0.00    +0.022 A 
ATOM      6  C   UNL     1      -2.909  -2.944   0.018  0.00  0.00    +0.043 A 
ATOM      7  C   UNL     1      -1.552  -3.203   0.001  0.00  0.00    +0.047 A 
ATOM      8  C   UNL     1      -0.648  -2.150   0.002  0.00  0.00    +0.067 A 
ATOM      9  N   UNL     1       0.742  -2.092  -0.012  0.00  0.00    -0.326 N 
ATOM     10  C   UNL     1       1.114  -0.785  -0.008  0.00  0.00    +0.201 A 
ATOM     11  N   UNL     1       2.368  -0.341  -0.023  0.00  0.00    -0.146 NA
ATOM     12 CL   UNL     1      -4.040  -4.262   0.017  0.00  0.00    -0.083 Cl
ATOM     13  H   UNL     1       1.342  -2.853  -0.025  0.00  0.00    +0.169 HD
ENDROOT
BRANCH  11  14
ATOM     14  C   UNL     1       3.378  -1.200   0.062  0.00  0.00    +0.245 C 
ATOM     15  O   UNL     1       3.161  -2.396   0.058  0.00  0.00    -0.273 OA
BRANCH  14  16
ATOM     16  C   UNL     1       4.793  -0.691   0.164  0.00  0.00    +0.155 C 
BRANCH  16  17
ATOM     17  C   UNL     1       5.742  -1.859   0.248  0.00  0.00    +0.069 A 
ATOM     18  C   UNL     1       6.791  -2.080  -0.562  0.00  0.00    +0.117 A 
ATOM     19  N   UNL     1       7.404  -3.259  -0.149  0.00  0.00    -0.300 N 
ATOM     20  C   UNL     1       8.480  -4.040  -0.511  0.00  0.00    +0.100 A 
ATOM     21  C   UNL     1       8.768  -5.157   0.157  0.00  0.00    +0.067 A 
ATOM     22  S   UNL     1       7.486  -5.185   1.399  0.00  0.00    -0.058 S 
ATOM     23  C   UNL     1       6.660  -3.686   0.919  0.00  0.00    +0.178 A 
ATOM     24  N   UNL     1       5.686  -2.853   1.149  0.00  0.00    -0.226 NA
ENDBRANCH  16  17
ENDBRANCH  14  16
ENDBRANCH  11  14
TORSDOF 3
