REMARK  Name = ZINC63613511
REMARK  9 active torsions:
REMARK  status: ('A' for Active; 'I' for Inactive)
REMARK    1  A    between atoms: C_1  and  C_2
REMARK    2  A    between atoms: C_6  and  C_37
REMARK    3  A    between atoms: C_7  and  N_8
REMARK    4  A    between atoms: C_9  and  C_11
REMARK    5  A    between atoms: C_11  and  N_17
REMARK    6  A    between atoms: N_17  and  C_18
REMARK    7  A    between atoms: C_18  and  C_19
REMARK    8  A    between atoms: C_24  and  C_26
REMARK    9  A    between atoms: C_26  and  C_27
REMARK                            x       y       z     vdW  Elec       q    Type
REMARK                         _______ _______ _______ _____ _____    ______ ____
ROOT
ATOM      1  N   UNL     1       0.502   1.183   4.800  0.00  0.00    -0.280 N 
ATOM      2  C   UNL     1       0.003   2.409   5.055  0.00  0.00    +0.219 C 
ATOM      3  O   UNL     1      -1.123   2.527   5.489  0.00  0.00    -0.275 OA
ENDROOT
BRANCH   1   4
ATOM      4  C   UNL     1      -0.326  -0.005   5.022  0.00  0.00    +0.114 C 
ATOM      5  C   UNL     1      -1.028   0.108   6.377  0.00  0.00    +0.035 C 
ATOM      6  C   UNL     1       0.019   0.215   7.487  0.00  0.00    +0.003 C 
ATOM      7  C   UNL     1       0.904  -1.033   7.474  0.00  0.00    +0.000 C 
ATOM      8  C   UNL     1       1.607  -1.146   6.120  0.00  0.00    +0.003 C 
ATOM      9  C   UNL     1       0.560  -1.253   5.010  0.00  0.00    +0.035 C 
BRANCH   4  11
ATOM     10  N   UNL     1      -1.799   1.003   3.310  0.00  0.00    -0.283 N 
ATOM     11  C   UNL     1      -1.357  -0.110   3.929  0.00  0.00    +0.241 C 
ATOM     12  O   UNL     1      -1.789  -1.196   3.605  0.00  0.00    -0.273 OA
ATOM     13  H   UNL     1      -1.464   1.873   3.579  0.00  0.00    +0.155 HD
BRANCH  10  20
ATOM     14  C   UNL     1      -1.139  -0.568   1.031  0.00  0.00    +0.045 C 
ATOM     15  C   UNL     1      -2.460   0.147   1.151  0.00  0.00    -0.029 A 
ATOM     16  C   UNL     1      -3.395   0.046   0.139  0.00  0.00    +0.005 A 
ATOM     17  C   UNL     1      -4.607   0.703   0.247  0.00  0.00    +0.001 A 
ATOM     18  C   UNL     1      -4.888   1.462   1.369  0.00  0.00    +0.005 A 
ATOM     19  C   UNL     1      -3.958   1.566   2.384  0.00  0.00    -0.029 A 
ATOM     20  C   UNL     1      -2.741   0.904   2.280  0.00  0.00    +0.039 A 
ATOM     21  C   UNL     1      -4.264   2.394   3.606  0.00  0.00    +0.045 C 
ENDBRANCH  10  20
ENDBRANCH   4  11
ENDBRANCH   1   4
BRANCH   1  22
ATOM     22  C   UNL     1       1.872   1.039   4.302  0.00  0.00    +0.183 C 
BRANCH  22  23
ATOM     23  C   UNL     1       1.890   1.259   2.811  0.00  0.00    +0.122 A 
ATOM     24  C   UNL     1       2.075   2.439   2.192  0.00  0.00    +0.046 A 
ATOM     25  C   UNL     1       2.017   2.186   0.802  0.00  0.00    +0.041 A 
ATOM     26  C   UNL     1       1.800   0.866   0.655  0.00  0.00    +0.195 A 
ATOM     27  O   UNL     1       1.730   0.309   1.875  0.00  0.00    -0.466 OA
ENDBRANCH  22  23
ENDBRANCH   1  22
BRANCH   2  28
ATOM     28  C   UNL     1       0.845   3.633   4.801  0.00  0.00    +0.124 C 
BRANCH  28  29
ATOM     29  C   UNL     1       0.048   4.886   5.170  0.00  0.00    +0.112 C 
ATOM     30  C   UNL     1       0.856   6.127   4.861  0.00  0.00    +0.007 C 
ATOM     31  C   UNL     1       1.022   6.768   6.040  0.00  0.00    -0.004 A 
ATOM     32  C   UNL     1       1.707   8.014   6.406  0.00  0.00    +0.010 A 
ATOM     33  C   UNL     1       1.704   8.408   7.700  0.00  0.00    +0.001 A 
ATOM     34  C   UNL     1       1.065   7.659   8.697  0.00  0.00    +0.002 A 
ATOM     35  C   UNL     1       0.415   6.505   8.439  0.00  0.00    +0.026 A 
ATOM     36  C   UNL     1       0.355   5.995   7.112  0.00  0.00    +0.043 A 
ATOM     37  N   UNL     1      -0.204   4.917   6.615  0.00  0.00    -0.377 N 
ATOM     38  H   UNL     1      -0.701   4.252   7.117  0.00  0.00    +0.160 HD
ENDBRANCH  28  29
ENDBRANCH   2  28
TORSDOF 7
