REMARK  Name = ZINC36271065
REMARK  10 active torsions:
REMARK  status: ('A' for Active; 'I' for Inactive)
REMARK    1  A    between atoms: C_1  and  C_2
REMARK    2  A    between atoms: C_2  and  C_3
REMARK    3  A    between atoms: N_9  and  C_10
REMARK    4  A    between atoms: C_10  and  C_11
REMARK    5  A    between atoms: C_12  and  C_21
REMARK    6  A    between atoms: C_17  and  N_20
REMARK    7  A    between atoms: C_23  and  O_29
REMARK    8  A    between atoms: C_26  and  O_27
REMARK    9  A    between atoms: O_27  and  C_28
REMARK   10  A    between atoms: O_29  and  C_30
REMARK                            x       y       z     vdW  Elec       q    Type
REMARK                         _______ _______ _______ _____ _____    ______ ____
ROOT
ATOM      1  C   UNL     1       3.873   1.299  -0.888  0.00  0.00    +0.035 A 
ATOM      2  C   UNL     1       4.532   1.661   0.249  0.00  0.00    +0.095 A 
ATOM      3  N   UNL     1       5.761   2.079  -0.091  0.00  0.00    -0.227 NA
ATOM      4  C   UNL     1       5.899   1.992  -1.407  0.00  0.00    +0.138 A 
ATOM      5  N   UNL     1       4.732   1.501  -1.931  0.00  0.00    -0.303 N 
ATOM      6  C   UNL     1       4.605   1.305  -3.279  0.00  0.00    +0.115 A 
ATOM      7  C   UNL     1       5.632   1.591  -4.116  0.00  0.00    +0.041 A 
ATOM      8  C   UNL     1       6.845   2.094  -3.602  0.00  0.00    +0.028 A 
ATOM      9  C   UNL     1       6.976   2.299  -2.265  0.00  0.00    +0.048 A 
ENDROOT
BRANCH   2  10
ATOM     10  C   UNL     1       3.984   1.603   1.627  0.00  0.00    +0.047 A 
ATOM     11  C   UNL     1       2.728   2.138   1.903  0.00  0.00    +0.059 A 
ATOM     12  C   UNL     1       2.222   2.082   3.190  0.00  0.00    +0.121 A 
ATOM     13  C   UNL     1       2.964   1.493   4.205  0.00  0.00    +0.049 A 
ATOM     14  C   UNL     1       4.211   0.961   3.937  0.00  0.00    +0.050 A 
ATOM     15  C   UNL     1       4.724   1.007   2.651  0.00  0.00    +0.130 A 
BRANCH  15  16
ATOM     16  O   UNL     1       5.948   0.478   2.388  0.00  0.00    -0.494 OA
ATOM     17  C   UNL     1       6.648  -0.116   3.483  0.00  0.00    +0.277 C 
ENDBRANCH  15  16
BRANCH  12  18
ATOM     18  O   UNL     1       0.996   2.604   3.461  0.00  0.00    -0.495 OA
ATOM     19  C   UNL     1       0.535   2.512   4.811  0.00  0.00    +0.277 C 
ENDBRANCH  12  18
ENDBRANCH   2  10
BRANCH   7  20
ATOM     20  N   UNL     1       5.489   1.385  -5.494  0.00  0.00    -0.357 N 
ATOM     21  H   UNL     1       4.655   1.039  -5.849  0.00  0.00    +0.142 HD
ATOM     22  H   UNL     1       6.223   1.589  -6.094  0.00  0.00    +0.142 HD
ENDBRANCH   7  20
BRANCH   1  23
ATOM     23  C   UNL     1       2.464   0.771  -0.977  0.00  0.00    -0.021 C 
BRANCH  23  29
ATOM     24  C   UNL     1       1.085  -1.171  -0.711  0.00  0.00    -0.068 C 
ATOM     25  C   UNL     1       1.075  -2.659  -0.354  0.00  0.00    -0.015 C 
ATOM     26  C   UNL     1       1.897  -3.432  -1.390  0.00  0.00    -0.003 C 
ATOM     27  C   UNL     1       3.315  -2.855  -1.435  0.00  0.00    -0.019 C 
ATOM     28  C   UNL     1       3.242  -1.360  -1.751  0.00  0.00    -0.078 C 
ATOM     29  N   UNL     1       2.466  -0.674  -0.711  0.00  0.00    +0.385 N 
ATOM     30  H   UNL     1       2.885  -0.848   0.190  0.00  0.00    -0.081 HD
BRANCH  24  32
ATOM     31  C   UNL     1      -1.193  -0.856   0.266  0.00  0.00    +0.002 C 
ATOM     32  C   UNL     1       0.264  -0.395   0.321  0.00  0.00    -0.019 C 
ENDBRANCH  24  32
ENDBRANCH  23  29
ENDBRANCH   1  23
TORSDOF 7
