REMARK  Name = ZINC40288067
REMARK  2 active torsions:
REMARK  status: ('A' for Active; 'I' for Inactive)
REMARK    1  A    between atoms: C_5  and  C_7
REMARK    2  A    between atoms: C_21  and  C_22
REMARK                            x       y       z     vdW  Elec       q    Type
REMARK                         _______ _______ _______ _____ _____    ______ ____
ROOT
ATOM      1  C   UNL     1       1.229  -2.186  -0.022  0.00  0.00    +0.175 C 
ATOM      2  C   UNL     1       0.540  -2.704   1.221  0.00  0.00    +0.041 C 
ATOM      3  C   UNL     1      -0.693  -3.254   1.185  0.00  0.00    +0.018 C 
ATOM      4  C   UNL     1      -1.361  -3.745   2.447  0.00  0.00    +0.051 C 
ATOM      5  C   UNL     1      -0.301  -4.244   3.431  0.00  0.00    +0.014 C 
ATOM      6  C   UNL     1       0.661  -3.089   3.728  0.00  0.00    +0.080 C 
ATOM      7  C   UNL     1       1.243  -2.592   2.435  0.00  0.00    +0.163 C 
ATOM      8  O   UNL     1       2.346  -2.082   2.437  0.00  0.00    -0.292 OA
ATOM      9  N   UNL     1      -1.386  -3.395   0.008  0.00  0.00    -0.302 N 
ATOM     10  C   UNL     1      -0.692  -3.235  -1.176  0.00  0.00    +0.140 A 
ATOM     11  N   UNL     1       0.539  -2.673  -1.214  0.00  0.00    -0.237 N 
ATOM     12  N   UNL     1       0.967  -2.662  -2.540  0.00  0.00    -0.176 NA
ATOM     13  C   UNL     1       0.038  -3.188  -3.294  0.00  0.00    +0.155 A 
ATOM     14  C   UNL     1      -1.040  -3.569  -2.469  0.00  0.00    +0.111 A 
ATOM     15  H   UNL     1      -2.334  -3.602   0.007  0.00  0.00    +0.153 HD
ENDROOT
BRANCH   1  20
ATOM     16  C   UNL     1      -0.017   1.378   0.010  0.00  0.00    +0.000 A 
ATOM     17  C   UNL     1       1.171   2.086   0.002  0.00  0.00    +0.001 A 
ATOM     18  C   UNL     1       2.377   1.412  -0.013  0.00  0.00    +0.020 A 
ATOM     19  C   UNL     1       2.397   0.029  -0.021  0.00  0.00    +0.046 A 
ATOM     20  C   UNL     1       1.208  -0.679  -0.013  0.00  0.00    -0.000 A 
ATOM     21  C   UNL     1       0.002  -0.004   0.002  0.00  0.00    +0.007 A 
ATOM     22 CL   UNL     1       3.912  -0.818  -0.041  0.00  0.00    -0.083 Cl
ENDBRANCH   1  20
BRANCH  14  23
ATOM     23  C   UNL     1      -2.262  -4.183  -2.893  0.00  0.00    +0.104 C 
ATOM     24  N   UNL     1      -3.232  -4.669  -3.229  0.00  0.00    -0.191 NA
ENDBRANCH  14  23
TORSDOF 2
