REMARK  Name = ZINC39529182
REMARK  7 active torsions:
REMARK  status: ('A' for Active; 'I' for Inactive)
REMARK    1  A    between atoms: C_1  and  C_2
REMARK    2  A    between atoms: C_2  and  C_3
REMARK    3  A    between atoms: C_3  and  C_4
REMARK    4  A    between atoms: C_9  and  N_10
REMARK    5  A    between atoms: C_14  and  S_17
REMARK    6  A    between atoms: S_17  and  O_20
REMARK    7  A    between atoms: O_20  and  C_21
REMARK                            x       y       z     vdW  Elec       q    Type
REMARK                         _______ _______ _______ _____ _____    ______ ____
ROOT
ATOM      1  N   UNL     1      -1.268  -2.183   2.856  0.00  0.00    -0.331 N 
ATOM      2  C   UNL     1      -2.413  -1.735   3.664  0.00  0.00    +0.086 C 
ATOM      3  C   UNL     1      -2.316  -0.216   3.842  0.00  0.00    -0.061 C 
ATOM      4  N   UNL     1      -1.004   0.127   4.405  0.00  0.00    +0.398 N 
ATOM      5  C   UNL     1       0.057  -0.228   3.454  0.00  0.00    +0.133 C 
ATOM      6  C   UNL     1       0.078  -1.752   3.260  0.00  0.00    +0.115 C 
ATOM      7  H   UNL     1      -0.968   1.118   4.593  0.00  0.00    -0.083 HD
ATOM      8  H   UNL     1      -0.865  -0.380   5.266  0.00  0.00    -0.083 HD
ENDROOT
BRANCH   1  14
ATOM      9  C   UNL     1      -1.651  -2.434   0.486  0.00  0.00    -0.025 A 
ATOM     10  C   UNL     1      -1.830  -3.246  -0.618  0.00  0.00    +0.019 A 
ATOM     11  C   UNL     1      -1.819  -4.621  -0.475  0.00  0.00    +0.014 A 
ATOM     12  C   UNL     1      -1.630  -5.189   0.772  0.00  0.00    +0.016 A 
ATOM     13  C   UNL     1      -1.451  -4.383   1.879  0.00  0.00    +0.024 A 
ATOM     14  C   UNL     1      -1.455  -3.001   1.738  0.00  0.00    +0.033 A 
ATOM     15  I   UNL     1      -2.091  -5.848  -2.152  0.00  0.00    -0.044 I 
BRANCH   9  16
ATOM     16  C   UNL     1      -1.663  -0.935   0.330  0.00  0.00    +0.037 C 
BRANCH  16  18
ATOM     17  C   UNL     1      -0.240   1.094   0.014  0.00  0.00    +0.004 C 
ATOM     18  C   UNL     1      -0.229  -0.428   0.173  0.00  0.00    +0.001 C 
ENDBRANCH  16  18
ENDBRANCH   9  16
ENDBRANCH   1  14
BRANCH   5  19
ATOM     19  S   UNL     1       1.660   0.320   4.104  0.00  0.00    +0.109 S 
ATOM     20  O   UNL     1       1.909  -0.285   5.365  0.00  0.00    -0.138 OA
ATOM     21  O   UNL     1       2.642   0.285   3.077  0.00  0.00    -0.138 OA
BRANCH  19  22
ATOM     22  O   UNL     1       1.473   1.799   4.412  0.00  0.00    -0.347 OA
BRANCH  22  23
ATOM     23  C   UNL     1       1.481   2.598   3.313  0.00  0.00    +0.156 A 
ATOM     24  C   UNL     1       2.685   3.030   2.777  0.00  0.00    +0.048 A 
ATOM     25  C   UNL     1       2.691   3.842   1.659  0.00  0.00    +0.004 A 
ATOM     26  C   UNL     1       1.497   4.224   1.075  0.00  0.00    +0.000 A 
ATOM     27  C   UNL     1       0.295   3.796   1.608  0.00  0.00    +0.004 A 
ATOM     28  C   UNL     1       0.285   2.979   2.722  0.00  0.00    +0.048 A 
ENDBRANCH  22  23
ENDBRANCH  19  22
ENDBRANCH   5  19
TORSDOF 6
