REMARK  Name = ZINC22695851
REMARK  6 active torsions:
REMARK  status: ('A' for Active; 'I' for Inactive)
REMARK    1  A    between atoms: C_1  and  C_2
REMARK    2  A    between atoms: C_5  and  S_7
REMARK    3  A    between atoms: S_7  and  N_10
REMARK    4  A    between atoms: C_14  and  C_17
REMARK    5  A    between atoms: C_23  and  O_29
REMARK    6  A    between atoms: O_29  and  C_30
REMARK                            x       y       z     vdW  Elec       q    Type
REMARK                         _______ _______ _______ _____ _____    ______ ____
ROOT
ATOM      1  N   UNL     1       8.411   0.806  -0.210  0.00  0.00    -0.175 NA
ATOM      2  C   UNL     1       8.709   1.716  -1.325  0.00  0.00    +0.109 C 
ATOM      3  C   UNL     1       7.713   2.880  -1.290  0.00  0.00    +0.018 C 
ATOM      4  C   UNL     1       6.287   2.326  -1.295  0.00  0.00    +0.015 C 
ATOM      5  C   UNL     1       6.067   1.466  -0.049  0.00  0.00    +0.091 C 
ATOM      6  C   UNL     1       7.044   0.286  -0.069  0.00  0.00    +0.122 C 
ENDROOT
BRANCH   5   7
ATOM      7  C   UNL     1       4.653   0.947  -0.038  0.00  0.00    +0.223 C 
ATOM      8  O   UNL     1       4.445  -0.248  -0.043  0.00  0.00    -0.275 OA
ATOM      9  N   UNL     1       3.618   1.811  -0.023  0.00  0.00    -0.264 N 
ATOM     10  C   UNL     1       2.317   1.334  -0.013  0.00  0.00    +0.166 A 
ATOM     11  N   UNL     1       1.192   2.010   0.002  0.00  0.00    -0.221 NA
ATOM     12  C   UNL     1      -0.017   1.408   0.010  0.00  0.00    +0.122 A 
ATOM     13  C   UNL     1      -1.298   2.016   0.031  0.00  0.00    +0.146 A 
ATOM     14  C   UNL     1      -2.438   1.248   0.033  0.00  0.00    +0.048 A 
ATOM     15  C   UNL     1      -2.377  -0.138   0.025  0.00  0.00    +0.005 A 
ATOM     16  C   UNL     1      -1.144  -0.762   0.009  0.00  0.00    +0.017 A 
ATOM     17  C   UNL     1       0.002  -0.004   0.002  0.00  0.00    +0.044 A 
ATOM     18  S   UNL     1       1.743  -0.359  -0.017  0.00  0.00    -0.052 S 
ATOM     19  H   UNL     1       3.807   2.895  -0.018  0.00  0.00    +0.157 HD
BRANCH  13  20
ATOM     20  O   UNL     1      -1.399   3.372   0.040  0.00  0.00    -0.493 OA
ATOM     21  C   UNL     1      -2.717   3.923   0.061  0.00  0.00    +0.277 C 
ENDBRANCH  13  20
ENDBRANCH   5   7
BRANCH   1  22
ATOM     22  S   UNL     1       9.594   0.375   0.866  0.00  0.00    +0.067 S 
ATOM     23  O   UNL     1       9.195  -0.867   1.431  0.00  0.00    -0.152 OA
ATOM     24  O   UNL     1      10.835   0.543   0.195  0.00  0.00    -0.152 OA
BRANCH  22  29
ATOM     25  C   UNL     1      10.144   4.844   4.703  0.00  0.00    +0.051 C 
ATOM     26  C   UNL     1       9.828   3.603   3.909  0.00  0.00    -0.011 A 
ATOM     27  C   UNL     1       8.992   2.582   4.219  0.00  0.00    +0.013 A 
ATOM     28  C   UNL     1       8.852   1.535   3.326  0.00  0.00    +0.036 A 
ATOM     29  C   UNL     1       9.564   1.556   2.173  0.00  0.00    +0.143 A 
ATOM     30  S   UNL     1      10.458   3.095   2.318  0.00  0.00    -0.074 S 
ENDBRANCH  22  29
ENDBRANCH   1  22
TORSDOF 4
