REMARK  Name = ZINC64870131
REMARK  5 active torsions:
REMARK  status: ('A' for Active; 'I' for Inactive)
REMARK    1  A    between atoms: C_1  and  O_2
REMARK    2  A    between atoms: O_2  and  C_3
REMARK    3  A    between atoms: C_6  and  N_9
REMARK    4  A    between atoms: C_15  and  C_22
REMARK    5  A    between atoms: C_25  and  C_29
REMARK                            x       y       z     vdW  Elec       q    Type
REMARK                         _______ _______ _______ _____ _____    ______ ____
ROOT
ATOM      1  N   UNL     1       2.459  -2.458  -4.303  0.00  0.00    -0.229 N 
ATOM      2  C   UNL     1       2.586  -3.803  -4.315  0.00  0.00    +0.269 A 
ATOM      3  O   UNL     1       2.167  -4.477  -3.393  0.00  0.00    -0.266 OA
ATOM      4  C   UNL     1       3.243  -4.432  -5.474  0.00  0.00    +0.063 A 
ATOM      5  C   UNL     1       3.411  -5.812  -5.561  0.00  0.00    +0.016 A 
ATOM      6  C   UNL     1       4.033  -6.352  -6.668  0.00  0.00    +0.008 A 
ATOM      7  C   UNL     1       4.489  -5.530  -7.687  0.00  0.00    -0.000 A 
ATOM      8  C   UNL     1       4.328  -4.161  -7.613  0.00  0.00    +0.034 A 
ATOM      9  C   UNL     1       3.706  -3.600  -6.509  0.00  0.00    +0.056 A 
ATOM     10  N   UNL     1       3.524  -2.229  -6.395  0.00  0.00    -0.307 N 
ATOM     11  H   UNL     1       3.838  -1.643  -7.101  0.00  0.00    +0.170 HD
ATOM     12  C   UNL     1       2.913  -1.707  -5.318  0.00  0.00    +0.334 A 
ATOM     13  O   UNL     1       2.769  -0.501  -5.259  0.00  0.00    -0.246 OA
ENDROOT
BRANCH   7  14
ATOM     14  C   UNL     1       5.166  -6.138  -8.889  0.00  0.00    +0.242 C 
ATOM     15  N   UNL     1       5.837  -7.411  -8.515  0.00  0.00    -0.265 NA
ATOM     16  C   UNL     1       5.914  -8.131  -9.815  0.00  0.00    +0.180 C 
ATOM     17  N   UNL     1       4.646  -7.769 -10.490  0.00  0.00    -0.177 NA
ATOM     18  O   UNL     1       4.191  -6.510  -9.879  0.00  0.00    -0.274 OA
ATOM     19  H   UNL     1       6.758  -7.238  -8.142  0.00  0.00    +0.127 HD
ATOM     20  H   UNL     1       4.784  -7.659 -11.483  0.00  0.00    +0.156 HD
BRANCH  16  21
ATOM     21  C   UNL     1       5.994  -9.620  -9.591  0.00  0.00    -0.010 A 
ATOM     22  C   UNL     1       6.586 -10.114  -8.444  0.00  0.00    +0.010 A 
ATOM     23  C   UNL     1       6.662 -11.479  -8.235  0.00  0.00    +0.050 A 
ATOM     24  C   UNL     1       6.144 -12.354  -9.176  0.00  0.00    +0.166 A 
ATOM     25  C   UNL     1       5.547 -11.856 -10.331  0.00  0.00    +0.167 A 
ATOM     26  C   UNL     1       5.470 -10.487 -10.532  0.00  0.00    +0.056 A 
ATOM     27  O   UNL     1       5.121 -12.907 -11.090  0.00  0.00    -0.453 OA
ATOM     28  C   UNL     1       5.824 -14.057 -10.584  0.00  0.00    +0.466 C 
ATOM     29  O   UNL     1       6.091 -13.718  -9.211  0.00  0.00    -0.453 OA
ENDBRANCH  16  21
ENDBRANCH   7  14
BRANCH   1  33
ATOM     30  C   UNL     1       0.607  -0.609  -1.055  0.00  0.00    +0.120 A 
ATOM     31  C   UNL     1      -0.148  -1.013  -2.146  0.00  0.00    +0.047 A 
ATOM     32  C   UNL     1       0.464  -1.626  -3.221  0.00  0.00    +0.030 A 
ATOM     33  C   UNL     1       1.836  -1.836  -3.211  0.00  0.00    +0.055 A 
ATOM     34  C   UNL     1       2.592  -1.430  -2.119  0.00  0.00    +0.030 A 
ATOM     35  C   UNL     1       1.979  -0.814  -1.046  0.00  0.00    +0.047 A 
BRANCH  30  37
ATOM     36  C   UNL     1      -1.412   0.173  -0.072  0.00  0.00    +0.277 C 
ATOM     37  O   UNL     1       0.003  -0.006   0.004  0.00  0.00    -0.495 OA
ENDBRANCH  30  37
ENDBRANCH   1  33
TORSDOF 4
