REMARK  Name = ZINC01507263
REMARK  5 active torsions:
REMARK  status: ('A' for Active; 'I' for Inactive)
REMARK    1  A    between atoms: C_1  and  O_2
REMARK    2  A    between atoms: O_2  and  C_3
REMARK    3  A    between atoms: N_11  and  C_12
REMARK    4  A    between atoms: C_13  and  C_21
REMARK    5  A    between atoms: C_23  and  C_25
REMARK                            x       y       z     vdW  Elec       q    Type
REMARK                         _______ _______ _______ _____ _____    ______ ____
ROOT
ATOM      1  C   UNL     1      -0.017   1.387   0.010  0.00  0.00    +0.163 A 
ATOM      2  C   UNL     1       1.175   2.092   0.002  0.00  0.00    +0.049 A 
ATOM      3  C   UNL     1       2.390   1.425  -0.012  0.00  0.00    +0.004 A 
ATOM      4  C   UNL     1       2.431   0.049  -0.021  0.00  0.00    +0.012 A 
ATOM      5  C   UNL     1       1.236  -0.681  -0.017  0.00  0.00    +0.022 A 
ATOM      6  C   UNL     1       0.002  -0.004   0.002  0.00  0.00    +0.179 A 
ATOM      7  O   UNL     1      -1.155  -0.711   0.015  0.00  0.00    -0.435 OA
ATOM      8  C   UNL     1      -1.130  -1.944  -0.549  0.00  0.00    +0.212 A 
ATOM      9  N   UNL     1      -2.132  -2.373  -1.293  0.00  0.00    -0.319 N 
ATOM     10  C   UNL     1       0.052  -2.792  -0.306  0.00  0.00    +0.097 A 
ATOM     11  C   UNL     1       1.251  -2.145  -0.035  0.00  0.00    +0.030 A 
ATOM     12  H   UNL     1      -2.095  -3.376  -1.742  0.00  0.00    +0.169 HD
ENDROOT
BRANCH   9  13
ATOM     13  C   UNL     1      -3.203  -1.580  -1.502  0.00  0.00    +0.098 A 
ATOM     14  C   UNL     1      -4.355  -1.839  -2.254  0.00  0.00    +0.086 A 
ATOM     15  C   UNL     1      -5.369  -0.801  -2.311  0.00  0.00    -0.018 A 
ATOM     16  C   UNL     1      -5.099   0.338  -1.633  0.00  0.00    -0.004 A 
ATOM     17  S   UNL     1      -3.510   0.070  -0.897  0.00  0.00    -0.075 S 
ATOM     18  C   UNL     1      -5.964   1.557  -1.530  0.00  0.00    +0.043 C 
ATOM     19  C   UNL     1      -7.047   1.476  -2.616  0.00  0.00    +0.005 C 
ATOM     20  C   UNL     1      -7.676   0.081  -2.579  0.00  0.00    +0.005 C 
ATOM     21  C   UNL     1      -6.673  -0.955  -3.087  0.00  0.00    +0.037 C 
BRANCH  14  22
ATOM     22  C   UNL     1      -4.528  -3.084  -2.940  0.00  0.00    +0.102 C 
ATOM     23  N   UNL     1      -4.666  -4.072  -3.485  0.00  0.00    -0.191 NA
ENDBRANCH  14  22
ENDBRANCH   9  13
BRANCH  10  24
ATOM     24  C   UNL     1      -0.036  -4.263  -0.349  0.00  0.00    +0.247 C 
ATOM     25  O   UNL     1      -1.099  -4.802  -0.588  0.00  0.00    -0.270 OA
ATOM     26  N   UNL     1       1.063  -5.010  -0.122  0.00  0.00    -0.325 N 
ATOM     27  H   UNL     1       0.998  -6.107  -0.154  0.00  0.00    +0.145 HD
ATOM     28  H   UNL     1       2.025  -4.522   0.094  0.00  0.00    +0.145 HD
ENDBRANCH  10  24
BRANCH   1  30
ATOM     29  C   UNL     1      -1.145   3.480   0.026  0.00  0.00    +0.277 C 
ATOM     30  O   UNL     1      -1.203   2.053   0.019  0.00  0.00    -0.491 OA
ENDBRANCH   1  30
TORSDOF 4
