REMARK  Name = ZINC63503404
REMARK  10 active torsions:
REMARK  status: ('A' for Active; 'I' for Inactive)
REMARK    1  A    between atoms: C_1  and  C_2
REMARK    2  A    between atoms: C_6  and  O_9
REMARK    3  A    between atoms: C_7  and  C_8
REMARK    4  A    between atoms: O_9  and  C_10
REMARK    5  A    between atoms: C_10  and  C_11
REMARK    6  A    between atoms: C_13  and  C_19
REMARK    7  A    between atoms: C_16  and  O_17
REMARK    8  A    between atoms: O_17  and  C_18
REMARK    9  A    between atoms: C_26  and  O_31
REMARK   10  A    between atoms: O_31  and  C_32
REMARK                            x       y       z     vdW  Elec       q    Type
REMARK                         _______ _______ _______ _____ _____    ______ ____
ROOT
ATOM      1  C   UNL     1       0.296  -4.799   3.673  0.00  0.00    +0.032 A 
ATOM      2  C   UNL     1       0.283  -3.966   4.775  0.00  0.00    +0.015 A 
ATOM      3  C   UNL     1       0.084  -4.491   6.038  0.00  0.00    -0.028 A 
ATOM      4  C   UNL     1      -0.104  -5.851   6.202  0.00  0.00    +0.009 A 
ATOM      5  C   UNL     1      -0.093  -6.688   5.104  0.00  0.00    +0.046 A 
ATOM      6  C   UNL     1       0.102  -6.163   3.835  0.00  0.00    +0.126 A 
ENDROOT
BRANCH   3   7
ATOM      7  C   UNL     1       0.072  -3.579   7.239  0.00  0.00    +0.111 C 
ATOM      8  C   UNL     1      -1.216  -3.794   8.037  0.00  0.00    +0.128 C 
ATOM      9  C   UNL     1      -1.139  -5.211   8.595  0.00  0.00    -0.035 C 
ATOM     10  C   UNL     1      -2.250  -5.825   8.212  0.00  0.00    +0.003 A 
ATOM     11  C   UNL     1      -2.787  -7.163   8.506  0.00  0.00    +0.055 A 
ATOM     12  C   UNL     1      -3.975  -7.486   7.925  0.00  0.00    +0.121 A 
ATOM     13  C   UNL     1      -4.694  -6.627   7.081  0.00  0.00    +0.047 A 
ATOM     14  C   UNL     1      -4.295  -5.373   6.748  0.00  0.00    +0.029 A 
ATOM     15  C   UNL     1      -3.025  -4.907   7.321  0.00  0.00    +0.043 A 
ATOM     16  N   UNL     1      -2.412  -3.747   7.197  0.00  0.00    -0.376 N 
ATOM     17  C   UNL     1       0.080  -5.706   9.334  0.00  0.00    +0.048 C 
ATOM     18  C   UNL     1       1.294  -5.311   8.474  0.00  0.00    +0.086 C 
ATOM     19  N   UNL     1       1.216  -3.893   8.110  0.00  0.00    -0.307 NA
ATOM     20  H   UNL     1       2.081  -3.575   7.700  0.00  0.00    +0.123 HD
ATOM     21  H   UNL     1      -2.692  -2.996   6.651  0.00  0.00    +0.160 HD
BRANCH  12  22
ATOM     22  O   UNL     1      -4.496  -8.715   8.178  0.00  0.00    -0.495 OA
ATOM     23  C   UNL     1      -5.743  -9.032   7.557  0.00  0.00    +0.277 C 
ENDBRANCH  12  22
ENDBRANCH   3   7
BRANCH   6  24
ATOM     24  O   UNL     1       0.107  -6.984   2.752  0.00  0.00    -0.495 OA
ATOM     25  C   UNL     1      -0.099  -8.377   2.993  0.00  0.00    +0.277 C 
ENDBRANCH   6  24
BRANCH   1  26
ATOM     26  C   UNL     1       0.513  -4.226   2.296  0.00  0.00    +0.268 C 
BRANCH  26  27
ATOM     27  O   UNL     1       0.687  -2.811   2.392  0.00  0.00    -0.487 OA
BRANCH  27  33
ATOM     28  C   UNL     1       1.476   1.419   0.088  0.00  0.00    +0.044 C 
ATOM     29  C   UNL     1       1.284  -0.075   0.069  0.00  0.00    -0.044 A 
ATOM     30  C   UNL     1       1.320  -0.760  -1.132  0.00  0.00    +0.004 A 
ATOM     31  C   UNL     1       1.145  -2.132  -1.153  0.00  0.00    +0.004 A 
ATOM     32  C   UNL     1       0.932  -2.821   0.025  0.00  0.00    +0.046 A 
ATOM     33  C   UNL     1       0.896  -2.135   1.231  0.00  0.00    +0.124 A 
ATOM     34  C   UNL     1       1.078  -0.760   1.250  0.00  0.00    -0.006 A 
ATOM     35  C   UNL     1       1.046  -0.013   2.559  0.00  0.00    +0.048 C 
ENDBRANCH  27  33
ENDBRANCH  26  27
ENDBRANCH   1  26
TORSDOF 6
