REMARK  Name = ZINC59432507
REMARK  5 active torsions:
REMARK  status: ('A' for Active; 'I' for Inactive)
REMARK    1  A    between atoms: C_2  and  C_3
REMARK    2  A    between atoms: C_3  and  O_4
REMARK    3  A    between atoms: O_4  and  C_5
REMARK    4  A    between atoms: C_8  and  C_11
REMARK    5  A    between atoms: C_16  and  C_18
REMARK                            x       y       z     vdW  Elec       q    Type
REMARK                         _______ _______ _______ _____ _____    ______ ____
ROOT
ATOM      1  C   UNL     1       5.865  -4.968   1.390  0.00  0.00    +0.043 C 
ATOM      2  C   UNL     1       5.930  -5.954   2.352  0.00  0.00    +0.152 C 
ATOM      3  C   UNL     1       4.856  -6.383   3.266  0.00  0.00    +0.364 C 
ATOM      4  O   UNL     1       3.723  -5.943   3.332  0.00  0.00    -0.243 OA
ATOM      5  O   UNL     1       5.397  -7.368   4.013  0.00  0.00    -0.402 OA
ATOM      6  C   UNL     1       6.674  -7.553   3.625  0.00  0.00    +0.235 C 
ATOM      7  N   UNL     1       7.001  -6.743   2.656  0.00  0.00    -0.205 NA
ENDROOT
BRANCH   6   8
ATOM      8  C   UNL     1       7.586  -8.550   4.218  0.00  0.00    +0.072 A 
ATOM      9  C   UNL     1       7.141  -9.384   5.247  0.00  0.00    +0.016 A 
ATOM     10  C   UNL     1       7.999 -10.313   5.796  0.00  0.00    +0.001 A 
ATOM     11  C   UNL     1       9.299 -10.423   5.332  0.00  0.00    +0.003 A 
ATOM     12  C   UNL     1       9.748  -9.601   4.314  0.00  0.00    +0.039 A 
ATOM     13  C   UNL     1       8.898  -8.669   3.749  0.00  0.00    +0.136 A 
ATOM     14  F   UNL     1       9.336  -7.871   2.750  0.00  0.00    -0.205 F 
ENDBRANCH   6   8
BRANCH   1  18
ATOM     15  C   UNL     1       2.482  -2.434   1.183  0.00  0.00    +0.121 A 
ATOM     16  C   UNL     1       2.969  -2.838   2.421  0.00  0.00    +0.046 A 
ATOM     17  C   UNL     1       4.065  -3.659   2.495  0.00  0.00    +0.011 A 
ATOM     18  C   UNL     1       4.694  -4.092   1.318  0.00  0.00    -0.023 A 
ATOM     19  C   UNL     1       4.198  -3.680   0.073  0.00  0.00    +0.011 A 
ATOM     20  C   UNL     1       3.099  -2.863   0.012  0.00  0.00    +0.046 A 
BRANCH  15  21
ATOM     21  O   UNL     1       1.397  -1.621   1.116  0.00  0.00    -0.488 OA
BRANCH  21  22
ATOM     22  C   UNL     1       0.812  -1.217   2.356  0.00  0.00    +0.256 C 
BRANCH  22  24
ATOM     23  C   UNL     1      -1.492  -0.506   2.740  0.00  0.00    +0.007 C 
ATOM     24  C   UNL     1      -0.371  -0.324   2.086  0.00  0.00    +0.006 C 
ENDBRANCH  22  24
ENDBRANCH  21  22
ENDBRANCH  15  21
ENDBRANCH   1  18
TORSDOF 5
