REMARK  Name = ZINC39942311
REMARK  6 active torsions:
REMARK  status: ('A' for Active; 'I' for Inactive)
REMARK    1  A    between atoms: C_4  and  N_7
REMARK    2  A    between atoms: C_13  and  C_15
REMARK    3  A    between atoms: C_15  and  S_16
REMARK    4  A    between atoms: S_16  and  C_17
REMARK    5  A    between atoms: C_21  and  C_26
REMARK    6  A    between atoms: N_22  and  C_23
REMARK                            x       y       z     vdW  Elec       q    Type
REMARK                         _______ _______ _______ _____ _____    ______ ____
ROOT
ATOM      1  C   UNL     1       8.446  -6.128   1.129  0.00  0.00    +0.237 C 
ATOM      2  N   UNL     1       7.546  -6.824   0.194  0.00  0.00    -0.237 N 
ATOM      3  N   UNL     1       6.698  -7.619   0.976  0.00  0.00    -0.169 NA
ATOM      4  C   UNL     1       6.969  -7.492   2.248  0.00  0.00    +0.147 C 
ATOM      5  N   UNL     1       8.028  -6.601   2.459  0.00  0.00    -0.282 N 
ATOM      6  H   UNL     1       7.541  -6.747  -0.773  0.00  0.00    +0.171 HD
ENDROOT
BRANCH   4   7
ATOM      7  C   UNL     1       6.285  -8.165   3.273  0.00  0.00    +0.022 C 
ATOM      8  C   UNL     1       5.301  -9.143   3.130  0.00  0.00    +0.006 A 
ATOM      9  C   UNL     1       4.709  -9.741   1.996  0.00  0.00    +0.010 A 
ATOM     10  C   UNL     1       3.753 -10.691   2.159  0.00  0.00    +0.001 A 
ATOM     11  C   UNL     1       3.334 -11.098   3.427  0.00  0.00    +0.002 A 
ATOM     12  C   UNL     1       3.860 -10.567   4.559  0.00  0.00    +0.026 A 
ATOM     13  C   UNL     1       4.864  -9.569   4.469  0.00  0.00    +0.043 A 
ATOM     14  N   UNL     1       5.523  -8.908   5.401  0.00  0.00    -0.380 N 
ATOM     15  C   UNL     1       6.466  -7.984   4.764  0.00  0.00    +0.152 C 
ATOM     16  H   UNL     1       5.405  -9.019   6.357  0.00  0.00    +0.160 HD
ENDBRANCH   4   7
BRANCH   5  17
ATOM     17  C   UNL     1       8.607  -6.213   3.748  0.00  0.00    +0.078 C 
ATOM     18  C   UNL     1       9.726  -5.170   3.734  0.00  0.00    +0.024 C 
ATOM     19  C   UNL     1      10.050  -6.636   4.030  0.00  0.00    +0.024 C 
ENDBRANCH   5  17
BRANCH   1  20
ATOM     20  S   UNL     1       8.231  -4.332   0.997  0.00  0.00    -0.109 S 
BRANCH  20  21
ATOM     21  C   UNL     1       6.465  -4.076   1.325  0.00  0.00    +0.168 C 
BRANCH  21  28
ATOM     22  N   UNL     1       2.356  -1.505   0.674  0.00  0.00    -0.327 N 
ATOM     23  C   UNL     1       3.430  -0.550   0.367  0.00  0.00    +0.124 C 
ATOM     24  C   UNL     1       4.563  -0.744   1.382  0.00  0.00    +0.126 C 
ATOM     25  N   UNL     1       4.888  -2.175   1.456  0.00  0.00    -0.298 N 
ATOM     26  C   UNL     1       3.813  -3.130   1.764  0.00  0.00    +0.126 C 
ATOM     27  C   UNL     1       2.681  -2.936   0.754  0.00  0.00    +0.124 C 
ATOM     28  C   UNL     1       6.148  -2.605   1.246  0.00  0.00    +0.226 C 
ATOM     29  O   UNL     1       7.026  -1.808   0.993  0.00  0.00    -0.275 OA
BRANCH  22  33
ATOM     30  C   UNL     1      -1.536  -0.177   1.325  0.00  0.00    +0.000 A 
ATOM     31  C   UNL     1      -1.269  -1.533   1.275  0.00  0.00    +0.002 A 
ATOM     32  C   UNL     1       0.021  -1.977   1.059  0.00  0.00    +0.023 A 
ATOM     33  C   UNL     1       1.050  -1.059   0.892  0.00  0.00    +0.030 A 
ATOM     34  C   UNL     1       0.778   0.302   0.943  0.00  0.00    +0.023 A 
ATOM     35  C   UNL     1      -0.514   0.739   1.159  0.00  0.00    +0.002 A 
ENDBRANCH  22  33
ENDBRANCH  21  28
ENDBRANCH  20  21
ENDBRANCH   1  20
TORSDOF 6
