REMARK  Name = ZINC09460204
REMARK  7 active torsions:
REMARK  status: ('A' for Active; 'I' for Inactive)
REMARK    1  A    between atoms: C_1  and  C_2
REMARK    2  A    between atoms: N_11  and  C_15
REMARK    3  A    between atoms: C_15  and  C_16
REMARK    4  A    between atoms: N_18  and  C_19
REMARK    5  A    between atoms: C_19  and  C_20
REMARK    6  A    between atoms: C_20  and  C_22
REMARK    7  A    between atoms: C_20  and  C_29
REMARK                            x       y       z     vdW  Elec       q    Type
REMARK                         _______ _______ _______ _____ _____    ______ ____
ROOT
ATOM      1  C   UNL     1      -2.950   1.351   1.441  0.00  0.00    +0.231 C 
ATOM      2  O   UNL     1      -2.203   1.606   2.362  0.00  0.00    -0.274 OA
ATOM      3  N   UNL     1      -4.200   0.911   1.689  0.00  0.00    -0.313 N 
ATOM      4  H   UNL     1      -4.797   0.707   0.953  0.00  0.00    +0.149 HD
ENDROOT
BRANCH   1   5
ATOM      5  C   UNL     1      -2.482   1.526   0.020  0.00  0.00    +0.213 C 
BRANCH   5  15
ATOM      6  C   UNL     1       1.115   2.130  -2.491  0.00  0.00    +0.010 C 
ATOM      7  C   UNL     1       2.005   1.934  -1.261  0.00  0.00    +0.018 C 
ATOM      8  C   UNL     1       2.582   0.517  -1.270  0.00  0.00    +0.006 C 
ATOM      9  C   UNL     1       3.455   0.315  -0.029  0.00  0.00    +0.000 C 
ATOM     10  C   UNL     1       2.606   0.503   1.230  0.00  0.00    +0.003 C 
ATOM     11  C   UNL     1       2.028   1.921   1.248  0.00  0.00    +0.035 C 
ATOM     12  C   UNL     1       1.176   2.139   0.002  0.00  0.00    +0.115 C 
ATOM     13  C   UNL     1      -0.014   1.208   0.009  0.00  0.00    +0.247 C 
ATOM     14  O   UNL     1       0.002  -0.004   0.002  0.00  0.00    -0.273 OA
ATOM     15  N   UNL     1      -1.099   2.010   0.017  0.00  0.00    -0.215 N 
ATOM     16  C   UNL     1      -0.755   3.304   0.027  0.00  0.00    +0.310 C 
ATOM     17  O   UNL     1      -1.558   4.216   0.039  0.00  0.00    -0.252 OA
ATOM     18  N   UNL     1       0.580   3.481   0.015  0.00  0.00    -0.285 N 
ATOM     19  H   UNL     1       1.053   4.327   0.016  0.00  0.00    +0.151 HD
ENDBRANCH   5  15
ENDBRANCH   1   5
BRANCH   3  20
ATOM     20  C   UNL     1      -4.656   0.741   3.071  0.00  0.00    +0.117 C 
BRANCH  20  21
ATOM     21  C   UNL     1      -6.099   0.235   3.074  0.00  0.00    +0.069 C 
BRANCH  21  22
ATOM     22  C   UNL     1      -6.609   0.177   4.491  0.00  0.00    -0.013 A 
ATOM     23  C   UNL     1      -6.095  -0.550   5.495  0.00  0.00    +0.088 A 
ATOM     24  N   UNL     1      -6.822  -0.348   6.637  0.00  0.00    -0.360 N 
ATOM     25  H   UNL     1      -6.641  -0.766   7.494  0.00  0.00    +0.165 HD
ATOM     26  C   UNL     1      -7.848   0.536   6.388  0.00  0.00    +0.047 A 
ATOM     27  C   UNL     1      -7.756   0.909   5.035  0.00  0.00    +0.003 A 
ATOM     28  C   UNL     1      -8.675   1.812   4.497  0.00  0.00    +0.010 A 
ATOM     29  C   UNL     1      -9.658   2.333   5.290  0.00  0.00    +0.001 A 
ATOM     30  C   UNL     1      -9.751   1.971   6.627  0.00  0.00    +0.002 A 
ATOM     31  C   UNL     1      -8.859   1.076   7.176  0.00  0.00    +0.026 A 
ENDBRANCH  21  22
BRANCH  21  32
ATOM     32  C   UNL     1      -6.150  -1.143   2.465  0.00  0.00    -0.020 A 
ATOM     33  C   UNL     1      -5.428  -2.176   3.033  0.00  0.00    +0.006 A 
ATOM     34  C   UNL     1      -5.477  -3.441   2.478  0.00  0.00    +0.000 A 
ATOM     35  C   UNL     1      -6.241  -3.671   1.348  0.00  0.00    +0.001 A 
ATOM     36  C   UNL     1      -6.959  -2.638   0.777  0.00  0.00    +0.020 A 
ATOM     37  C   UNL     1      -6.914  -1.373   1.335  0.00  0.00    +0.045 A 
ATOM     38 CL   UNL     1      -7.815  -0.074   0.618  0.00  0.00    -0.083 Cl
ENDBRANCH  21  32
ENDBRANCH  20  21
ENDBRANCH   3  20
TORSDOF 6
