REMARK  Name = ZINC01722163
REMARK  5 active torsions:
REMARK  status: ('A' for Active; 'I' for Inactive)
REMARK    1  A    between atoms: C_7  and  C_11
REMARK    2  A    between atoms: C_11  and  C_12
REMARK    3  A    between atoms: N_14  and  N_15
REMARK    4  A    between atoms: C_16  and  C_17
REMARK    5  A    between atoms: C_22  and  N_23
REMARK                            x       y       z     vdW  Elec       q    Type
REMARK                         _______ _______ _______ _____ _____    ______ ____
ROOT
ATOM      1  C   UNL     1      -1.625   2.640   1.460  0.00  0.00    +0.237 C 
ATOM      2  O   UNL     1      -1.020   2.123   2.375  0.00  0.00    -0.274 OA
ATOM      3  N   UNL     1      -2.735   3.364   1.709  0.00  0.00    -0.207 N 
ATOM      4  H   UNL     1      -3.219   3.777   0.977  0.00  0.00    +0.177 HD
ENDROOT
BRANCH   3   5
ATOM      5  N   UNL     1      -3.189   3.518   3.025  0.00  0.00    -0.188 NA
ATOM      6  C   UNL     1      -4.258   4.215   3.265  0.00  0.00    +0.140 C 
BRANCH   6   7
ATOM      7  C   UNL     1      -4.736   4.378   4.650  0.00  0.00    +0.025 A 
ATOM      8  C   UNL     1      -4.115   3.685   5.693  0.00  0.00    +0.013 A 
ATOM      9  C   UNL     1      -4.567   3.842   6.986  0.00  0.00    +0.021 A 
ATOM     10  C   UNL     1      -5.635   4.684   7.252  0.00  0.00    +0.043 A 
ATOM     11  C   UNL     1      -6.255   5.372   6.223  0.00  0.00    +0.053 A 
ATOM     12  C   UNL     1      -5.808   5.229   4.926  0.00  0.00    +0.136 A 
ATOM     13 CL   UNL     1      -6.198   4.876   8.883  0.00  0.00    -0.083 Cl
BRANCH  12  14
ATOM     14  N   UNL     1      -6.468   5.971   3.829  0.00  0.00    +0.057 N 
ATOM     15  O   UNL     1      -7.328   6.796   4.082  0.00  0.00    -0.126 OA
ATOM     16  O   UNL     1      -6.151   5.758   2.672  0.00  0.00    -0.126 OA
ENDBRANCH  12  14
ENDBRANCH   6   7
ENDBRANCH   3   5
BRANCH   1  17
ATOM     17  C   UNL     1      -1.136   2.474   0.044  0.00  0.00    +0.134 C 
BRANCH  17  24
ATOM     18  C   UNL     1      -0.399  -2.155   0.007  0.00  0.00    +0.001 A 
ATOM     19  C   UNL     1       0.949  -2.488   0.002  0.00  0.00    +0.002 A 
ATOM     20  C   UNL     1       1.915  -1.506   0.008  0.00  0.00    +0.026 A 
ATOM     21  C   UNL     1       1.539  -0.167   0.021  0.00  0.00    +0.047 A 
ATOM     22  C   UNL     1       0.172   0.165   0.027  0.00  0.00    +0.003 A 
ATOM     23  C   UNL     1      -0.790  -0.846   0.020  0.00  0.00    +0.010 A 
ATOM     24  C   UNL     1       0.111   1.629   0.040  0.00  0.00    -0.014 A 
ATOM     25  C   UNL     1       1.378   2.074   0.041  0.00  0.00    +0.087 A 
ATOM     26  N   UNL     1       2.245   1.016   0.030  0.00  0.00    -0.360 N 
ATOM     27  H   UNL     1       3.212   1.087   0.028  0.00  0.00    +0.165 HD
ENDBRANCH  17  24
ENDBRANCH   1  17
TORSDOF 5
