REMARK  Name = ZINC65331371
REMARK  9 active torsions:
REMARK  status: ('A' for Active; 'I' for Inactive)
REMARK    1  A    between atoms: C_1  and  C_2
REMARK    2  A    between atoms: C_3  and  N_9
REMARK    3  A    between atoms: C_14  and  C_20
REMARK    4  A    between atoms: C_22  and  O_30
REMARK    5  A    between atoms: C_23  and  O_28
REMARK    6  A    between atoms: C_24  and  O_26
REMARK    7  A    between atoms: O_26  and  C_27
REMARK    8  A    between atoms: O_28  and  C_29
REMARK    9  A    between atoms: O_30  and  C_31
REMARK                            x       y       z     vdW  Elec       q    Type
REMARK                         _______ _______ _______ _____ _____    ______ ____
ROOT
ATOM      1  N   UNL     1      -0.161  -0.119  -2.481  0.00  0.00    -0.218 N 
ATOM      2  C   UNL     1      -0.347  -0.722  -3.673  0.00  0.00    +0.132 A 
ATOM      3  C   UNL     1      -0.381   0.258  -4.631  0.00  0.00    +0.020 A 
ATOM      4  C   UNL     1      -0.207   1.480  -3.999  0.00  0.00    +0.141 A 
ATOM      5  N   UNL     1      -0.081   1.264  -2.710  0.00  0.00    -0.173 NA
ATOM      6  C   UNL     1      -0.581  -0.053  -6.092  0.00  0.00    +0.063 C 
ATOM      7  C   UNL     1      -1.409  -1.337  -6.202  0.00  0.00    +0.109 C 
ATOM      8  C   UNL     1      -0.934  -2.382  -5.234  0.00  0.00    +0.219 C 
ATOM      9  O   UNL     1      -0.951  -3.546  -5.574  0.00  0.00    -0.275 OA
ATOM     10  N   UNL     1      -0.490  -2.070  -3.997  0.00  0.00    -0.270 N 
ATOM     11  H   UNL     1      -0.276  -2.764  -3.353  0.00  0.00    +0.156 HD
ENDROOT
BRANCH   1  14
ATOM     12  C   UNL     1      -1.717   0.901  -0.326  0.00  0.00    +0.047 C 
ATOM     13  C   UNL     1      -0.811  -0.293  -0.159  0.00  0.00    -0.007 A 
ATOM     14  C   UNL     1      -0.069  -0.758  -1.236  0.00  0.00    +0.072 A 
ATOM     15  C   UNL     1       0.763  -1.858  -1.079  0.00  0.00    +0.028 A 
ATOM     16  C   UNL     1       0.852  -2.486   0.148  0.00  0.00    +0.004 A 
ATOM     17  C   UNL     1       0.112  -2.022   1.219  0.00  0.00    +0.020 A 
ATOM     18  C   UNL     1      -0.715  -0.922   1.068  0.00  0.00    +0.046 A 
ATOM     19 CL   UNL     1      -1.637  -0.336   2.417  0.00  0.00    -0.083 Cl
ENDBRANCH   1  14
BRANCH   6  20
ATOM     20  C   UNL     1       0.757  -0.252  -6.756  0.00  0.00    -0.032 A 
ATOM     21  C   UNL     1       1.601  -1.257  -6.320  0.00  0.00    +0.054 A 
ATOM     22  C   UNL     1       2.833  -1.443  -6.929  0.00  0.00    +0.165 A 
ATOM     23  C   UNL     1       3.219  -0.618  -7.979  0.00  0.00    +0.204 A 
ATOM     24  C   UNL     1       2.367   0.390  -8.415  0.00  0.00    +0.165 A 
ATOM     25  C   UNL     1       1.135   0.566  -7.804  0.00  0.00    +0.054 A 
BRANCH  24  26
ATOM     26  O   UNL     1       2.740   1.200  -9.442  0.00  0.00    -0.491 OA
ATOM     27  C   UNL     1       1.815   2.215  -9.837  0.00  0.00    +0.277 C 
ENDBRANCH  24  26
BRANCH  23  28
ATOM     28  O   UNL     1       4.427  -0.797  -8.579  0.00  0.00    -0.488 OA
ATOM     29  C   UNL     1       4.472  -1.690  -9.694  0.00  0.00    +0.277 C 
ENDBRANCH  23  28
BRANCH  22  30
ATOM     30  O   UNL     1       3.663  -2.431  -6.499  0.00  0.00    -0.491 OA
ATOM     31  C   UNL     1       3.201  -3.239  -5.415  0.00  0.00    +0.277 C 
ENDBRANCH  22  30
ENDBRANCH   6  20
TORSDOF 5
