REMARK  Name = ZINC43227055
REMARK  9 active torsions:
REMARK  status: ('A' for Active; 'I' for Inactive)
REMARK    1  A    between atoms: C_1  and  C_2
REMARK    2  A    between atoms: C_2  and  C_3
REMARK    3  A    between atoms: C_2  and  C_4
REMARK    4  A    between atoms: C_14  and  C_35
REMARK    5  A    between atoms: C_18  and  C_19
REMARK    6  A    between atoms: C_18  and  C_20
REMARK    7  A    between atoms: C_20  and  N_21
REMARK    8  A    between atoms: C_22  and  C_24
REMARK    9  A    between atoms: C_27  and  C_29
REMARK                            x       y       z     vdW  Elec       q    Type
REMARK                         _______ _______ _______ _____ _____    ______ ____
ROOT
ATOM      1  C   UNL     1       0.356  -0.230   1.204  0.00  0.00    -0.045 A 
ATOM      2  C   UNL     1       1.668   0.141   1.434  0.00  0.00    +0.004 A 
ATOM      3  C   UNL     1       2.317  -0.310   2.565  0.00  0.00    +0.005 A 
ATOM      4  C   UNL     1       1.662  -1.129   3.474  0.00  0.00    -0.038 A 
ATOM      5  C   UNL     1       0.354  -1.494   3.250  0.00  0.00    -0.043 A 
ATOM      6  C   UNL     1      -0.298  -1.039   2.110  0.00  0.00    +0.007 A 
ATOM      7  C   UNL     1      -0.427  -2.363   4.201  0.00  0.00    +0.036 C 
ATOM      8  C   UNL     1       0.509  -3.083   5.171  0.00  0.00    +0.009 C 
ATOM      9  C   UNL     1       1.465  -2.050   5.769  0.00  0.00    +0.007 C 
ATOM     10  C   UNL     1       2.435  -1.595   4.684  0.00  0.00    -0.003 C 
ATOM     11  C   UNL     1       3.335  -2.761   4.264  0.00  0.00    +0.011 C 
ATOM     12  C   UNL     1       4.096  -3.295   5.478  0.00  0.00    +0.001 C 
ATOM     13  C   UNL     1       3.092  -3.799   6.518  0.00  0.00    +0.008 C 
ATOM     14  C   UNL     1       2.220  -2.638   6.954  0.00  0.00    -0.013 C 
ATOM     15  C   UNL     1       1.219  -3.147   7.992  0.00  0.00    +0.013 C 
ATOM     16  C   UNL     1       3.295  -0.447   5.216  0.00  0.00    +0.016 C 
ENDROOT
BRANCH   1  18
ATOM     17  C   UNL     1      -0.399   1.784  -0.030  0.00  0.00    +0.012 C 
ATOM     18  C   UNL     1      -0.361   0.255  -0.030  0.00  0.00    +0.013 C 
ATOM     19  C   UNL     1       0.379  -0.237  -1.275  0.00  0.00    +0.012 C 
ENDBRANCH   1  18
BRANCH  14  20
ATOM     20  C   UNL     1       3.094  -1.553   7.587  0.00  0.00    +0.111 C 
BRANCH  20  21
ATOM     21  N   UNL     1       3.689  -2.065   8.824  0.00  0.00    -0.310 N 
ATOM     22  C   UNL     1       4.503  -1.278   9.556  0.00  0.00    +0.263 C 
ATOM     23  O   UNL     1       4.742  -0.143   9.190  0.00  0.00    -0.269 OA
ATOM     24  H   UNL     1       3.498  -2.970   9.115  0.00  0.00    +0.149 HD
BRANCH  22  25
ATOM     25  C   UNL     1       5.101  -1.793  10.800  0.00  0.00    +0.133 A 
ATOM     26  C   UNL     1       5.928  -1.027  11.577  0.00  0.00    +0.079 A 
ATOM     27  S   UNL     1       6.314  -2.073  12.834  0.00  0.00    -0.081 S 
ATOM     28  C   UNL     1       5.436  -3.418  12.347  0.00  0.00    +0.065 A 
ATOM     29  N   UNL     1       4.864  -3.033  11.238  0.00  0.00    -0.241 NA
BRANCH  28  30
ATOM     30  C   UNL     1       5.327  -4.756  13.032  0.00  0.00    -0.015 C 
ATOM     31  C   UNL     1       4.445  -4.630  14.292  0.00  0.00    -0.011 C 
ATOM     32  C   UNL     1       5.158  -5.555  15.312  0.00  0.00    -0.020 C 
ATOM     33  C   UNL     1       6.647  -5.332  14.949  0.00  0.00    -0.082 C 
ATOM     34  N   UNL     1       6.662  -5.203  13.473  0.00  0.00    +0.385 N 
ATOM     35  H   UNL     1       6.876  -6.096  13.053  0.00  0.00    -0.085 HD
ATOM     36  H   UNL     1       7.355  -4.524  13.197  0.00  0.00    -0.085 HD
ENDBRANCH  28  30
ENDBRANCH  22  25
ENDBRANCH  20  21
ENDBRANCH  14  20
TORSDOF 5
