REMARK  Name = ZINC33033428
REMARK  9 active torsions:
REMARK  status: ('A' for Active; 'I' for Inactive)
REMARK    1  A    between atoms: C_1  and  C_2
REMARK    2  A    between atoms: C_2  and  C_3
REMARK    3  A    between atoms: C_2  and  C_4
REMARK    4  A    between atoms: C_4  and  C_5
REMARK    5  A    between atoms: C_8  and  S_11
REMARK    6  A    between atoms: S_11  and  N_14
REMARK    7  A    between atoms: N_14  and  C_15
REMARK    8  A    between atoms: C_17  and  C_27
REMARK    9  A    between atoms: C_20  and  N_21
REMARK                            x       y       z     vdW  Elec       q    Type
REMARK                         _______ _______ _______ _____ _____    ______ ____
ROOT
ATOM      1  C   UNL     1      -1.509   7.324   4.054  0.00  0.00    +0.070 A 
ATOM      2  C   UNL     1      -0.156   7.575   4.182  0.00  0.00    +0.039 A 
ATOM      3  C   UNL     1       0.342   8.117   5.370  0.00  0.00    +0.039 A 
ATOM      4  C   UNL     1      -0.529   8.404   6.424  0.00  0.00    +0.015 A 
ATOM      5  C   UNL     1      -1.877   8.153   6.293  0.00  0.00    +0.026 A 
ATOM      6  C   UNL     1      -2.376   7.618   5.110  0.00  0.00    +0.052 A 
ENDROOT
BRANCH   3   7
ATOM      7  C   UNL     1       1.786   8.388   5.511  0.00  0.00    +0.247 C 
ATOM      8  O   UNL     1       2.460   8.617   4.526  0.00  0.00    -0.270 OA
ATOM      9  N   UNL     1       2.357   8.381   6.732  0.00  0.00    -0.298 N 
ATOM     10  C   UNL     1       1.503   8.296   7.896  0.00  0.00    +0.108 C 
ATOM     11  C   UNL     1       1.095   9.713   8.352  0.00  0.00    +0.019 C 
ATOM     12  C   UNL     1       2.247  10.409   8.945  0.00  0.00    +0.002 C 
ATOM     13  C   UNL     1       3.406  10.641   7.980  0.00  0.00    +0.002 C 
ATOM     14  C   UNL     1       4.283   9.414   7.950  0.00  0.00    +0.019 C 
ATOM     15  C   UNL     1       3.827   8.466   6.826  0.00  0.00    +0.108 C 
ENDBRANCH   3   7
BRANCH   6  16
ATOM     16  N   UNL     1      -3.741   7.371   4.980  0.00  0.00    -0.332 N 
ATOM     17  C   UNL     1      -4.422   7.477   6.277  0.00  0.00    +0.086 C 
ATOM     18  C   UNL     1      -5.900   7.121   6.105  0.00  0.00    -0.063 C 
ATOM     19  N   UNL     1      -6.508   8.027   5.120  0.00  0.00    +0.381 N 
ATOM     20  C   UNL     1      -5.826   7.921   3.822  0.00  0.00    -0.063 C 
ATOM     21  C   UNL     1      -4.348   8.277   3.994  0.00  0.00    +0.086 C 
ATOM     22  H   UNL     1      -7.567   7.765   4.985  0.00  0.00    -0.086 HD
ATOM     23  H   UNL     1      -6.429   9.064   5.477  0.00  0.00    -0.086 HD
ENDBRANCH   6  16
BRANCH   1  24
ATOM     24  N   UNL     1      -2.011   6.780   2.866  0.00  0.00    -0.214 N 
ATOM     25  H   UNL     1      -2.679   7.377   2.227  0.00  0.00    +0.174 HD
BRANCH  24  26
ATOM     26  S   UNL     1      -1.601   5.238   2.422  0.00  0.00    +0.072 S 
ATOM     27  O   UNL     1      -0.183   5.163   2.479  0.00  0.00    -0.150 OA
ATOM     28  O   UNL     1      -2.332   4.948   1.239  0.00  0.00    -0.150 OA
BRANCH  26  32
ATOM     29  C   UNL     1      -3.172   2.456   5.629  0.00  0.00    -0.047 A 
ATOM     30  C   UNL     1      -1.901   2.989   5.738  0.00  0.00    +0.005 A 
ATOM     31  C   UNL     1      -1.419   3.835   4.756  0.00  0.00    +0.029 A 
ATOM     32  C   UNL     1      -2.213   4.156   3.671  0.00  0.00    +0.109 A 
ATOM     33  C   UNL     1      -3.486   3.628   3.565  0.00  0.00    +0.029 A 
ATOM     34  C   UNL     1      -3.966   2.778   4.544  0.00  0.00    +0.005 A 
BRANCH  29  35
ATOM     35  C   UNL     1      -3.695   1.530   6.696  0.00  0.00    +0.038 C 
BRANCH  35  37
ATOM     36  C   UNL     1      -3.980  -0.864   7.352  0.00  0.00    +0.007 C 
ATOM     37  C   UNL     1      -3.343   0.085   6.335  0.00  0.00    -0.013 C 
ATOM     38  C   UNL     1      -1.823  -0.090   6.356  0.00  0.00    +0.007 C 
ENDBRANCH  35  37
ENDBRANCH  29  35
ENDBRANCH  26  32
ENDBRANCH  24  26
ENDBRANCH   1  24
TORSDOF 7
