REMARK  Name = ZINC39890557
REMARK  7 active torsions:
REMARK  status: ('A' for Active; 'I' for Inactive)
REMARK    1  A    between atoms: C_1  and  C_2
REMARK    2  A    between atoms: N_15  and  C_34
REMARK    3  A    between atoms: N_23  and  C_26
REMARK    4  A    between atoms: C_26  and  C_27
REMARK    5  A    between atoms: C_34  and  C_35
REMARK    6  A    between atoms: C_35  and  C_36
REMARK    7  A    between atoms: C_36  and  O_37
REMARK                            x       y       z     vdW  Elec       q    Type
REMARK                         _______ _______ _______ _____ _____    ______ ____
ROOT
ATOM      1  C   UNL     1      -0.018   1.503   0.010  0.00  0.00    +0.044 C 
ATOM      2  C   UNL     1       0.002  -0.004   0.002  0.00  0.00    -0.050 A 
ATOM      3  C   UNL     1       0.006  -0.689  -1.205  0.00  0.00    +0.007 A 
ATOM      4  C   UNL     1       0.021  -2.065  -1.235  0.00  0.00    +0.047 A 
ATOM      5  C   UNL     1       0.034  -2.790  -0.043  0.00  0.00    +0.139 A 
ATOM      6  C   UNL     1       0.036  -2.086   1.172  0.00  0.00    +0.065 A 
ATOM      7  C   UNL     1       0.023  -0.692   1.183  0.00  0.00    +0.018 A 
ATOM      8  C   UNL     1       0.066  -2.849   2.446  0.00  0.00    +0.199 A 
ATOM      9  O   UNL     1      -0.097  -2.331   3.537  0.00  0.00    -0.287 OA
ATOM     10  C   UNL     1       0.310  -4.284   2.267  0.00  0.00    +0.084 A 
ATOM     11  C   UNL     1       0.288  -4.851   1.023  0.00  0.00    +0.200 A 
ATOM     12  O   UNL     1       0.041  -4.141  -0.095  0.00  0.00    -0.450 OA
ATOM     13  C   UNL     1       0.572  -6.290   1.165  0.00  0.00    +0.284 C 
ATOM     14  O   UNL     1       0.629  -7.083   0.246  0.00  0.00    -0.267 OA
ATOM     15  N   UNL     1       0.758  -6.599   2.466  0.00  0.00    -0.273 N 
ATOM     16  C   UNL     1       0.607  -5.365   3.246  0.00  0.00    +0.174 C 
ATOM     17  C   UNL     1      -0.453  -5.506   4.290  0.00  0.00    +0.011 A 
ATOM     18  C   UNL     1      -1.804  -5.765   4.195  0.00  0.00    +0.008 A 
ATOM     19  C   UNL     1      -2.518  -5.835   5.386  0.00  0.00    +0.000 A 
ATOM     20  C   UNL     1      -1.901  -5.653   6.607  0.00  0.00    +0.002 A 
ATOM     21  C   UNL     1      -0.544  -5.391   6.711  0.00  0.00    +0.024 A 
ATOM     22  C   UNL     1       0.185  -5.317   5.523  0.00  0.00    +0.043 A 
ATOM     23  N   UNL     1       1.534  -5.071   5.333  0.00  0.00    -0.264 N 
ATOM     24  C   UNL     1       1.871  -5.078   4.026  0.00  0.00    +0.253 C 
ATOM     25  O   UNL     1       2.977  -4.891   3.565  0.00  0.00    -0.272 OA
ENDROOT
BRANCH  23  26
ATOM     26  C   UNL     1       2.483  -4.830   6.423  0.00  0.00    +0.148 C 
BRANCH  26  27
ATOM     27  C   UNL     1       3.074  -6.142   6.872  0.00  0.00    -0.030 A 
ATOM     28  C   UNL     1       2.458  -6.870   7.872  0.00  0.00    +0.006 A 
ATOM     29  C   UNL     1       3.000  -8.073   8.285  0.00  0.00    +0.020 A 
ATOM     30  C   UNL     1       4.159  -8.548   7.697  0.00  0.00    +0.041 A 
ATOM     31  C   UNL     1       4.775  -7.818   6.696  0.00  0.00    +0.020 A 
ATOM     32  C   UNL     1       4.229  -6.618   6.280  0.00  0.00    +0.006 A 
ATOM     33 CL   UNL     1       4.840 -10.058   8.215  0.00  0.00    -0.084 Cl
ENDBRANCH  26  27
ENDBRANCH  23  26
BRANCH  15  34
ATOM     34  C   UNL     1       1.058  -7.929   3.003  0.00  0.00    +0.112 C 
BRANCH  34  35
ATOM     35  C   UNL     1       2.574  -8.130   3.051  0.00  0.00    +0.047 C 
BRANCH  35  36
ATOM     36  C   UNL     1       2.887  -9.518   3.612  0.00  0.00    +0.157 C 
BRANCH  36  37
ATOM     37  O   UNL     1       4.303  -9.706   3.657  0.00  0.00    -0.395 OA
ATOM     38  H   UNL     1       4.574 -10.567   4.003  0.00  0.00    +0.209 HD
ENDBRANCH  36  37
ENDBRANCH  35  36
ENDBRANCH  34  35
ENDBRANCH  15  34
TORSDOF 6
