REMARK  Name = ZINC08762535
REMARK  15 active torsions:
REMARK  status: ('A' for Active; 'I' for Inactive)
REMARK    1  A    between atoms: C_1  and  C_2
REMARK    2  A    between atoms: N_6  and  O_7
REMARK    3  A    between atoms: O_7  and  C_8
REMARK    4  A    between atoms: C_8  and  C_9
REMARK    5  A    between atoms: N_11  and  C_12
REMARK    6  A    between atoms: C_12  and  C_14
REMARK    7  A    between atoms: C_12  and  C_19
REMARK    8  A    between atoms: C_14  and  C_15
REMARK    9  A    between atoms: C_15  and  C_16
REMARK   10  A    between atoms: C_16  and  C_17
REMARK   11  A    between atoms: C_19  and  O_21
REMARK   12  A    between atoms: O_21  and  C_22
REMARK   13  A    between atoms: C_33  and  C_42
REMARK   14  A    between atoms: C_38  and  C_39
REMARK   15  A    between atoms: C_38  and  O_41
REMARK                            x       y       z     vdW  Elec       q    Type
REMARK                         _______ _______ _______ _____ _____    ______ ____
ROOT
ATOM      1  C   UNL     1       0.188   0.529  -2.085  0.00  0.00    +0.016 C 
ATOM      2  C   UNL     1      -0.596   0.536  -3.399  0.00  0.00    -0.007 C 
ATOM      3  C   UNL     1      -1.874  -0.179  -3.097  0.00  0.00    +0.017 C 
ATOM      4  C   UNL     1      -2.424  -0.918  -4.316  0.00  0.00    +0.059 C 
ATOM      5  C   UNL     1      -1.330  -1.839  -4.825  0.00  0.00    +0.080 C 
ATOM      6  N   UNL     1      -1.535  -3.102  -5.026  0.00  0.00    -0.089 NA
ATOM      7  C   UNL     1      -0.019  -1.208  -5.077  0.00  0.00    +0.026 C 
ATOM      8  C   UNL     1       0.299  -0.103  -4.417  0.00  0.00    -0.062 C 
ATOM      9  C   UNL     1       1.630   0.569  -4.710  0.00  0.00    +0.031 C 
ATOM     10  C   UNL     1       1.339   2.033  -5.062  0.00  0.00    +0.008 C 
ATOM     11  C   UNL     1       0.543   2.696  -3.937  0.00  0.00    -0.003 C 
ATOM     12  C   UNL     1      -0.811   2.006  -3.764  0.00  0.00    +0.002 C 
ATOM     13  C   UNL     1      -1.564   2.695  -2.620  0.00  0.00    +0.005 C 
ATOM     14  C   UNL     1      -1.830   4.146  -3.009  0.00  0.00    +0.011 C 
ATOM     15  C   UNL     1      -0.512   4.902  -3.201  0.00  0.00    +0.011 C 
ATOM     16  C   UNL     1       0.386   4.172  -4.213  0.00  0.00    +0.002 C 
ATOM     17  C   UNL     1      -0.297   4.450  -5.565  0.00  0.00    +0.008 C 
ATOM     18  C   UNL     1      -0.753   5.923  -5.442  0.00  0.00    +0.049 C 
ATOM     19  C   UNL     1      -0.863   6.224  -3.936  0.00  0.00    +0.132 C 
ATOM     20  C   UNL     1       0.205   5.144  -1.871  0.00  0.00    +0.015 C 
ENDROOT
BRANCH  19  21
ATOM     21  C   UNL     1       0.089   7.281  -3.560  0.00  0.00    -0.070 C 
ATOM     22  C   UNL     1       0.849   8.124  -3.260  0.00  0.00    +0.007 C 
ENDBRANCH  19  21
BRANCH  19  23
ATOM     23  O   UNL     1      -2.196   6.627  -3.612  0.00  0.00    -0.376 OA
ATOM     24  H   UNL     1      -2.483   7.433  -4.061  0.00  0.00    +0.211 HD
ENDBRANCH  19  23
BRANCH   6  25
ATOM     25  O   UNL     1      -0.483  -3.922  -5.502  0.00  0.00    -0.384 OA
BRANCH  25  26
ATOM     26  C   UNL     1      -0.849  -5.293  -5.679  0.00  0.00    +0.358 C 
BRANCH  26  27
ATOM     27  C   UNL     1       0.339  -6.069  -6.186  0.00  0.00    +0.254 C 
ATOM     28  O   UNL     1       1.395  -5.504  -6.377  0.00  0.00    -0.272 OA
ATOM     29  N   UNL     1       0.228  -7.390  -6.426  0.00  0.00    -0.299 N 
ATOM     30  H   UNL     1      -0.617  -7.842  -6.273  0.00  0.00    +0.150 HD
BRANCH  29  31
ATOM     31  C   UNL     1       1.383  -8.144  -6.919  0.00  0.00    +0.182 C 
BRANCH  31  32
ATOM     32  C   UNL     1       2.236  -8.575  -5.754  0.00  0.00    +0.327 C 
ATOM     33  O   UNL     1       1.912  -8.282  -4.627  0.00  0.00    -0.249 OA
BRANCH  32  34
ATOM     34  O   UNL     1       3.355  -9.284  -5.967  0.00  0.00    -0.467 OA
ATOM     35  C   UNL     1       4.128  -9.665  -4.798  0.00  0.00    +0.280 C 
ENDBRANCH  32  34
ENDBRANCH  31  32
BRANCH  31  36
ATOM     36  C   UNL     1       0.898  -9.380  -7.681  0.00  0.00    +0.034 C 
BRANCH  36  37
ATOM     37  C   UNL     1       0.137  -8.941  -8.933  0.00  0.00    +0.010 C 
BRANCH  37  38
ATOM     38  C   UNL     1      -0.348 -10.176  -9.694  0.00  0.00    +0.068 C 
BRANCH  38  39
ATOM     39  C   UNL     1      -1.097  -9.744 -10.928  0.00  0.00    +0.063 C 
ATOM     40  N   UNL     1      -1.628 -10.684 -11.772  0.00  0.00    -0.348 N 
ATOM     41  H   UNL     1      -1.705  -8.108 -11.960  0.00  0.00    +0.157 HD
ATOM     42  H   UNL     1      -1.521 -11.627 -11.575  0.00  0.00    +0.143 HD
ATOM     43  H   UNL     1      -2.111 -10.405 -12.566  0.00  0.00    +0.143 HD
ATOM     44  N   UNL     1      -1.207  -8.450 -11.139  0.00  0.00    -0.391 N 
ATOM     45  H   UNL     1      -0.791  -7.786 -10.476  0.00  0.00    +0.157 HD
ENDBRANCH  38  39
ENDBRANCH  37  38
ENDBRANCH  36  37
ENDBRANCH  31  36
ENDBRANCH  29  31
ENDBRANCH  26  27
ENDBRANCH  25  26
ENDBRANCH   6  25
TORSDOF 12
