REMARK  Name = ZINC59047048
REMARK  10 active torsions:
REMARK  status: ('A' for Active; 'I' for Inactive)
REMARK    1  A    between atoms: C_4  and  C_7
REMARK    2  A    between atoms: C_7  and  C_8
REMARK    3  A    between atoms: C_8  and  C_9
REMARK    4  A    between atoms: C_12  and  S_15
REMARK    5  A    between atoms: N_13  and  N_14
REMARK    6  A    between atoms: S_15  and  C_16
REMARK    7  A    between atoms: C_16  and  C_17
REMARK    8  A    between atoms: C_23  and  S_25
REMARK    9  A    between atoms: S_25  and  C_26
REMARK   10  A    between atoms: C_26  and  C_27
REMARK                            x       y       z     vdW  Elec       q    Type
REMARK                         _______ _______ _______ _____ _____    ______ ____
ROOT
ATOM      1  C   UNL     1       9.921  -3.792   1.323  0.00  0.00    +0.173 C 
ENDROOT
BRANCH   1   2
ATOM      2  C   UNL     1      11.427  -3.840   1.310  0.00  0.00    +0.229 C 
ATOM      3  O   UNL     1      12.066  -2.809   1.315  0.00  0.00    -0.275 OA
ATOM      4  N   UNL     1      12.064  -5.027   1.292  0.00  0.00    -0.263 N 
ATOM      5  C   UNL     1      13.456  -5.071   1.280  0.00  0.00    +0.189 A 
ATOM      6  N   UNL     1      14.337  -4.085   1.288  0.00  0.00    -0.125 NA
ATOM      7  N   UNL     1      15.580  -4.299   1.275  0.00  0.00    -0.133 NA
ATOM      8  C   UNL     1      16.079  -5.527   1.252  0.00  0.00    +0.160 A 
ATOM      9  S   UNL     1      14.562  -6.478   1.257  0.00  0.00    -0.024 S 
ATOM     10  H   UNL     1      11.552  -5.852   1.288  0.00  0.00    +0.157 HD
BRANCH   8  11
ATOM     11  S   UNL     1      17.756  -6.067   1.229  0.00  0.00    -0.092 S 
BRANCH  11  12
ATOM     12  C   UNL     1      18.714  -4.527   1.246  0.00  0.00    +0.113 C 
BRANCH  12  13
ATOM     13  C   UNL     1      20.186  -4.851   1.228  0.00  0.00    -0.019 A 
ATOM     14  C   UNL     1      20.870  -5.024   2.417  0.00  0.00    +0.006 A 
ATOM     15  C   UNL     1      22.220  -5.321   2.401  0.00  0.00    +0.000 A 
ATOM     16  C   UNL     1      22.887  -5.445   1.196  0.00  0.00    +0.001 A 
ATOM     17  C   UNL     1      22.204  -5.272   0.007  0.00  0.00    +0.020 A 
ATOM     18  C   UNL     1      20.851  -4.981   0.022  0.00  0.00    +0.045 A 
ATOM     19 CL   UNL     1      19.991  -4.770  -1.471  0.00  0.00    -0.083 Cl
ENDBRANCH  12  13
ENDBRANCH  11  12
ENDBRANCH   8  11
ENDBRANCH   1   2
BRANCH   1  20
ATOM     20  S   UNL     1       9.370  -2.064   1.345  0.00  0.00    -0.075 S 
BRANCH  20  24
ATOM     21  C   UNL     1       5.487  -1.699   1.381  0.00  0.00    +0.151 A 
ATOM     22  N   UNL     1       5.648  -2.992   1.368  0.00  0.00    -0.132 NA
ATOM     23  N   UNL     1       6.900  -3.280   1.354  0.00  0.00    -0.121 NA
ATOM     24  C   UNL     1       7.612  -2.177   1.359  0.00  0.00    +0.209 A 
ATOM     25  N   UNL     1       6.731  -1.133   1.371  0.00  0.00    -0.228 N 
BRANCH  25  26
ATOM     26  N   UNL     1       7.032   0.199   1.375  0.00  0.00    -0.295 N 
ATOM     27  H   UNL     1       7.122   0.547   2.318  0.00  0.00    +0.163 HD
ATOM     28  H   UNL     1       7.868   0.383   0.841  0.00  0.00    +0.163 HD
ENDBRANCH  25  26
BRANCH  21  29
ATOM     29  C   UNL     1       4.171  -0.963   1.399  0.00  0.00    +0.082 C 
BRANCH  29  30
ATOM     30  C   UNL     1       3.711  -0.707  -0.038  0.00  0.00    +0.043 C 
BRANCH  30  34
ATOM     31  C   UNL     1      -0.017   1.378   0.010  0.00  0.00    +0.000 A 
ATOM     32  C   UNL     1       1.171   2.086   0.002  0.00  0.00    +0.000 A 
ATOM     33  C   UNL     1       2.377   1.411  -0.013  0.00  0.00    +0.003 A 
ATOM     34  C   UNL     1       2.396   0.029  -0.020  0.00  0.00    -0.047 A 
ATOM     35  C   UNL     1       1.208  -0.679  -0.012  0.00  0.00    +0.003 A 
ATOM     36  C   UNL     1       0.002  -0.004   0.002  0.00  0.00    +0.000 A 
ENDBRANCH  30  34
ENDBRANCH  29  30
ENDBRANCH  21  29
ENDBRANCH  20  24
ENDBRANCH   1  20
TORSDOF 10
