REMARK  Name = ZINC36365224
REMARK  4 active torsions:
REMARK  status: ('A' for Active; 'I' for Inactive)
REMARK    1  A    between atoms: C_7  and  C_25
REMARK    2  A    between atoms: N_15  and  C_18
REMARK    3  A    between atoms: N_27  and  C_28
REMARK    4  A    between atoms: C_33  and  O_34
REMARK                            x       y       z     vdW  Elec       q    Type
REMARK                         _______ _______ _______ _____ _____    ______ ____
ROOT
ATOM      1  C   UNL     1      -0.651   1.137  -0.117  0.00  0.00    +0.000 A 
ATOM      2  C   UNL     1       0.406   2.013  -0.295  0.00  0.00    +0.001 A 
ATOM      3  C   UNL     1       1.701   1.536  -0.338  0.00  0.00    +0.013 A 
ATOM      4  C   UNL     1       1.938   0.171  -0.198  0.00  0.00    +0.041 A 
ATOM      5  C   UNL     1       0.867  -0.711  -0.037  0.00  0.00    -0.021 A 
ATOM      6  C   UNL     1      -0.421  -0.222   0.010  0.00  0.00    +0.005 A 
ATOM      7  C   UNL     1       1.133  -2.189   0.059  0.00  0.00    +0.130 C 
ATOM      8  C   UNL     1       2.465  -2.441   0.765  0.00  0.00    +0.058 C 
ATOM      9  C   UNL     1       2.821  -3.927   0.654  0.00  0.00    +0.027 C 
ATOM     10  C   UNL     1       4.152  -4.184   1.364  0.00  0.00    +0.002 C 
ATOM     11  C   UNL     1       4.025  -3.804   2.840  0.00  0.00    +0.000 C 
ATOM     12  C   UNL     1       3.662  -2.321   2.955  0.00  0.00    +0.002 C 
ATOM     13  C   UNL     1       2.333  -2.064   2.243  0.00  0.00    +0.027 C 
ATOM     14  N   UNL     1       3.530  -1.643   0.156  0.00  0.00    -0.258 N 
ATOM     15  C   UNL     1       3.312  -0.373  -0.232  0.00  0.00    +0.252 C 
ATOM     16  O   UNL     1       4.237   0.321  -0.608  0.00  0.00    -0.270 OA
ENDROOT
BRANCH  14  17
ATOM     17  C   UNL     1       4.796  -2.210  -0.025  0.00  0.00    +0.072 A 
ATOM     18  C   UNL     1       4.986  -3.198  -0.981  0.00  0.00    +0.026 A 
ATOM     19  C   UNL     1       6.237  -3.756  -1.158  0.00  0.00    +0.002 A 
ATOM     20  C   UNL     1       7.301  -3.333  -0.383  0.00  0.00    +0.003 A 
ATOM     21  C   UNL     1       7.118  -2.350   0.572  0.00  0.00    +0.040 A 
ATOM     22  C   UNL     1       5.869  -1.782   0.750  0.00  0.00    +0.145 A 
ATOM     23  F   UNL     1       5.691  -0.817   1.678  0.00  0.00    -0.204 F 
ENDBRANCH  14  17
BRANCH   7  24
ATOM     24  C   UNL     1       1.186  -2.779  -1.327  0.00  0.00    +0.227 C 
ATOM     25  O   UNL     1       1.563  -2.102  -2.260  0.00  0.00    -0.275 OA
ATOM     26  N   UNL     1       0.814  -4.058  -1.530  0.00  0.00    -0.282 N 
ATOM     27  H   UNL     1       0.468  -4.585  -0.793  0.00  0.00    +0.155 HD
BRANCH  26  28
ATOM     28  C   UNL     1       0.927  -4.627  -2.806  0.00  0.00    +0.075 A 
ATOM     29  C   UNL     1       0.781  -3.835  -3.935  0.00  0.00    +0.027 A 
ATOM     30  C   UNL     1       0.893  -4.397  -5.192  0.00  0.00    +0.002 A 
ATOM     31  C   UNL     1       1.150  -5.749  -5.328  0.00  0.00    +0.004 A 
ATOM     32  C   UNL     1       1.297  -6.545  -4.207  0.00  0.00    +0.047 A 
ATOM     33  C   UNL     1       1.192  -5.987  -2.943  0.00  0.00    +0.138 A 
BRANCH  33  34
ATOM     34  O   UNL     1       1.341  -6.767  -1.839  0.00  0.00    -0.505 OA
ATOM     35  H   UNL     1       0.518  -7.162  -1.522  0.00  0.00    +0.292 HD
ENDBRANCH  33  34
ENDBRANCH  26  28
ENDBRANCH   7  24
TORSDOF 4
