REMARK  Name = ZINC30265833
REMARK  8 active torsions:
REMARK  status: ('A' for Active; 'I' for Inactive)
REMARK    1  A    between atoms: C_1  and  C_2
REMARK    2  A    between atoms: C_2  and  C_4
REMARK    3  A    between atoms: C_2  and  N_18
REMARK    4  A    between atoms: N_6  and  C_7
REMARK    5  A    between atoms: C_8  and  C_15
REMARK    6  A    between atoms: C_24  and  C_26
REMARK    7  A    between atoms: C_31  and  O_32
REMARK    8  A    between atoms: O_32  and  C_33
REMARK                            x       y       z     vdW  Elec       q    Type
REMARK                         _______ _______ _______ _____ _____    ______ ____
ROOT
ATOM      1  C   UNL     1      -6.436  -3.926   1.020  0.00  0.00    -0.004 C 
ATOM      2  C   UNL     1      -6.973  -2.624   1.619  0.00  0.00    +0.017 C 
ENDROOT
BRANCH   2   3
ATOM      3  N   UNL     1      -6.063  -1.520   1.285  0.00  0.00    +0.389 N 
ATOM      4  C   UNL     1      -6.513  -0.264   1.899  0.00  0.00    -0.058 C 
ATOM      5  C   UNL     1      -5.648   0.892   1.383  0.00  0.00    +0.089 C 
ATOM      6  N   UNL     1      -4.235   0.557   1.614  0.00  0.00    -0.301 N 
ATOM      7  C   UNL     1      -3.742  -0.746   1.142  0.00  0.00    +0.089 C 
ATOM      8  C   UNL     1      -4.683  -1.839   1.673  0.00  0.00    -0.058 C 
ATOM      9  C   UNL     1      -3.412   1.423   2.238  0.00  0.00    +0.250 C 
ATOM     10  O   UNL     1      -3.853   2.462   2.690  0.00  0.00    -0.270 OA
ATOM     11  H   UNL     1      -6.081  -1.384   0.194  0.00  0.00    -0.081 HD
BRANCH   9  12
ATOM     12  C   UNL     1      -1.976   1.111   2.371  0.00  0.00    +0.079 A 
ATOM     13  C   UNL     1      -1.308   0.430   1.351  0.00  0.00    +0.017 A 
ATOM     14  C   UNL     1       0.033   0.142   1.482  0.00  0.00    +0.001 A 
ATOM     15  C   UNL     1       0.723   0.525   2.621  0.00  0.00    +0.004 A 
ATOM     16  C   UNL     1       0.076   1.204   3.634  0.00  0.00    +0.046 A 
ATOM     17  C   UNL     1      -1.275   1.497   3.522  0.00  0.00    +0.139 A 
BRANCH  17  18
ATOM     18  O   UNL     1      -1.914   2.159   4.519  0.00  0.00    -0.433 OA
BRANCH  18  19
ATOM     19  C   UNL     1      -1.134   2.521   5.661  0.00  0.00    +0.541 C 
ATOM     20  F   UNL     1      -0.610   1.366   6.252  0.00  0.00    -0.166 F 
ATOM     21  F   UNL     1      -0.086   3.358   5.264  0.00  0.00    -0.166 F 
ENDBRANCH  18  19
ENDBRANCH  17  18
ENDBRANCH   9  12
ENDBRANCH   2   3
BRANCH   2  22
ATOM     22  C   UNL     1      -8.340  -2.337   1.055  0.00  0.00    +0.204 C 
ATOM     23  O   UNL     1      -8.455  -1.638   0.071  0.00  0.00    -0.277 OA
ATOM     24  N   UNL     1      -9.435  -2.858   1.643  0.00  0.00    -0.281 N 
ATOM     25  H   UNL     1      -9.330  -3.493   2.536  0.00  0.00    +0.155 HD
BRANCH  24  26
ATOM     26  C   UNL     1     -10.693  -2.595   1.124  0.00  0.00    +0.084 A 
ATOM     27  C   UNL     1     -11.922  -3.038   1.580  0.00  0.00    +0.068 A 
ATOM     28  C   UNL     1     -13.113  -2.608   0.847  0.00  0.00    -0.023 A 
ATOM     29  C   UNL     1     -12.874  -1.819  -0.216  0.00  0.00    -0.004 A 
ATOM     30  S   UNL     1     -11.108  -1.636  -0.256  0.00  0.00    -0.077 S 
ATOM     31  C   UNL     1     -14.143  -1.421  -0.919  0.00  0.00    +0.043 C 
ATOM     32  C   UNL     1     -15.263  -1.715   0.103  0.00  0.00    +0.010 C 
ATOM     33  C   UNL     1     -14.622  -2.825   0.960  0.00  0.00    +0.037 C 
BRANCH  27  34
ATOM     34  C   UNL     1     -12.028  -3.906   2.757  0.00  0.00    +0.244 C 
ATOM     35  O   UNL     1     -12.150  -3.416   3.865  0.00  0.00    -0.270 OA
ATOM     36  N   UNL     1     -11.990  -5.245   2.614  0.00  0.00    -0.325 N 
ATOM     37  H   UNL     1     -12.069  -5.896   3.497  0.00  0.00    +0.145 HD
ATOM     38  H   UNL     1     -11.880  -5.688   1.613  0.00  0.00    +0.145 HD
ENDBRANCH  27  34
ENDBRANCH  24  26
ENDBRANCH   2  22
TORSDOF 7
