REMARK  Name = ZINC00651277
REMARK  7 active torsions:
REMARK  status: ('A' for Active; 'I' for Inactive)
REMARK    1  A    between atoms: C_1  and  C_2
REMARK    2  A    between atoms: C_3  and  C_22
REMARK    3  A    between atoms: C_5  and  N_10
REMARK    4  A    between atoms: C_6  and  C_7
REMARK    5  A    between atoms: C_11  and  C_13
REMARK    6  A    between atoms: C_16  and  N_19
REMARK    7  A    between atoms: C_22  and  C_23
REMARK                            x       y       z     vdW  Elec       q    Type
REMARK                         _______ _______ _______ _____ _____    ______ ____
ROOT
ATOM      1  C   UNL     1      -4.478   7.419   0.064  0.00  0.00    +0.045 C 
ATOM      2  C   UNL     1      -4.121   5.955   0.054  0.00  0.00    -0.026 A 
ATOM      3  C   UNL     1      -5.069   5.001   0.054  0.00  0.00    -0.000 A 
ATOM      4  S   UNL     1      -4.130   3.489   0.041  0.00  0.00    -0.077 S 
ATOM      5  C   UNL     1      -2.527   4.144   0.037  0.00  0.00    +0.085 A 
ATOM      6  C   UNL     1      -2.745   5.517   0.051  0.00  0.00    +0.068 A 
ENDROOT
BRANCH   6   7
ATOM      7  C   UNL     1      -1.633   6.472   0.057  0.00  0.00    +0.244 C 
ATOM      8  O   UNL     1      -1.175   6.880  -0.994  0.00  0.00    -0.270 OA
ATOM      9  N   UNL     1      -1.119   6.899   1.228  0.00  0.00    -0.325 N 
ATOM     10  H   UNL     1      -1.484   6.575   2.065  0.00  0.00    +0.145 HD
ATOM     11  H   UNL     1      -0.383   7.532   1.232  0.00  0.00    +0.145 HD
ENDBRANCH   6   7
BRANCH   5  12
ATOM     12  N   UNL     1      -1.320   3.464   0.027  0.00  0.00    -0.275 N 
ATOM     13  C   UNL     1      -1.305   2.117   0.020  0.00  0.00    +0.249 C 
ATOM     14  O   UNL     1      -2.351   1.497   0.021  0.00  0.00    -0.270 OA
ATOM     15  H   UNL     1      -0.485   3.958   0.026  0.00  0.00    +0.156 HD
BRANCH  13  16
ATOM     16  C   UNL     1      -0.017   1.392   0.010  0.00  0.00    +0.037 A 
ATOM     17  C   UNL     1       1.186   2.100   0.002  0.00  0.00    +0.015 A 
ATOM     18  C   UNL     1       2.385   1.417  -0.013  0.00  0.00    +0.033 A 
ATOM     19  C   UNL     1       2.396   0.034  -0.021  0.00  0.00    +0.126 A 
ATOM     20  C   UNL     1       1.208  -0.674  -0.013  0.00  0.00    +0.033 A 
ATOM     21  C   UNL     1       0.002  -0.004   0.002  0.00  0.00    +0.015 A 
BRANCH  19  22
ATOM     22  N   UNL     1       3.686  -0.692  -0.037  0.00  0.00    +0.056 N 
ATOM     23  O   UNL     1       3.700  -1.910  -0.043  0.00  0.00    -0.126 OA
ATOM     24  O   UNL     1       4.734  -0.071  -0.043  0.00  0.00    -0.126 OA
ENDBRANCH  19  22
ENDBRANCH  13  16
ENDBRANCH   5  12
BRANCH   3  25
ATOM     25  C   UNL     1      -6.567   5.172   0.063  0.00  0.00    +0.077 C 
BRANCH  25  26
ATOM     26  C   UNL     1      -7.073   5.237  -1.355  0.00  0.00    -0.043 A 
ATOM     27  C   UNL     1      -7.175   6.457  -1.997  0.00  0.00    +0.004 A 
ATOM     28  C   UNL     1      -7.636   6.516  -3.299  0.00  0.00    +0.000 A 
ATOM     29  C   UNL     1      -8.004   5.356  -3.955  0.00  0.00    +0.000 A 
ATOM     30  C   UNL     1      -7.907   4.137  -3.311  0.00  0.00    +0.000 A 
ATOM     31  C   UNL     1      -7.441   4.077  -2.011  0.00  0.00    +0.004 A 
ENDBRANCH  25  26
ENDBRANCH   3  25
TORSDOF 6
