REMARK  Name = ZINC15830188
REMARK  7 active torsions:
REMARK  status: ('A' for Active; 'I' for Inactive)
REMARK    1  A    between atoms: C_1  and  N_2
REMARK    2  A    between atoms: C_9  and  C_21
REMARK    3  A    between atoms: C_12  and  C_14
REMARK    4  A    between atoms: C_19  and  O_20
REMARK    5  A    between atoms: C_25  and  O_28
REMARK    6  A    between atoms: C_26  and  O_27
REMARK    7  A    between atoms: O_28  and  C_29
REMARK                            x       y       z     vdW  Elec       q    Type
REMARK                         _______ _______ _______ _____ _____    ______ ____
ROOT
ATOM      1  C   UNL     1      -0.018   1.465   0.010  0.00  0.00    -0.096 C 
ATOM      2  N   UNL     1       0.002  -0.004   0.002  0.00  0.00    +0.378 N 
ATOM      3  C   UNL     1       0.681  -0.476  -1.211  0.00  0.00    -0.076 C 
ATOM      4  C   UNL     1       0.635  -2.004  -1.264  0.00  0.00    +0.027 C 
ATOM      5  C   UNL     1       1.344  -2.573  -0.029  0.00  0.00    +0.109 C 
ATOM      6  C   UNL     1       0.668  -2.018   1.229  0.00  0.00    +0.027 C 
ATOM      7  C   UNL     1       0.712  -0.489   1.192  0.00  0.00    -0.076 C 
ATOM      8  N   UNL     1       1.226  -4.037  -0.036  0.00  0.00    -0.286 NA
ATOM      9  C   UNL     1       2.027  -4.606  -1.133  0.00  0.00    +0.095 C 
ATOM     10  C   UNL     1       3.507  -4.372  -0.814  0.00  0.00    +0.079 C 
ATOM     11  C   UNL     1       3.709  -2.944  -0.390  0.00  0.00    +0.050 C 
ATOM     12  N   UNL     1       2.747  -2.174  -0.046  0.00  0.00    -0.266 NA
ATOM     13  H   UNL     1       1.502  -4.426   0.853  0.00  0.00    +0.125 HD
ATOM     14  H   UNL     1      -0.945  -0.352   0.012  0.00  0.00    -0.082 HD
ENDROOT
BRANCH  11  15
ATOM     15  C   UNL     1       5.081  -2.405  -0.370  0.00  0.00    +0.037 A 
ATOM     16  C   UNL     1       6.158  -3.212  -0.745  0.00  0.00    +0.013 A 
ATOM     17  C   UNL     1       7.438  -2.702  -0.724  0.00  0.00    +0.001 A 
ATOM     18  C   UNL     1       7.662  -1.392  -0.333  0.00  0.00    +0.004 A 
ATOM     19  C   UNL     1       6.606  -0.584   0.039  0.00  0.00    +0.046 A 
ATOM     20  C   UNL     1       5.311  -1.079   0.019  0.00  0.00    +0.126 A 
BRANCH  20  21
ATOM     21  O   UNL     1       4.272  -0.284   0.380  0.00  0.00    -0.506 OA
ATOM     22  H   UNL     1       4.062  -0.315   1.323  0.00  0.00    +0.292 HD
ENDBRANCH  20  21
ENDBRANCH  11  15
BRANCH   9  23
ATOM     23  C   UNL     1       1.758  -6.084  -1.246  0.00  0.00    +0.015 A 
ATOM     24  C   UNL     1       1.211  -6.771  -0.177  0.00  0.00    +0.009 A 
ATOM     25  C   UNL     1       0.963  -8.127  -0.278  0.00  0.00    +0.004 A 
ATOM     26  C   UNL     1       1.260  -8.803  -1.447  0.00  0.00    +0.049 A 
ATOM     27  C   UNL     1       1.807  -8.121  -2.521  0.00  0.00    +0.162 A 
ATOM     28  C   UNL     1       2.052  -6.754  -2.422  0.00  0.00    +0.163 A 
BRANCH  28  29
ATOM     29  O   UNL     1       2.584  -6.079  -3.476  0.00  0.00    -0.503 OA
ATOM     30  H   UNL     1       3.551  -6.055  -3.480  0.00  0.00    +0.292 HD
ENDBRANCH  28  29
BRANCH  27  31
ATOM     31  O   UNL     1       2.100  -8.784  -3.672  0.00  0.00    -0.491 OA
ATOM     32  C   UNL     1       1.817 -10.184  -3.704  0.00  0.00    +0.277 C 
ENDBRANCH  27  31
ENDBRANCH   9  23
TORSDOF 5
