REMARK  Name = ZINC13520672
REMARK  6 active torsions:
REMARK  status: ('A' for Active; 'I' for Inactive)
REMARK    1  A    between atoms: C_7  and  N_19
REMARK    2  A    between atoms: C_8  and  O_18
REMARK    3  A    between atoms: N_9  and  C_10
REMARK    4  A    between atoms: C_10  and  C_11
REMARK    5  A    between atoms: N_20  and  C_21
REMARK    6  A    between atoms: N_22  and  C_23
REMARK                            x       y       z     vdW  Elec       q    Type
REMARK                         _______ _______ _______ _____ _____    ______ ____
ROOT
ATOM      1  C   UNL     1       0.036   1.367   0.420  0.00  0.00    +0.001 A 
ATOM      2  C   UNL     1       1.168   2.088   0.072  0.00  0.00    +0.002 A 
ATOM      3  C   UNL     1       2.322   1.440  -0.314  0.00  0.00    +0.026 A 
ATOM      4  C   UNL     1       2.358   0.051  -0.356  0.00  0.00    +0.055 A 
ATOM      5  C   UNL     1       1.212  -0.677  -0.003  0.00  0.00    +0.031 A 
ATOM      6  C   UNL     1       0.052  -0.011   0.384  0.00  0.00    +0.012 A 
ATOM      7  C   UNL     1       1.569  -2.102  -0.151  0.00  0.00    +0.155 A 
ATOM      8  C   UNL     1       2.898  -2.126  -0.579  0.00  0.00    +0.222 A 
ATOM      9  N   UNL     1       3.351  -0.853  -0.696  0.00  0.00    -0.306 N 
ENDROOT
BRANCH   8  10
ATOM     10  O   UNL     1       3.617  -3.239  -0.836  0.00  0.00    -0.492 OA
ATOM     11  H   UNL     1       3.556  -3.544  -1.752  0.00  0.00    +0.294 HD
ENDBRANCH   8  10
BRANCH   7  12
ATOM     12  N   UNL     1       0.779  -3.158   0.081  0.00  0.00    -0.141 NA
ATOM     13  N   UNL     1       1.233  -4.353  -0.093  0.00  0.00    -0.123 NA
BRANCH  13  14
ATOM     14  C   UNL     1       0.437  -5.416   0.140  0.00  0.00    +0.199 C 
ATOM     15  N   UNL     1       0.920  -6.689  -0.044  0.00  0.00    -0.330 N 
ATOM     16  S   UNL     1      -1.126  -5.187   0.650  0.00  0.00    -0.009 SA
ATOM     17  H   UNL     1       1.858  -6.826  -0.250  0.00  0.00    +0.168 HD
BRANCH  15  18
ATOM     18  C   UNL     1       0.059  -7.786   0.064  0.00  0.00    +0.077 A 
ATOM     19  C   UNL     1      -1.202  -7.740  -0.514  0.00  0.00    +0.028 A 
ATOM     20  C   UNL     1      -2.050  -8.826  -0.406  0.00  0.00    +0.002 A 
ATOM     21  C   UNL     1      -1.644  -9.958   0.277  0.00  0.00    +0.003 A 
ATOM     22  C   UNL     1      -0.389 -10.008   0.854  0.00  0.00    +0.040 A 
ATOM     23  C   UNL     1       0.468  -8.928   0.746  0.00  0.00    +0.147 A 
ATOM     24  F   UNL     1       1.696  -8.979   1.305  0.00  0.00    -0.203 F 
ENDBRANCH  15  18
ENDBRANCH  13  14
ENDBRANCH   7  12
BRANCH   9  25
ATOM     25  C   UNL     1       4.702  -0.485  -1.124  0.00  0.00    +0.160 C 
BRANCH  25  26
ATOM     26  C   UNL     1       5.602  -0.389   0.081  0.00  0.00    -0.028 A 
ATOM     27  C   UNL     1       5.732   0.812   0.752  0.00  0.00    +0.007 A 
ATOM     28  C   UNL     1       6.557   0.901   1.857  0.00  0.00    +0.020 A 
ATOM     29  C   UNL     1       7.253  -0.212   2.292  0.00  0.00    +0.041 A 
ATOM     30  C   UNL     1       7.123  -1.414   1.619  0.00  0.00    +0.020 A 
ATOM     31  C   UNL     1       6.293  -1.504   0.518  0.00  0.00    +0.007 A 
ATOM     32 CL   UNL     1       8.290  -0.101   3.680  0.00  0.00    -0.084 Cl
ENDBRANCH  25  26
ENDBRANCH   9  25
TORSDOF 6
