REMARK  Name = ZINC39912324
REMARK  15 active torsions:
REMARK  status: ('A' for Active; 'I' for Inactive)
REMARK    1  A    between atoms: C_1  and  C_2
REMARK    2  A    between atoms: C_2  and  C_3
REMARK    3  A    between atoms: C_3  and  C_4
REMARK    4  A    between atoms: C_4  and  O_5
REMARK    5  A    between atoms: O_5  and  C_6
REMARK    6  A    between atoms: C_9  and  C_15
REMARK    7  A    between atoms: C_11  and  O_12
REMARK    8  A    between atoms: O_12  and  C_13
REMARK    9  A    between atoms: C_13  and  C_14
REMARK   10  A    between atoms: C_18  and  C_33
REMARK   11  A    between atoms: N_25  and  C_26
REMARK   12  A    between atoms: C_26  and  C_27
REMARK   13  A    between atoms: C_35  and  C_41
REMARK   14  A    between atoms: C_37  and  C_40
REMARK   15  A    between atoms: C_38  and  O_39
REMARK                            x       y       z     vdW  Elec       q    Type
REMARK                         _______ _______ _______ _____ _____    ______ ____
ROOT
ATOM      1  C   UNL     1       2.118  -7.751  -2.633  0.00  0.00    +0.142 C 
ATOM      2  C   UNL     1       1.056  -8.688  -3.139  0.00  0.00    +0.035 A 
ATOM      3  C   UNL     1       0.199  -9.043  -4.186  0.00  0.00    +0.102 A 
ATOM      4  N   UNL     1      -0.486 -10.100  -3.794  0.00  0.00    -0.173 NA
ATOM      5  N   UNL     1      -0.146 -10.447  -2.604  0.00  0.00    -0.272 N 
ATOM      6  H   UNL     1      -0.519 -11.196  -2.114  0.00  0.00    +0.189 HD
ATOM      7  C   UNL     1       0.819  -9.603  -2.131  0.00  0.00    +0.126 A 
ATOM      8  C   UNL     1       1.692  -9.283  -0.997  0.00  0.00    +0.266 C 
ATOM      9  O   UNL     1       1.725  -9.902   0.050  0.00  0.00    -0.268 OA
ATOM     10  N   UNL     1       2.453  -8.208  -1.278  0.00  0.00    -0.281 N 
ENDROOT
BRANCH   3  11
ATOM     11  C   UNL     1       0.081  -8.357  -5.497  0.00  0.00    +0.044 A 
ATOM     12  C   UNL     1       0.953  -7.322  -5.825  0.00  0.00    +0.017 A 
ATOM     13  C   UNL     1       0.840  -6.687  -7.046  0.00  0.00    -0.049 A 
ATOM     14  C   UNL     1      -0.138  -7.075  -7.945  0.00  0.00    +0.010 A 
ATOM     15  C   UNL     1      -1.008  -8.101  -7.629  0.00  0.00    -0.008 A 
ATOM     16  C   UNL     1      -0.901  -8.752  -6.410  0.00  0.00    +0.129 A 
ATOM     17  C   UNL     1      -2.070  -8.518  -8.614  0.00  0.00    +0.047 C 
ATOM     18  C   UNL     1       1.783  -5.567  -7.399  0.00  0.00    +0.044 C 
BRANCH  16  19
ATOM     19  O   UNL     1      -1.752  -9.764  -6.101  0.00  0.00    -0.506 OA
ATOM     20  H   UNL     1      -2.561  -9.477  -5.656  0.00  0.00    +0.292 HD
ENDBRANCH  16  19
ENDBRANCH   3  11
BRANCH   1  24
ATOM     21  C   UNL     1       0.615  -3.749  -2.510  0.00  0.00    +0.162 A 
ATOM     22  C   UNL     1       1.684  -4.066  -3.333  0.00  0.00    +0.050 A 
ATOM     23  C   UNL     1       2.168  -5.360  -3.370  0.00  0.00    +0.009 A 
ATOM     24  C   UNL     1       1.587  -6.341  -2.588  0.00  0.00    -0.019 A 
ATOM     25  C   UNL     1       0.520  -6.032  -1.765  0.00  0.00    +0.055 A 
ATOM     26  C   UNL     1       0.034  -4.735  -1.719  0.00  0.00    +0.162 A 
BRANCH  21  27
ATOM     27  O   UNL     1       0.138  -2.476  -2.472  0.00  0.00    -0.488 OA
BRANCH  27  28
ATOM     28  C   UNL     1       0.784  -1.516  -3.311  0.00  0.00    +0.229 C 
BRANCH  28  29
ATOM     29  C   UNL     1       0.115  -0.151  -3.134  0.00  0.00    +0.041 C 
BRANCH  29  31
ATOM     30  C   UNL     1       0.137   2.241  -3.855  0.00  0.00    +0.004 C 
ATOM     31  C   UNL     1       0.806   0.876  -4.032  0.00  0.00    -0.000 C 
ENDBRANCH  29  31
ENDBRANCH  28  29
ENDBRANCH  27  28
ENDBRANCH  21  27
BRANCH  26  32
ATOM     32  O   UNL     1      -1.012  -4.428  -0.905  0.00  0.00    -0.489 OA
BRANCH  32  33
ATOM     33  C   UNL     1      -1.533  -5.481  -0.092  0.00  0.00    +0.226 C 
ATOM     34  C   UNL     1      -2.680  -4.944   0.766  0.00  0.00    +0.048 C 
ENDBRANCH  32  33
ENDBRANCH  26  32
ENDBRANCH   1  24
BRANCH  10  35
ATOM     35  C   UNL     1       3.443  -7.599  -0.387  0.00  0.00    +0.144 C 
BRANCH  35  36
ATOM     36  C   UNL     1       2.778  -6.540   0.454  0.00  0.00    -0.030 A 
ATOM     37  C   UNL     1       2.716  -5.235   0.001  0.00  0.00    +0.005 A 
ATOM     38  C   UNL     1       2.106  -4.264   0.772  0.00  0.00    +0.000 A 
ATOM     39  C   UNL     1       1.557  -4.597   1.997  0.00  0.00    +0.000 A 
ATOM     40  C   UNL     1       1.618  -5.902   2.450  0.00  0.00    +0.000 A 
ATOM     41  C   UNL     1       2.224  -6.874   1.676  0.00  0.00    +0.005 A 
ENDBRANCH  35  36
ENDBRANCH  10  35
TORSDOF 11
