REMARK  Name = ZINC12569641
REMARK  8 active torsions:
REMARK  status: ('A' for Active; 'I' for Inactive)
REMARK    1  A    between atoms: C_4  and  O_33
REMARK    2  A    between atoms: C_5  and  N_7
REMARK    3  A    between atoms: C_8  and  C_10
REMARK    4  A    between atoms: C_15  and  C_16
REMARK    5  A    between atoms: C_15  and  N_59
REMARK    6  A    between atoms: N_18  and  C_19
REMARK    7  A    between atoms: C_19  and  C_21
REMARK    8  A    between atoms: C_19  and  C_28
REMARK                            x       y       z     vdW  Elec       q    Type
REMARK                         _______ _______ _______ _____ _____    ______ ____
ROOT
ATOM      1  C   UNL     1       3.139  -4.013   7.035  0.00  0.00    +0.072 C 
ATOM      2  C   UNL     1       1.643  -3.735   6.859  0.00  0.00    -0.006 C 
ATOM      3  C   UNL     1       1.226  -4.103   5.434  0.00  0.00    -0.077 C 
ATOM      4  C   UNL     1       3.441  -3.597   4.592  0.00  0.00    -0.077 C 
ATOM      5  C   UNL     1       3.925  -3.214   5.992  0.00  0.00    -0.006 C 
ATOM      6  N   UNL     1       2.001  -3.283   4.479  0.00  0.00    +0.385 N 
ATOM      7  H   UNL     1       1.859  -2.290   4.701  0.00  0.00    -0.081 HD
ENDROOT
BRANCH   1   9
ATOM      8  N   UNL     1       4.852  -3.749   8.800  0.00  0.00    -0.282 N 
ATOM      9  C   UNL     1       3.568  -3.596   8.418  0.00  0.00    +0.220 C 
ATOM     10  O   UNL     1       2.759  -3.123   9.188  0.00  0.00    -0.275 OA
ATOM     11  H   UNL     1       5.485  -4.186   8.209  0.00  0.00    +0.155 HD
BRANCH   8  16
ATOM     12  C   UNL     1       4.828  -2.855  12.369  0.00  0.00    +0.002 A 
ATOM     13  C   UNL     1       6.103  -2.342  12.522  0.00  0.00    +0.004 A 
ATOM     14  C   UNL     1       6.967  -2.293  11.444  0.00  0.00    +0.047 A 
ATOM     15  C   UNL     1       6.558  -2.764  10.207  0.00  0.00    +0.138 A 
ATOM     16  C   UNL     1       5.272  -3.276  10.050  0.00  0.00    +0.075 A 
ATOM     17  C   UNL     1       4.411  -3.322  11.137  0.00  0.00    +0.027 A 
BRANCH  15  18
ATOM     18  O   UNL     1       7.409  -2.722   9.147  0.00  0.00    -0.505 OA
ATOM     19  H   UNL     1       7.359  -1.903   8.634  0.00  0.00    +0.292 HD
ENDBRANCH  15  18
ENDBRANCH   8  16
ENDBRANCH   1   9
BRANCH   6  20
ATOM     20  C   UNL     1       1.536  -3.538   3.100  0.00  0.00    +0.019 C 
BRANCH  20  21
ATOM     21  C   UNL     1       2.183  -2.538   2.177  0.00  0.00    +0.197 C 
ATOM     22  O   UNL     1       2.960  -1.718   2.619  0.00  0.00    -0.278 OA
ATOM     23  N   UNL     1       1.899  -2.555   0.860  0.00  0.00    -0.306 N 
ATOM     24  H   UNL     1       1.278  -3.211   0.506  0.00  0.00    +0.150 HD
BRANCH  23  25
ATOM     25  C   UNL     1       2.529  -1.583  -0.038  0.00  0.00    +0.140 C 
BRANCH  25  26
ATOM     26  C   UNL     1       2.567  -2.143  -1.437  0.00  0.00    -0.022 A 
ATOM     27  C   UNL     1       1.489  -2.857  -1.925  0.00  0.00    +0.008 A 
ATOM     28  C   UNL     1       1.521  -3.366  -3.209  0.00  0.00    +0.038 A 
ATOM     29  C   UNL     1       2.638  -3.170  -4.003  0.00  0.00    +0.123 A 
ATOM     30  C   UNL     1       3.719  -2.459  -3.512  0.00  0.00    +0.038 A 
ATOM     31  C   UNL     1       3.683  -1.946  -2.229  0.00  0.00    +0.008 A 
ATOM     32  F   UNL     1       2.672  -3.672  -5.258  0.00  0.00    -0.205 F 
ENDBRANCH  25  26
BRANCH  25  33
ATOM     33  C   UNL     1       1.733  -0.304  -0.030  0.00  0.00    +0.014 A 
ATOM     34  C   UNL     1       2.176   0.977  -0.038  0.00  0.00    +0.013 A 
ATOM     35  C   UNL     1       1.253   2.006  -0.028  0.00  0.00    +0.008 A 
ATOM     36  C   UNL     1      -0.068   1.704  -0.011  0.00  0.00    +0.045 A 
ATOM     37  S   UNL     1      -0.038  -0.081  -0.008  0.00  0.00    -0.099 S 
ENDBRANCH  25  33
ENDBRANCH  23  25
ENDBRANCH  20  21
ENDBRANCH   6  20
TORSDOF 8
