REMARK  Name = ZINC46919137
REMARK  8 active torsions:
REMARK  status: ('A' for Active; 'I' for Inactive)
REMARK    1  A    between atoms: C_1  and  C_2
REMARK    2  A    between atoms: C_2  and  C_3
REMARK    3  A    between atoms: C_6  and  C_9
REMARK    4  A    between atoms: C_9  and  C_11
REMARK    5  A    between atoms: C_9  and  N_16
REMARK    6  A    between atoms: N_19  and  N_20
REMARK    7  A    between atoms: C_21  and  C_23
REMARK    8  A    between atoms: C_27  and  C_28
REMARK                            x       y       z     vdW  Elec       q    Type
REMARK                         _______ _______ _______ _____ _____    ______ ____
ROOT
ATOM      1  N   UNL     1       1.985  -2.938   5.354  0.00  0.00    -0.287 N 
ATOM      2  C   UNL     1       2.577  -3.869   6.128  0.00  0.00    +0.317 C 
ATOM      3  O   UNL     1       3.784  -3.864   6.269  0.00  0.00    -0.251 OA
ATOM      4  N   UNL     1       1.830  -4.806   6.744  0.00  0.00    -0.218 N 
ATOM      5  H   UNL     1       1.022  -2.942   5.240  0.00  0.00    +0.151 HD
ATOM      6  H   UNL     1       2.255  -5.477   7.301  0.00  0.00    +0.174 HD
ENDROOT
BRANCH   4   7
ATOM      7  N   UNL     1       0.438  -4.812   6.581  0.00  0.00    -0.229 N 
ATOM      8  C   UNL     1      -0.309  -5.749   7.197  0.00  0.00    +0.263 C 
ATOM      9  O   UNL     1       0.225  -6.590   7.895  0.00  0.00    -0.269 OA
ATOM     10  H   UNL     1       0.012  -4.142   6.024  0.00  0.00    +0.173 HD
BRANCH   8  11
ATOM     11  C   UNL     1      -1.772  -5.756   7.025  0.00  0.00    +0.079 A 
ATOM     12  C   UNL     1      -2.576  -4.826   6.219  0.00  0.00    +0.054 A 
ATOM     13  C   UNL     1      -3.851  -5.218   6.365  0.00  0.00    +0.196 A 
ATOM     14  O   UNL     1      -3.892  -6.287   7.175  0.00  0.00    -0.467 OA
ATOM     15  C   UNL     1      -2.664  -6.629   7.576  0.00  0.00    +0.114 A 
ATOM     16  C   UNL     1      -2.322  -7.781   8.486  0.00  0.00    +0.087 C 
ENDBRANCH   8  11
ENDBRANCH   4   7
BRANCH   1  17
ATOM     17  C   UNL     1       2.797  -1.919   4.683  0.00  0.00    +0.142 C 
BRANCH  17  21
ATOM     18  C   UNL     1       0.731  -0.503   1.223  0.00  0.00    -0.048 A 
ATOM     19  C   UNL     1       2.097  -0.710   1.176  0.00  0.00    +0.004 A 
ATOM     20  C   UNL     1       2.766  -1.167   2.296  0.00  0.00    +0.006 A 
ATOM     21  C   UNL     1       2.068  -1.419   3.463  0.00  0.00    -0.022 A 
ATOM     22  C   UNL     1       0.702  -1.212   3.510  0.00  0.00    +0.006 A 
ATOM     23  C   UNL     1       0.034  -0.750   2.391  0.00  0.00    +0.004 A 
BRANCH  18  25
ATOM     24  C   UNL     1      -0.019   1.526   0.010  0.00  0.00    +0.009 C 
ATOM     25  C   UNL     1       0.002  -0.004   0.002  0.00  0.00    +0.032 C 
ENDBRANCH  18  25
ENDBRANCH  17  21
BRANCH  17  26
ATOM     26  C   UNL     1       3.042  -0.770   5.628  0.00  0.00    +0.014 A 
ATOM     27  C   UNL     1       4.170  -0.042   5.811  0.00  0.00    +0.013 A 
ATOM     28  C   UNL     1       4.165   0.978   6.744  0.00  0.00    +0.008 A 
ATOM     29  C   UNL     1       3.032   1.220   7.448  0.00  0.00    +0.045 A 
ATOM     30  S   UNL     1       1.919  -0.012   6.791  0.00  0.00    -0.099 S 
ENDBRANCH  17  26
ENDBRANCH   1  17
TORSDOF 6
