REMARK  Name = ZINC35300897
REMARK  11 active torsions:
REMARK  status: ('A' for Active; 'I' for Inactive)
REMARK    1  A    between atoms: C_1  and  C_2
REMARK    2  A    between atoms: C_2  and  C_3
REMARK    3  A    between atoms: C_3  and  C_5
REMARK    4  A    between atoms: C_3  and  C_6
REMARK    5  A    between atoms: C_6  and  C_8
REMARK    6  A    between atoms: C_6  and  N_25
REMARK    7  A    between atoms: C_14  and  C_16
REMARK    8  A    between atoms: C_19  and  N_22
REMARK    9  A    between atoms: N_22  and  C_23
REMARK   10  A    between atoms: N_22  and  C_24
REMARK   11  A    between atoms: N_28  and  C_29
REMARK                            x       y       z     vdW  Elec       q    Type
REMARK                         _______ _______ _______ _____ _____    ______ ____
ROOT
ATOM      1  C   UNL     1      -0.273   0.767  -3.764  0.00  0.00    +0.163 C 
ENDROOT
BRANCH   1   2
ATOM      2  C   UNL     1      -0.331   2.214  -4.181  0.00  0.00    +0.239 C 
ATOM      3  O   UNL     1       0.218   2.573  -5.201  0.00  0.00    -0.273 OA
ATOM      4  N   UNL     1      -0.993   3.108  -3.421  0.00  0.00    -0.262 N 
ATOM      5  C   UNL     1      -1.137   4.420  -3.857  0.00  0.00    +0.188 A 
ATOM      6  N   UNL     1      -0.714   4.998  -4.974  0.00  0.00    -0.125 NA
ATOM      7  N   UNL     1      -0.932   6.216  -5.218  0.00  0.00    -0.140 NA
ATOM      8  C   UNL     1      -1.598   6.992  -4.372  0.00  0.00    +0.134 A 
ATOM      9  S   UNL     1      -1.952   5.809  -3.075  0.00  0.00    -0.030 S 
ATOM     10  H   UNL     1      -1.369   2.836  -2.569  0.00  0.00    +0.157 HD
BRANCH   8  11
ATOM     11  C   UNL     1      -1.951   8.424  -4.473  0.00  0.00    +0.009 A 
ATOM     12  C   UNL     1      -2.662   9.044  -3.444  0.00  0.00    +0.012 A 
ATOM     13  C   UNL     1      -2.989  10.379  -3.541  0.00  0.00    +0.024 A 
ATOM     14  C   UNL     1      -2.614  11.108  -4.664  0.00  0.00    +0.029 A 
ATOM     15  C   UNL     1      -1.906  10.493  -5.691  0.00  0.00    +0.024 A 
ATOM     16  C   UNL     1      -1.570   9.160  -5.597  0.00  0.00    +0.012 A 
BRANCH  14  17
ATOM     17  N   UNL     1      -2.947  12.459  -4.760  0.00  0.00    -0.336 N 
ATOM     18  C   UNL     1      -3.580  13.140  -3.628  0.00  0.00    +0.129 C 
ATOM     19  C   UNL     1      -2.665  13.198  -5.994  0.00  0.00    +0.129 C 
ENDBRANCH  14  17
ENDBRANCH   8  11
ENDBRANCH   1   2
BRANCH   1  20
ATOM     20  N   UNL     1       0.346  -0.025  -4.831  0.00  0.00    -0.288 N 
ATOM     21  C   UNL     1       0.072  -1.340  -4.940  0.00  0.00    +0.304 C 
ATOM     22  O   UNL     1      -0.689  -1.869  -4.153  0.00  0.00    -0.252 OA
ATOM     23  N   UNL     1       0.640  -2.067  -5.921  0.00  0.00    -0.269 N 
ATOM     24  H   UNL     1       0.952   0.398  -5.459  0.00  0.00    +0.151 HD
ATOM     25  H   UNL     1       1.303  -1.664  -6.503  0.00  0.00    +0.156 HD
BRANCH  23  26
ATOM     26  C   UNL     1       0.275  -3.403  -6.101  0.00  0.00    +0.042 A 
ATOM     27  C   UNL     1      -1.012  -3.815  -5.827  0.00  0.00    +0.024 A 
ATOM     28  C   UNL     1      -1.386  -5.144  -6.003  0.00  0.00    +0.002 A 
ATOM     29  C   UNL     1      -0.495  -6.072  -6.449  0.00  0.00    +0.008 A 
ATOM     30  C   UNL     1       0.827  -5.693  -6.740  0.00  0.00    -0.016 A 
ATOM     31  C   UNL     1       1.218  -4.342  -6.571  0.00  0.00    +0.003 A 
ATOM     32  C   UNL     1       2.537  -3.964  -6.867  0.00  0.00    +0.010 A 
ATOM     33  C   UNL     1       3.420  -4.897  -7.318  0.00  0.00    +0.001 A 
ATOM     34  C   UNL     1       3.034  -6.225  -7.491  0.00  0.00    +0.001 A 
ATOM     35  C   UNL     1       1.768  -6.630  -7.201  0.00  0.00    +0.008 A 
ENDBRANCH  23  26
ENDBRANCH   1  20
BRANCH   1  36
ATOM     36  C   UNL     1       0.559   0.637  -2.486  0.00  0.00    +0.015 C 
ATOM     37  C   UNL     1       2.015   0.997  -2.787  0.00  0.00    +0.010 C 
BRANCH  36  39
ATOM     38  C   UNL     1      -0.955  -1.124  -1.567  0.00  0.00    +0.004 C 
ATOM     39  C   UNL     1       0.484  -0.802  -1.973  0.00  0.00    +0.002 C 
ENDBRANCH  36  39
ENDBRANCH   1  36
TORSDOF 7
