REMARK  Name = ZINC45925164
REMARK  7 active torsions:
REMARK  status: ('A' for Active; 'I' for Inactive)
REMARK    1  A    between atoms: C_5  and  N_7
REMARK    2  A    between atoms: C_8  and  C_10
REMARK    3  A    between atoms: C_10  and  S_11
REMARK    4  A    between atoms: S_11  and  C_12
REMARK    5  A    between atoms: C_15  and  S_19
REMARK    6  A    between atoms: C_16  and  N_18
REMARK    7  A    between atoms: S_19  and  C_22
REMARK                            x       y       z     vdW  Elec       q    Type
REMARK                         _______ _______ _______ _____ _____    ______ ____
ROOT
ATOM      1  C   UNL     1      -1.372  -6.657   0.438  0.00  0.00    +0.190 A 
ATOM      2  N   UNL     1      -0.149  -7.166   0.415  0.00  0.00    -0.228 NA
ATOM      3  C   UNL     1       0.046  -8.474   0.497  0.00  0.00    +0.144 A 
ATOM      4  C   UNL     1      -1.046  -9.314   0.609  0.00  0.00    +0.152 A 
ATOM      5  C   UNL     1      -2.322  -8.748   0.630  0.00  0.00    +0.146 A 
ATOM      6  N   UNL     1      -2.444  -7.427   0.548  0.00  0.00    -0.205 NA
ENDROOT
BRANCH   5   7
ATOM      7  N   UNL     1      -3.445  -9.552   0.740  0.00  0.00    -0.342 N 
ATOM      8  H   UNL     1      -3.348 -10.515   0.803  0.00  0.00    +0.144 HD
ATOM      9  H   UNL     1      -4.329  -9.152   0.755  0.00  0.00    +0.144 HD
ENDBRANCH   5   7
BRANCH   4  10
ATOM     10  S   UNL     1      -0.832 -11.059   0.720  0.00  0.00    +0.036 S 
ATOM     11  O   UNL     1      -1.720 -11.639  -0.225  0.00  0.00    -0.164 OA
ATOM     12  O   UNL     1       0.569 -11.299   0.697  0.00  0.00    -0.164 OA
BRANCH  10  13
ATOM     13  C   UNL     1      -1.400 -11.553   2.313  0.00  0.00    +0.132 A 
ATOM     14  C   UNL     1      -2.642 -11.941   2.694  0.00  0.00    +0.036 A 
ATOM     15  C   UNL     1      -2.860 -12.288   4.014  0.00  0.00    +0.025 A 
ATOM     16  C   UNL     1      -1.826 -12.230   4.889  0.00  0.00    +0.057 A 
ATOM     17  S   UNL     1      -0.488 -11.679   3.843  0.00  0.00    -0.063 S 
ATOM     18 BR   UNL     1      -1.804 -12.636   6.736  0.00  0.00    -0.043 Br
ENDBRANCH  10  13
ENDBRANCH   4  10
BRANCH   1  19
ATOM     19  S   UNL     1      -1.577  -4.910   0.325  0.00  0.00    -0.077 S 
BRANCH  19  20
ATOM     20  C   UNL     1       0.117  -4.277   0.192  0.00  0.00    +0.173 C 
BRANCH  20  22
ATOM     21  N   UNL     1       1.236  -2.081  -0.022  0.00  0.00    -0.283 N 
ATOM     22  C   UNL     1       0.085  -2.774   0.087  0.00  0.00    +0.228 C 
ATOM     23  O   UNL     1      -0.977  -2.187   0.102  0.00  0.00    -0.275 OA
ATOM     24  H   UNL     1       2.079  -2.552  -0.115  0.00  0.00    +0.155 HD
BRANCH  21  29
ATOM     25  C   UNL     1       0.153   1.372   0.637  0.00  0.00    +0.002 A 
ATOM     26  C   UNL     1       1.173   2.087   0.036  0.00  0.00    +0.003 A 
ATOM     27  C   UNL     1       2.214   1.423  -0.585  0.00  0.00    +0.040 A 
ATOM     28  C   UNL     1       2.239   0.040  -0.607  0.00  0.00    +0.144 A 
ATOM     29  C   UNL     1       1.215  -0.681  -0.002  0.00  0.00    +0.069 A 
ATOM     30  C   UNL     1       0.172  -0.009   0.620  0.00  0.00    +0.026 A 
ATOM     31  F   UNL     1       3.256  -0.609  -1.214  0.00  0.00    -0.204 F 
ENDBRANCH  21  29
ENDBRANCH  20  22
ENDBRANCH  19  20
ENDBRANCH   1  19
TORSDOF 7
