REMARK  Name = ZINC19169198
REMARK  3 active torsions:
REMARK  status: ('A' for Active; 'I' for Inactive)
REMARK    1  A    between atoms: C_4  and  C_7
REMARK    2  A    between atoms: C_7  and  N_8
REMARK    3  A    between atoms: C_13  and  C_16
REMARK                            x       y       z     vdW  Elec       q    Type
REMARK                         _______ _______ _______ _____ _____    ______ ____
ROOT
ATOM      1  N   UNL     1       4.153  -0.953   1.342  0.00  0.00    -0.225 NA
ATOM      2  C   UNL     1       5.470  -1.627   1.364  0.00  0.00    +0.175 C 
ATOM      3  C   UNL     1       5.432  -2.574   2.595  0.00  0.00    +0.130 C 
ATOM      4  C   UNL     1       4.025  -2.359   3.197  0.00  0.00    +0.149 C 
ATOM      5  N   UNL     1       3.228  -1.857   2.037  0.00  0.00    -0.242 NA
ATOM      6  C   UNL     1       5.513  -3.948   1.968  0.00  0.00    +0.246 C 
ATOM      7  O   UNL     1       5.518  -5.106   2.645  0.00  0.00    -0.273 OA
ATOM      8  N   UNL     1       5.576  -3.838   0.675  0.00  0.00    -0.144 NA
ATOM      9  C   UNL     1       5.564  -2.582   0.194  0.00  0.00    +0.258 C 
ATOM     10  O   UNL     1       5.617  -2.259  -0.976  0.00  0.00    -0.272 OA
ATOM     11  H   UNL     1       2.936  -2.610   1.432  0.00  0.00    +0.142 HD
ENDROOT
BRANCH   4  12
ATOM     12  C   UNL     1       3.454  -3.664   3.688  0.00  0.00    +0.124 A 
ATOM     13  C   UNL     1       3.433  -4.082   4.967  0.00  0.00    +0.046 A 
ATOM     14  C   UNL     1       2.810  -5.351   4.973  0.00  0.00    +0.041 A 
ATOM     15  C   UNL     1       2.488  -5.633   3.698  0.00  0.00    +0.195 A 
ATOM     16  O   UNL     1       2.875  -4.605   2.925  0.00  0.00    -0.466 OA
ENDBRANCH   4  12
BRANCH   1  17
ATOM     17  C   UNL     1       3.711  -0.707  -0.038  0.00  0.00    +0.138 C 
BRANCH  17  21
ATOM     18  C   UNL     1      -0.017   1.378   0.010  0.00  0.00    +0.000 A 
ATOM     19  C   UNL     1       1.171   2.086   0.002  0.00  0.00    +0.000 A 
ATOM     20  C   UNL     1       2.377   1.411  -0.013  0.00  0.00    +0.005 A 
ATOM     21  C   UNL     1       2.396   0.029  -0.020  0.00  0.00    -0.032 A 
ATOM     22  C   UNL     1       1.208  -0.679  -0.012  0.00  0.00    +0.005 A 
ATOM     23  C   UNL     1       0.002  -0.004   0.002  0.00  0.00    +0.000 A 
ENDBRANCH  17  21
ENDBRANCH   1  17
TORSDOF 3
