REMARK  Name = ZINC36741285
REMARK  8 active torsions:
REMARK  status: ('A' for Active; 'I' for Inactive)
REMARK    1  A    between atoms: C_1  and  O_2
REMARK    2  A    between atoms: O_2  and  C_3
REMARK    3  A    between atoms: C_8  and  C_9
REMARK    4  A    between atoms: C_9  and  O_30
REMARK    5  A    between atoms: N_13  and  C_15
REMARK    6  A    between atoms: C_15  and  C_16
REMARK    7  A    between atoms: C_16  and  C_18
REMARK    8  A    between atoms: C_16  and  O_29
REMARK                            x       y       z     vdW  Elec       q    Type
REMARK                         _______ _______ _______ _____ _____    ______ ____
ROOT
ATOM      1  C   UNL     1      -0.091  -2.599  -0.167  0.00  0.00    +0.080 C 
ATOM      2  C   UNL     1       0.687  -2.173   1.081  0.00  0.00    +0.036 C 
ATOM      3  C   UNL     1       2.004  -2.953   1.140  0.00  0.00    -0.016 C 
ATOM      4  C   UNL     1       2.793  -2.707  -0.148  0.00  0.00    -0.078 C 
ATOM      5  N   UNL     1       2.007  -3.158  -1.302  0.00  0.00    +0.384 N 
ATOM      6  C   UNL     1       0.775  -2.366  -1.406  0.00  0.00    -0.039 C 
ATOM      7  H   UNL     1       1.770  -4.132  -1.186  0.00  0.00    -0.082 HD
ENDROOT
BRANCH   1  13
ATOM      8  C   UNL     1      -1.280  -0.401  -0.377  0.00  0.00    +0.126 A 
ATOM      9  C   UNL     1      -2.444   0.348  -0.482  0.00  0.00    +0.046 A 
ATOM     10  C   UNL     1      -3.672  -0.284  -0.479  0.00  0.00    +0.004 A 
ATOM     11  C   UNL     1      -3.743  -1.661  -0.372  0.00  0.00    +0.001 A 
ATOM     12  C   UNL     1      -2.585  -2.409  -0.267  0.00  0.00    +0.010 A 
ATOM     13  C   UNL     1      -1.353  -1.782  -0.275  0.00  0.00    +0.024 A 
BRANCH   8  15
ATOM     14  C   UNL     1      -0.070   1.643  -0.488  0.00  0.00    +0.277 C 
ATOM     15  O   UNL     1      -0.070   0.218  -0.380  0.00  0.00    -0.495 OA
ENDBRANCH   8  15
ENDBRANCH   1  13
BRANCH   1  16
ATOM     16  O   UNL     1      -0.426  -3.985  -0.072  0.00  0.00    -0.386 OA
ATOM     17  H   UNL     1      -0.975  -4.205   0.693  0.00  0.00    +0.211 HD
ENDBRANCH   1  16
BRANCH   5  18
ATOM     18  C   UNL     1       2.799  -2.993  -2.528  0.00  0.00    -0.042 C 
BRANCH  18  19
ATOM     19  C   UNL     1       2.042  -3.600  -3.711  0.00  0.00    +0.128 C 
BRANCH  19  20
ATOM     20  C   UNL     1       2.853  -3.425  -4.969  0.00  0.00    -0.017 A 
ATOM     21  C   UNL     1       3.827  -4.351  -5.294  0.00  0.00    +0.010 A 
ATOM     22  C   UNL     1       4.575  -4.198  -6.448  0.00  0.00    +0.050 A 
ATOM     23  C   UNL     1       4.343  -3.113  -7.277  0.00  0.00    +0.162 A 
ATOM     24  C   UNL     1       3.365  -2.185  -6.951  0.00  0.00    +0.162 A 
ATOM     25  C   UNL     1       2.615  -2.343  -5.798  0.00  0.00    +0.055 A 
ATOM     26  O   UNL     1       3.145  -1.120  -7.775  0.00  0.00    -0.488 OA
ATOM     27  C   UNL     1       4.193  -0.150  -7.838  0.00  0.00    +0.232 C 
ATOM     28  C   UNL     1       5.253  -0.567  -8.845  0.00  0.00    +0.082 C 
ATOM     29  C   UNL     1       5.974  -1.841  -8.432  0.00  0.00    +0.232 C 
ATOM     30  O   UNL     1       5.073  -2.951  -8.419  0.00  0.00    -0.488 OA
ENDBRANCH  19  20
BRANCH  19  31
ATOM     31  O   UNL     1       1.824  -4.992  -3.473  0.00  0.00    -0.389 OA
ATOM     32  H   UNL     1       2.637  -5.503  -3.362  0.00  0.00    +0.210 HD
ENDBRANCH  19  31
ENDBRANCH  18  19
ENDBRANCH   5  18
TORSDOF 7
