REMARK  Name = ZINC63165343
REMARK  8 active torsions:
REMARK  status: ('A' for Active; 'I' for Inactive)
REMARK    1  A    between atoms: C_6  and  C_10
REMARK    2  A    between atoms: C_10  and  S_11
REMARK    3  A    between atoms: S_11  and  C_12
REMARK    4  A    between atoms: C_16  and  C_24
REMARK    5  A    between atoms: N_17  and  C_18
REMARK    6  A    between atoms: C_18  and  C_19
REMARK    7  A    between atoms: C_24  and  O_25
REMARK    8  A    between atoms: O_25  and  C_26
REMARK                            x       y       z     vdW  Elec       q    Type
REMARK                         _______ _______ _______ _____ _____    ______ ____
ROOT
ATOM      1  C   UNL     1       3.659  -2.716  -4.481  0.00  0.00    +0.237 C 
ATOM      2  N   UNL     1       3.277  -4.135  -4.383  0.00  0.00    -0.238 N 
ATOM      3  N   UNL     1       4.456  -4.835  -4.097  0.00  0.00    -0.170 NA
ATOM      4  C   UNL     1       5.464  -4.048  -4.012  0.00  0.00    +0.156 C 
ATOM      5  N   UNL     1       5.110  -2.721  -4.229  0.00  0.00    -0.279 N 
ATOM      6  H   UNL     1       2.389  -4.509  -4.495  0.00  0.00    +0.171 HD
ENDROOT
BRANCH   1   7
ATOM      7  S   UNL     1       2.798  -1.736  -3.221  0.00  0.00    -0.114 S 
BRANCH   7   8
ATOM      8  C   UNL     1       1.153  -1.454  -3.932  0.00  0.00    +0.119 C 
BRANCH   8  14
ATOM      9  C   UNL     1       2.098   1.768   0.558  0.00  0.00    +0.002 A 
ATOM     10  C   UNL     1       1.638   0.633   1.249  0.00  0.00    +0.002 A 
ATOM     11  C   UNL     1       1.019  -0.393   0.631  0.00  0.00    +0.027 A 
ATOM     12  C   UNL     1       0.806  -0.342  -0.822  0.00  0.00    +0.060 A 
ATOM     13  N   UNL     1       0.252  -1.165  -1.664  0.00  0.00    -0.363 N 
ATOM     14  C   UNL     1       0.340  -0.556  -2.997  0.00  0.00    +0.184 C 
ATOM     15  N   UNL     1       1.019   0.733  -2.820  0.00  0.00    -0.363 N 
ATOM     16  C   UNL     1       1.292   0.860  -1.553  0.00  0.00    +0.060 A 
ATOM     17  C   UNL     1       1.953   1.916  -0.774  0.00  0.00    +0.027 A 
ATOM     18  H   UNL     1      -0.146  -2.024  -1.450  0.00  0.00    +0.162 HD
ATOM     19  H   UNL     1       1.228   1.373  -3.518  0.00  0.00    +0.162 HD
ENDBRANCH   8  14
ENDBRANCH   7   8
ENDBRANCH   1   7
BRANCH   5  20
ATOM     20  C   UNL     1       6.001  -1.559  -4.211  0.00  0.00    +0.183 C 
BRANCH  20  21
ATOM     21  C   UNL     1       6.163  -1.072  -2.794  0.00  0.00    +0.122 A 
ATOM     22  C   UNL     1       7.150  -1.422  -1.950  0.00  0.00    +0.046 A 
ATOM     23  C   UNL     1       6.913  -0.736  -0.737  0.00  0.00    +0.041 A 
ATOM     24  C   UNL     1       5.797  -0.007  -0.912  0.00  0.00    +0.195 A 
ATOM     25  O   UNL     1       5.350  -0.210  -2.162  0.00  0.00    -0.466 OA
ENDBRANCH  20  21
ENDBRANCH   5  20
BRANCH   4  26
ATOM     26  C   UNL     1       6.868  -4.506  -3.714  0.00  0.00    +0.302 C 
BRANCH  26  27
ATOM     27  O   UNL     1       6.881  -5.925  -3.547  0.00  0.00    -0.485 OA
BRANCH  27  28
ATOM     28  C   UNL     1       8.079  -6.503  -3.271  0.00  0.00    +0.121 A 
ATOM     29  C   UNL     1       9.219  -5.720  -3.156  0.00  0.00    +0.047 A 
ATOM     30  C   UNL     1      10.436  -6.310  -2.876  0.00  0.00    +0.023 A 
ATOM     31  C   UNL     1      10.520  -7.681  -2.708  0.00  0.00    +0.041 A 
ATOM     32  C   UNL     1       9.384  -8.464  -2.822  0.00  0.00    +0.023 A 
ATOM     33  C   UNL     1       8.164  -7.877  -3.097  0.00  0.00    +0.047 A 
ATOM     34 CL   UNL     1      12.050  -8.419  -2.356  0.00  0.00    -0.084 Cl
ENDBRANCH  27  28
ENDBRANCH  26  27
ENDBRANCH   4  26
TORSDOF 8
