REMARK  Name = ZINC44893465
REMARK  6 active torsions:
REMARK  status: ('A' for Active; 'I' for Inactive)
REMARK    1  A    between atoms: C_1  and  C_2
REMARK    2  A    between atoms: C_3  and  C_12
REMARK    3  A    between atoms: C_12  and  C_13
REMARK    4  A    between atoms: C_13  and  C_14
REMARK    5  A    between atoms: C_18  and  C_25
REMARK    6  A    between atoms: C_21  and  C_24
REMARK                            x       y       z     vdW  Elec       q    Type
REMARK                         _______ _______ _______ _____ _____    ______ ____
ROOT
ATOM      1  C   UNL     1      -2.479   0.024   0.015  0.00  0.00    +0.051 C 
ENDROOT
BRANCH   1   4
ATOM      2  C   UNL     1      -0.018   1.503   0.010  0.00  0.00    +0.064 C 
ATOM      3  C   UNL     1       0.002  -0.004   0.002  0.00  0.00    +0.026 A 
ATOM      4  C   UNL     1      -1.156  -0.698   0.004  0.00  0.00    +0.036 A 
ATOM      5  C   UNL     1      -1.111  -2.113  -0.005  0.00  0.00    +0.257 A 
ATOM      6  O   UNL     1      -2.142  -2.761  -0.004  0.00  0.00    -0.267 OA
ATOM      7  N   UNL     1       0.084  -2.737  -0.014  0.00  0.00    -0.275 N 
ATOM      8  H   UNL     1       0.123  -3.706  -0.020  0.00  0.00    +0.173 HD
ATOM      9  C   UNL     1       1.224  -2.020  -0.016  0.00  0.00    +0.327 A 
ATOM     10  O   UNL     1       2.294  -2.597  -0.024  0.00  0.00    -0.247 OA
ATOM     11  N   UNL     1       1.194  -0.675  -0.013  0.00  0.00    -0.311 N 
ATOM     12  H   UNL     1       2.026  -0.177  -0.018  0.00  0.00    +0.170 HD
ENDBRANCH   1   4
BRANCH   1  13
ATOM     13  C   UNL     1      -2.994   0.166  -1.419  0.00  0.00    +0.101 C 
BRANCH  13  14
ATOM     14  C   UNL     1      -4.317   0.888  -1.407  0.00  0.00    +0.216 C 
ATOM     15  O   UNL     1      -4.800   1.253  -0.356  0.00  0.00    -0.276 OA
ATOM     16  N   UNL     1      -4.963   1.129  -2.566  0.00  0.00    -0.301 N 
ATOM     17  C   UNL     1      -4.394   0.688  -3.846  0.00  0.00    +0.111 C 
ATOM     18  C   UNL     1      -5.440  -0.147  -4.590  0.00  0.00    +0.004 C 
ATOM     19  C   UNL     1      -6.733   0.661  -4.722  0.00  0.00    +0.009 C 
ATOM     20  C   UNL     1      -7.276   0.989  -3.329  0.00  0.00    +0.004 C 
ATOM     21  C   UNL     1      -6.253   1.831  -2.571  0.00  0.00    +0.111 C 
ATOM     22  C   UNL     1      -8.586   1.768  -3.462  0.00  0.00    +0.009 C 
ATOM     23  C   UNL     1      -4.915  -0.502  -5.982  0.00  0.00    +0.009 C 
ENDBRANCH  13  14
ENDBRANCH   1  13
TORSDOF 3
