REMARK  Name = ZINC04026239
REMARK  6 active torsions:
REMARK  status: ('A' for Active; 'I' for Inactive)
REMARK    1  A    between atoms: C_1  and  C_2
REMARK    2  A    between atoms: C_8  and  O_27
REMARK    3  A    between atoms: C_9  and  O_25
REMARK    4  A    between atoms: N_18  and  O_19
REMARK    5  A    between atoms: O_25  and  C_26
REMARK    6  A    between atoms: O_27  and  C_28
REMARK                            x       y       z     vdW  Elec       q    Type
REMARK                         _______ _______ _______ _____ _____    ______ ____
ROOT
ATOM      1  C   UNL     1      -0.252   1.079  -0.415  0.00  0.00    +0.016 C 
ATOM      2  C   UNL     1      -0.178  -0.386   0.021  0.00  0.00    +0.063 C 
ATOM      3  C   UNL     1      -1.575  -0.882   0.411  0.00  0.00    +0.112 C 
ATOM      4  C   UNL     1      -2.505  -0.658  -0.750  0.00  0.00    -0.020 A 
ATOM      5  C   UNL     1      -2.119  -1.151  -1.991  0.00  0.00    +0.055 A 
ATOM      6  C   UNL     1      -2.930  -0.985  -3.098  0.00  0.00    +0.162 A 
ATOM      7  C   UNL     1      -4.145  -0.318  -2.966  0.00  0.00    +0.162 A 
ATOM      8  C   UNL     1      -4.524   0.172  -1.731  0.00  0.00    +0.053 A 
ATOM      9  C   UNL     1      -3.704   0.006  -0.622  0.00  0.00    -0.037 A 
ATOM     10  C   UNL     1      -4.166   0.578   0.687  0.00  0.00    +0.054 C 
ATOM     11  C   UNL     1      -3.478  -0.064   1.872  0.00  0.00    +0.110 C 
ATOM     12  N   UNL     1      -2.052  -0.248   1.625  0.00  0.00    -0.325 N 
ATOM     13  C   UNL     1      -1.216   0.169   2.612  0.00  0.00    +0.019 C 
ATOM     14  C   UNL     1       0.152   0.065   2.496  0.00  0.00    +0.059 C 
ATOM     15  C   UNL     1       0.717  -0.515   1.239  0.00  0.00    +0.097 C 
ATOM     16  N   UNL     1       1.886  -1.071   1.180  0.00  0.00    -0.091 NA
ATOM     17  C   UNL     1       1.020   0.482   3.527  0.00  0.00    +0.166 C 
ATOM     18  O   UNL     1       2.220   0.351   3.396  0.00  0.00    -0.292 OA
ATOM     19  C   UNL     1       0.466   1.091   4.789  0.00  0.00    +0.080 C 
ATOM     20  C   UNL     1      -0.862   1.784   4.465  0.00  0.00    +0.014 C 
ATOM     21  C   UNL     1      -1.825   0.760   3.861  0.00  0.00    +0.052 C 
ENDROOT
BRANCH  16  22
ATOM     22  O   UNL     1       2.557  -1.435   2.373  0.00  0.00    -0.409 OA
ATOM     23  H   UNL     1       3.421  -1.843   2.229  0.00  0.00    +0.328 HD
ENDBRANCH  16  22
BRANCH   7  24
ATOM     24  O   UNL     1      -4.953  -0.150  -4.047  0.00  0.00    -0.491 OA
ATOM     25  C   UNL     1      -6.184   0.544  -3.834  0.00  0.00    +0.277 C 
ENDBRANCH   7  24
BRANCH   6  26
ATOM     26  O   UNL     1      -2.543  -1.470  -4.308  0.00  0.00    -0.491 OA
ATOM     27  C   UNL     1      -1.284  -2.142  -4.366  0.00  0.00    +0.277 C 
ENDBRANCH   6  26
TORSDOF 3
