REMARK  Name = ZINC00849625
REMARK  4 active torsions:
REMARK  status: ('A' for Active; 'I' for Inactive)
REMARK    1  A    between atoms: C_6  and  C_27
REMARK    2  A    between atoms: C_7  and  N_9
REMARK    3  A    between atoms: C_10  and  C_12
REMARK    4  A    between atoms: C_12  and  N_13
REMARK                            x       y       z     vdW  Elec       q    Type
REMARK                         _______ _______ _______ _____ _____    ______ ____
ROOT
ATOM      1  N   UNL     1       1.958  -3.300   3.383  0.00  0.00    -0.278 N 
ATOM      2  C   UNL     1       2.879  -3.390   4.363  0.00  0.00    +0.235 C 
ATOM      3  O   UNL     1       3.556  -2.425   4.649  0.00  0.00    -0.274 OA
ATOM      4  H   UNL     1       1.417  -4.072   3.154  0.00  0.00    +0.155 HD
ENDROOT
BRANCH   1  11
ATOM      5  C   UNL     1      -0.019   1.526   0.010  0.00  0.00    +0.005 C 
ATOM      6  C   UNL     1       1.414   2.067  -0.000  0.00  0.00    +0.005 C 
ATOM      7  C   UNL     1       2.067   1.773   1.358  0.00  0.00    +0.043 C 
ATOM      8  C   UNL     1       1.810   0.338   1.702  0.00  0.00    -0.004 A 
ATOM      9  C   UNL     1       0.907  -0.485   1.127  0.00  0.00    -0.018 A 
ATOM     10  C   UNL     1       0.893  -1.829   1.677  0.00  0.00    +0.084 A 
ATOM     11  C   UNL     1       1.783  -2.103   2.702  0.00  0.00    +0.090 A 
ATOM     12  S   UNL     1       2.603  -0.656   2.932  0.00  0.00    -0.077 S 
ATOM     13  C   UNL     1       0.002  -0.004   0.002  0.00  0.00    +0.037 C 
BRANCH  10  14
ATOM     14  C   UNL     1      -0.004  -2.829   1.181  0.00  0.00    +0.102 C 
ATOM     15  N   UNL     1      -0.716  -3.622   0.788  0.00  0.00    -0.191 NA
ENDBRANCH  10  14
ENDBRANCH   1  11
BRANCH   2  16
ATOM     16  C   UNL     1       3.069  -4.689   5.102  0.00  0.00    +0.212 C 
BRANCH  16  17
ATOM     17  N   UNL     1       4.120  -4.529   6.109  0.00  0.00    -0.233 N 
ATOM     18  C   UNL     1       5.423  -4.761   5.856  0.00  0.00    +0.226 C 
ATOM     19  O   UNL     1       5.925  -4.925   4.765  0.00  0.00    -0.275 OA
ATOM     20  C   UNL     1       6.154  -4.779   7.209  0.00  0.00    +0.091 C 
ATOM     21  C   UNL     1       6.062  -6.231   7.684  0.00  0.00    +0.041 C 
ATOM     22  C   UNL     1       5.929  -6.362   9.161  0.00  0.00    -0.011 C 
ATOM     23  C   UNL     1       5.571  -5.409   9.958  0.00  0.00    +0.015 C 
ATOM     24  C   UNL     1       5.288  -4.015   9.495  0.00  0.00    +0.060 C 
ATOM     25  C   UNL     1       5.210  -3.863   8.004  0.00  0.00    +0.093 C 
ATOM     26  C   UNL     1       3.873  -4.129   7.377  0.00  0.00    +0.226 C 
ATOM     27  O   UNL     1       2.787  -4.012   7.903  0.00  0.00    -0.275 OA
ATOM     28 CL   UNL     1       5.411  -5.765  11.650  0.00  0.00    -0.089 Cl
ENDBRANCH  16  17
ENDBRANCH   2  16
TORSDOF 4
