REMARK  Name = ZINC21220951
REMARK  7 active torsions:
REMARK  status: ('A' for Active; 'I' for Inactive)
REMARK    1  A    between atoms: C_1  and  O_2
REMARK    2  A    between atoms: O_2  and  C_3
REMARK    3  A    between atoms: C_6  and  O_35
REMARK    4  A    between atoms: C_7  and  C_9
REMARK    5  A    between atoms: C_14  and  C_24
REMARK    6  A    between atoms: C_29  and  O_30
REMARK    7  A    between atoms: O_35  and  C_36
REMARK                            x       y       z     vdW  Elec       q    Type
REMARK                         _______ _______ _______ _____ _____    ______ ____
ROOT
ATOM      1  C   UNL     1       5.997   4.659  -1.714  0.00  0.00    +0.036 C 
ATOM      2  C   UNL     1       5.574   3.229  -1.384  0.00  0.00    +0.060 C 
ATOM      3  C   UNL     1       4.107   3.201  -0.985  0.00  0.00    +0.017 C 
ATOM      4  C   UNL     1       3.236   4.068  -1.529  0.00  0.00    +0.037 C 
ATOM      5  C   UNL     1       1.756   4.136  -1.239  0.00  0.00    +0.139 C 
ATOM      6  N   UNL     1       1.329   3.350  -0.101  0.00  0.00    -0.331 N 
ATOM      7  C   UNL     1       1.430   1.959  -0.107  0.00  0.00    +0.049 A 
ATOM      8  C   UNL     1       0.305   1.150  -0.102  0.00  0.00    +0.025 A 
ATOM      9  C   UNL     1       0.456  -0.223  -0.195  0.00  0.00    +0.002 A 
ATOM     10  C   UNL     1       1.716  -0.784  -0.294  0.00  0.00    +0.002 A 
ATOM     11  C   UNL     1       2.842   0.022  -0.284  0.00  0.00    +0.025 A 
ATOM     12  C   UNL     1       2.695   1.394  -0.174  0.00  0.00    +0.052 A 
ATOM     13  N   UNL     1       3.784   2.250  -0.074  0.00  0.00    -0.316 N 
ATOM     14  C   UNL     1       3.682   5.033  -2.463  0.00  0.00    +0.163 C 
ATOM     15  O   UNL     1       2.870   5.794  -2.951  0.00  0.00    -0.292 OA
ATOM     16  C   UNL     1       5.120   5.150  -2.871  0.00  0.00    +0.088 C 
ATOM     17  H   UNL     1       0.916   3.849   0.788  0.00  0.00    +0.147 HD
ATOM     18  H   UNL     1       4.404   2.116   0.825  0.00  0.00    +0.152 HD
ENDROOT
BRANCH   5  19
ATOM     19  C   UNL     1       1.009   3.658  -2.458  0.00  0.00    +0.020 A 
ATOM     20  C   UNL     1       1.642   2.851  -3.384  0.00  0.00    +0.029 A 
ATOM     21  C   UNL     1       0.956   2.411  -4.502  0.00  0.00    +0.042 A 
ATOM     22  C   UNL     1      -0.364   2.780  -4.696  0.00  0.00    +0.023 A 
ATOM     23  C   UNL     1      -0.999   3.587  -3.773  0.00  0.00    +0.047 A 
ATOM     24  C   UNL     1      -0.315   4.023  -2.647  0.00  0.00    +0.122 A 
ATOM     25 CL   UNL     1       1.753   1.397  -5.664  0.00  0.00    -0.084 Cl
BRANCH  24  26
ATOM     26  O   UNL     1      -0.941   4.813  -1.735  0.00  0.00    -0.506 OA
ATOM     27  H   UNL     1      -1.991   5.102  -1.886  0.00  0.00    +0.292 HD
ENDBRANCH  24  26
ENDBRANCH   5  19
BRANCH   1  32
ATOM     28  C   UNL     1       9.195   3.970  -3.606  0.00  0.00    +0.121 A 
ATOM     29  C   UNL     1      10.112   4.720  -2.883  0.00  0.00    +0.049 A 
ATOM     30  C   UNL     1       9.697   5.448  -1.786  0.00  0.00    +0.049 A 
ATOM     31  C   UNL     1       8.363   5.429  -1.406  0.00  0.00    +0.124 A 
ATOM     32  C   UNL     1       7.446   4.679  -2.127  0.00  0.00    +0.002 A 
ATOM     33  C   UNL     1       7.863   3.947  -3.222  0.00  0.00    +0.053 A 
BRANCH  28  35
ATOM     34  C   UNL     1      10.992   3.318  -5.021  0.00  0.00    +0.277 C 
ATOM     35  O   UNL     1       9.604   3.253  -4.686  0.00  0.00    -0.495 OA
ENDBRANCH  28  35
BRANCH  31  36
ATOM     36  O   UNL     1       7.954   6.146  -0.325  0.00  0.00    -0.495 OA
ATOM     37  C   UNL     1       8.951   6.896   0.372  0.00  0.00    +0.277 C 
ENDBRANCH  31  36
ENDBRANCH   1  32
TORSDOF 5
