REMARK  Name = ZINC62993114
REMARK  8 active torsions:
REMARK  status: ('A' for Active; 'I' for Inactive)
REMARK    1  A    between atoms: C_1  and  C_2
REMARK    2  A    between atoms: C_2  and  N_3
REMARK    3  A    between atoms: N_3  and  C_4
REMARK    4  A    between atoms: N_3  and  C_6
REMARK    5  A    between atoms: C_4  and  C_5
REMARK    6  A    between atoms: C_9  and  C_12
REMARK    7  A    between atoms: N_24  and  C_27
REMARK    8  A    between atoms: C_27  and  C_28
REMARK                            x       y       z     vdW  Elec       q    Type
REMARK                         _______ _______ _______ _____ _____    ______ ____
ROOT
ATOM      1  C   UNL     1      -1.303  -6.134   0.445  0.00  0.00    +0.058 C 
ATOM      2  C   UNL     1      -1.817  -6.736   1.545  0.00  0.00    +0.176 C 
ATOM      3  C   UNL     1      -1.772  -8.175   1.851  0.00  0.00    +0.231 C 
ATOM      4  O   UNL     1      -1.276  -9.065   1.182  0.00  0.00    -0.283 OA
ATOM      5  C   UNL     1      -2.462  -8.299   3.147  0.00  0.00    +0.068 A 
ATOM      6  C   UNL     1      -2.755  -9.384   3.974  0.00  0.00    +0.019 A 
ATOM      7  C   UNL     1      -3.425  -9.184   5.146  0.00  0.00    +0.047 A 
ATOM      8  C   UNL     1      -3.819  -7.900   5.522  0.00  0.00    +0.130 A 
ATOM      9  C   UNL     1      -3.533  -6.815   4.713  0.00  0.00    +0.051 A 
ATOM     10  C   UNL     1      -2.852  -7.002   3.514  0.00  0.00    +0.147 A 
ATOM     11  O   UNL     1      -2.459  -6.122   2.567  0.00  0.00    -0.451 OA
ATOM     12  C   UNL     1      -3.946  -5.421   5.111  0.00  0.00    +0.130 C 
ATOM     13  N   UNL     1      -4.978  -5.493   6.156  0.00  0.00    -0.262 NA
ATOM     14  C   UNL     1      -4.552  -6.410   7.226  0.00  0.00    +0.319 C 
ATOM     15  O   UNL     1      -4.488  -7.734   6.694  0.00  0.00    -0.476 OA
ENDROOT
BRANCH   1  19
ATOM     16  C   UNL     1      -1.344  -1.906   0.127  0.00  0.00    +0.013 A 
ATOM     17  C   UNL     1      -1.982  -2.522   1.189  0.00  0.00    +0.022 A 
ATOM     18  C   UNL     1      -1.973  -3.896   1.300  0.00  0.00    +0.010 A 
ATOM     19  C   UNL     1      -1.317  -4.668   0.334  0.00  0.00    -0.021 A 
ATOM     20  C   UNL     1      -0.675  -4.037  -0.737  0.00  0.00    +0.010 A 
ATOM     21  C   UNL     1      -0.698  -2.662  -0.836  0.00  0.00    +0.022 A 
BRANCH  16  22
ATOM     22  N   UNL     1      -1.358  -0.512   0.022  0.00  0.00    -0.394 NA
ATOM     23  H   UNL     1      -0.854  -0.232  -0.807  0.00  0.00    +0.126 HD
BRANCH  22  25
ATOM     24  C   UNL     1      -2.758   1.470  -0.306  0.00  0.00    +0.022 C 
ATOM     25  C   UNL     1      -2.746  -0.041  -0.067  0.00  0.00    +0.081 C 
ENDBRANCH  22  25
BRANCH  22  26
ATOM     26  C   UNL     1      -0.716   0.075   1.206  0.00  0.00    +0.081 C 
ATOM     27  C   UNL     1       0.763  -0.315   1.230  0.00  0.00    +0.022 C 
ENDBRANCH  22  26
ENDBRANCH  16  22
ENDBRANCH   1  19
BRANCH  13  28
ATOM     28  C   UNL     1      -5.277  -4.159   6.693  0.00  0.00    +0.123 C 
BRANCH  28  29
ATOM     29  C   UNL     1      -6.497  -4.234   7.575  0.00  0.00    -0.033 A 
ATOM     30  C   UNL     1      -7.754  -4.050   7.031  0.00  0.00    +0.008 A 
ATOM     31  C   UNL     1      -8.874  -4.119   7.839  0.00  0.00    +0.038 A 
ATOM     32  C   UNL     1      -8.736  -4.374   9.193  0.00  0.00    +0.123 A 
ATOM     33  C   UNL     1      -7.475  -4.558   9.736  0.00  0.00    +0.038 A 
ATOM     34  C   UNL     1      -6.358  -4.494   8.926  0.00  0.00    +0.008 A 
ATOM     35  F   UNL     1      -9.829  -4.441   9.983  0.00  0.00    -0.205 F 
ENDBRANCH  28  29
ENDBRANCH  13  28
TORSDOF 6
