REMARK  Name = ZINC36955841
REMARK  5 active torsions:
REMARK  status: ('A' for Active; 'I' for Inactive)
REMARK    1  A    between atoms: C_1  and  C_2
REMARK    2  A    between atoms: C_5  and  C_7
REMARK    3  A    between atoms: C_7  and  C_9
REMARK    4  A    between atoms: C_7  and  N_10
REMARK    5  A    between atoms: C_17  and  N_21
REMARK                            x       y       z     vdW  Elec       q    Type
REMARK                         _______ _______ _______ _____ _____    ______ ____
ROOT
ATOM      1  N   UNL     1       2.210  -4.147   0.855  0.00  0.00    -0.226 N 
ATOM      2  C   UNL     1       3.334  -3.425   0.702  0.00  0.00    +0.254 C 
ATOM      3  O   UNL     1       3.541  -2.611  -0.176  0.00  0.00    -0.270 OA
ATOM      4  C   UNL     1       4.276  -3.789   1.781  0.00  0.00    +0.051 A 
ATOM      5  C   UNL     1       5.554  -3.385   2.127  0.00  0.00    +0.014 A 
ATOM      6  C   UNL     1       6.180  -3.939   3.235  0.00  0.00    +0.003 A 
ATOM      7  C   UNL     1       5.541  -4.893   3.998  0.00  0.00    +0.023 A 
ATOM      8  C   UNL     1       4.251  -5.314   3.667  0.00  0.00    +0.038 A 
ATOM      9  C   UNL     1       3.613  -4.764   2.557  0.00  0.00    +0.070 A 
ATOM     10  C   UNL     1       2.295  -4.954   1.928  0.00  0.00    +0.256 C 
ATOM     11  O   UNL     1       1.429  -5.715   2.313  0.00  0.00    -0.269 OA
ENDROOT
BRANCH   8  12
ATOM     12  N   UNL     1       3.611  -6.274   4.438  0.00  0.00    -0.357 N 
ATOM     13  H   UNL     1       4.058  -6.654   5.209  0.00  0.00    +0.142 HD
ATOM     14  H   UNL     1       2.715  -6.564   4.204  0.00  0.00    +0.142 HD
ENDBRANCH   8  12
BRANCH   1  15
ATOM     15  C   UNL     1       1.043  -4.062  -0.027  0.00  0.00    +0.118 C 
ATOM     16  C   UNL     1       1.452  -4.441  -1.452  0.00  0.00    +0.034 C 
BRANCH  15  21
ATOM     17  C   UNL     1      -0.018   1.503   0.010  0.00  0.00    +0.051 C 
ATOM     18  C   UNL     1       0.002  -0.004   0.002  0.00  0.00    -0.013 A 
ATOM     19  C   UNL     1      -1.039  -0.872   0.002  0.00  0.00    +0.011 A 
ATOM     20  C   UNL     1      -0.780  -2.230  -0.007  0.00  0.00    +0.013 A 
ATOM     21  C   UNL     1       0.507  -2.653  -0.016  0.00  0.00    +0.011 A 
ATOM     22  S   UNL     1       1.404  -1.109  -0.018  0.00  0.00    -0.097 S 
ENDBRANCH  15  21
ENDBRANCH   1  15
TORSDOF 3
