REMARK  Name = ZINC15958441
REMARK  13 active torsions:
REMARK  status: ('A' for Active; 'I' for Inactive)
REMARK    1  A    between atoms: C_1  and  C_2
REMARK    2  A    between atoms: C_5  and  C_36
REMARK    3  A    between atoms: C_6  and  N_8
REMARK    4  A    between atoms: C_9  and  C_11
REMARK    5  A    between atoms: C_11  and  N_73
REMARK    6  A    between atoms: C_14  and  O_35
REMARK    7  A    between atoms: C_21  and  C_23
REMARK    8  A    between atoms: C_25  and  O_33
REMARK    9  A    between atoms: C_26  and  O_31
REMARK   10  A    between atoms: C_27  and  O_29
REMARK   11  A    between atoms: O_29  and  C_30
REMARK   12  A    between atoms: O_31  and  C_32
REMARK   13  A    between atoms: O_33  and  C_34
REMARK                            x       y       z     vdW  Elec       q    Type
REMARK                         _______ _______ _______ _____ _____    ______ ____
ROOT
ATOM      1  C   UNL     1       3.947   2.547   1.387  0.00  0.00    -0.075 C 
ATOM      2  C   UNL     1       5.158   3.462   1.189  0.00  0.00    +0.016 C 
ATOM      3  C   UNL     1       6.381   2.607   0.848  0.00  0.00    +0.066 C 
ATOM      4  C   UNL     1       7.591   3.505   0.593  0.00  0.00    +0.035 C 
ATOM      5  C   UNL     1       8.805   2.634   0.257  0.00  0.00    +0.003 C 
ATOM      6  C   UNL     1       8.510   1.800  -0.991  0.00  0.00    +0.000 C 
ATOM      7  C   UNL     1       7.291   0.910  -0.739  0.00  0.00    +0.005 C 
ATOM      8  C   UNL     1       6.083   1.788  -0.411  0.00  0.00    +0.011 C 
ATOM      9  C   UNL     1       4.851   0.915  -0.163  0.00  0.00    -0.031 C 
ATOM     10  N   UNL     1       3.699   1.793   0.140  0.00  0.00    +0.390 N 
ATOM     11  H   UNL     1       3.577   2.458  -0.633  0.00  0.00    -0.080 HD
ENDROOT
BRANCH   9  12
ATOM     12  C   UNL     1       5.122  -0.021   0.987  0.00  0.00    -0.053 A 
ATOM     13  C   UNL     1       6.172  -0.918   0.913  0.00  0.00    +0.051 A 
ATOM     14  C   UNL     1       6.427  -1.777   1.971  0.00  0.00    +0.165 A 
ATOM     15  C   UNL     1       5.620  -1.744   3.101  0.00  0.00    +0.204 A 
ATOM     16  C   UNL     1       4.562  -0.845   3.169  0.00  0.00    +0.165 A 
ATOM     17  C   UNL     1       4.316   0.014   2.109  0.00  0.00    +0.051 A 
BRANCH  16  18
ATOM     18  O   UNL     1       3.769  -0.809   4.273  0.00  0.00    -0.491 OA
ATOM     19  C   UNL     1       2.701   0.140   4.274  0.00  0.00    +0.277 C 
ENDBRANCH  16  18
BRANCH  15  20
ATOM     20  O   UNL     1       5.864  -2.589   4.139  0.00  0.00    -0.488 OA
ATOM     21  C   UNL     1       5.211  -3.860   4.110  0.00  0.00    +0.277 C 
ENDBRANCH  15  20
BRANCH  14  22
ATOM     22  O   UNL     1       7.463  -2.655   1.899  0.00  0.00    -0.491 OA
ATOM     23  C   UNL     1       8.251  -2.634   0.708  0.00  0.00    +0.277 C 
ENDBRANCH  14  22
ENDBRANCH   9  12
BRANCH   3  24
ATOM     24  O   UNL     1       6.663   1.724   1.936  0.00  0.00    -0.388 OA
ATOM     25  H   UNL     1       6.854   2.176   2.769  0.00  0.00    +0.210 HD
ENDBRANCH   3  24
BRANCH  10  26
ATOM     26  C   UNL     1       2.471   0.984   0.275  0.00  0.00    +0.020 C 
BRANCH  26  28
ATOM     27  N   UNL     1       0.033   1.399   0.304  0.00  0.00    -0.287 N 
ATOM     28  C   UNL     1       1.279   1.905   0.220  0.00  0.00    +0.201 C 
ATOM     29  O   UNL     1       1.441   3.100   0.100  0.00  0.00    -0.278 OA
ATOM     30  H   UNL     1      -0.101   0.438   0.317  0.00  0.00    +0.155 HD
BRANCH  27  36
ATOM     31  C   UNL     1      -1.837   5.801   1.441  0.00  0.00    +0.044 C 
ATOM     32  C   UNL     1      -2.003   4.399   0.915  0.00  0.00    -0.049 A 
ATOM     33  C   UNL     1      -3.247   3.961   0.496  0.00  0.00    +0.004 A 
ATOM     34  C   UNL     1      -3.403   2.675   0.013  0.00  0.00    +0.005 A 
ATOM     35  C   UNL     1      -2.317   1.825  -0.057  0.00  0.00    -0.029 A 
ATOM     36  C   UNL     1      -1.069   2.259   0.369  0.00  0.00    +0.036 A 
ATOM     37  C   UNL     1      -0.915   3.552   0.854  0.00  0.00    +0.027 A 
ATOM     38  C   UNL     1      -2.488   0.425  -0.589  0.00  0.00    +0.045 C 
ENDBRANCH  27  36
ENDBRANCH  26  28
ENDBRANCH  10  26
TORSDOF 8
