REMARK  Name = ZINC32099824
REMARK  4 active torsions:
REMARK  status: ('A' for Active; 'I' for Inactive)
REMARK    1  A    between atoms: C_1  and  O_2
REMARK    2  A    between atoms: O_2  and  C_3
REMARK    3  A    between atoms: C_8  and  C_15
REMARK    4  A    between atoms: C_16  and  N_17
REMARK                            x       y       z     vdW  Elec       q    Type
REMARK                         _______ _______ _______ _____ _____    ______ ____
ROOT
ATOM      1  C   UNL     1      -0.149   1.182   2.379  0.00  0.00    +0.136 A 
ATOM      2  C   UNL     1       1.003   0.391   2.409  0.00  0.00    +0.047 A 
ATOM      3  C   UNL     1       1.557   0.012   3.592  0.00  0.00    +0.013 A 
ATOM      4  C   UNL     1       0.968   0.418   4.803  0.00  0.00    +0.002 A 
ATOM      5  C   UNL     1       1.519   0.042   6.039  0.00  0.00    +0.021 A 
ATOM      6  C   UNL     1       0.886   0.478   7.196  0.00  0.00    +0.014 A 
ATOM      7  C   UNL     1      -0.271   1.273   7.094  0.00  0.00    +0.137 A 
ATOM      8  N   UNL     1      -0.767   1.612   5.931  0.00  0.00    -0.233 NA
ATOM      9  C   UNL     1      -0.201   1.221   4.783  0.00  0.00    +0.090 A 
ATOM     10  C   UNL     1      -0.747   1.601   3.546  0.00  0.00    +0.085 A 
ATOM     11 BR   UNL     1      -2.301   2.678   3.485  0.00  0.00    -0.044 Br
ATOM     12 CL   UNL     1      -1.058   1.815   8.544  0.00  0.00    -0.061 Cl
ENDROOT
BRANCH   1  14
ATOM     13  C   UNL     1      -0.013   1.086   0.008  0.00  0.00    +0.277 C 
ATOM     14  O   UNL     1      -0.682   1.547   1.184  0.00  0.00    -0.494 OA
ENDBRANCH   1  14
BRANCH   6  15
ATOM     15  C   UNL     1       1.423   0.111   8.522  0.00  0.00    +0.035 C 
ATOM     16  C   UNL     1       2.514  -0.638   8.612  0.00  0.00    +0.179 C 
BRANCH  16  17
ATOM     17  N   UNL     1       3.052  -1.006   9.941  0.00  0.00    +0.049 N 
ATOM     18  O   UNL     1       2.493  -0.620  10.953  0.00  0.00    -0.127 OA
ATOM     19  O   UNL     1       4.053  -1.694  10.024  0.00  0.00    -0.127 OA
ENDBRANCH  16  17
ENDBRANCH   6  15
TORSDOF 3
