REMARK  Name = ZINC14467161
REMARK  6 active torsions:
REMARK  status: ('A' for Active; 'I' for Inactive)
REMARK    1  A    between atoms: C_1  and  O_2
REMARK    2  A    between atoms: O_2  and  C_3
REMARK    3  A    between atoms: C_6  and  O_28
REMARK    4  A    between atoms: C_16  and  C_19
REMARK    5  A    between atoms: C_24  and  O_25
REMARK    6  A    between atoms: O_28  and  C_29
REMARK                            x       y       z     vdW  Elec       q    Type
REMARK                         _______ _______ _______ _____ _____    ______ ____
ROOT
ATOM      1  C   UNL     1       1.401   5.070  -1.749  0.00  0.00    +0.126 A 
ATOM      2  C   UNL     1       0.735   5.988  -0.955  0.00  0.00    +0.049 A 
ATOM      3  C   UNL     1       0.990   6.041   0.403  0.00  0.00    +0.051 A 
ATOM      4  C   UNL     1       1.913   5.177   0.962  0.00  0.00    +0.141 A 
ATOM      5  C   UNL     1       2.589   4.250   0.164  0.00  0.00    +0.077 A 
ATOM      6  C   UNL     1       2.331   4.193  -1.193  0.00  0.00    +0.026 A 
ATOM      7  C   UNL     1       3.013   3.219  -2.107  0.00  0.00    +0.052 C 
ATOM      8  C   UNL     1       2.053   2.136  -2.542  0.00  0.00    -0.022 C 
ATOM      9  C   UNL     1       2.658   0.975  -2.579  0.00  0.00    -0.030 C 
ATOM     10  C   UNL     1       4.114   1.121  -2.181  0.00  0.00    +0.033 C 
ATOM     11  C   UNL     1       4.141   2.454  -1.382  0.00  0.00    +0.029 C 
ATOM     12  C   UNL     1       3.695   2.152   0.050  0.00  0.00    +0.109 C 
ATOM     13  N   UNL     1       3.517   3.407   0.780  0.00  0.00    -0.333 N 
ATOM     14  H   UNL     1       3.265   3.233   1.742  0.00  0.00    +0.147 HD
ENDROOT
BRANCH  12  15
ATOM     15  C   UNL     1       2.390   1.399   0.021  0.00  0.00    +0.017 A 
ATOM     16  C   UNL     1       1.193   2.090  -0.008  0.00  0.00    +0.029 A 
ATOM     17  C   UNL     1      -0.005   1.399  -0.034  0.00  0.00    +0.043 A 
ATOM     18  C   UNL     1      -0.009   0.015  -0.032  0.00  0.00    +0.043 A 
ATOM     19  C   UNL     1       1.185  -0.679  -0.003  0.00  0.00    +0.084 A 
ATOM     20  C   UNL     1       2.389   0.012   0.024  0.00  0.00    +0.140 A 
ATOM     21 CL   UNL     1       1.181  -2.416  -0.000  0.00  0.00    -0.080 Cl
ATOM     22 CL   UNL     1      -1.506   2.270  -0.077  0.00  0.00    -0.083 Cl
BRANCH  20  23
ATOM     23  O   UNL     1       3.565  -0.669   0.051  0.00  0.00    -0.505 OA
ATOM     24  H   UNL     1       3.870  -0.962  -0.818  0.00  0.00    +0.292 HD
ENDBRANCH  20  23
ENDBRANCH  12  15
BRANCH   1  26
ATOM     25  C   UNL     1       0.181   5.947  -3.592  0.00  0.00    +0.277 C 
ATOM     26  O   UNL     1       1.145   5.023  -3.083  0.00  0.00    -0.495 OA
ENDBRANCH   1  26
BRANCH   4  27
ATOM     27  O   UNL     1       2.165   5.230   2.299  0.00  0.00    -0.493 OA
ATOM     28  C   UNL     1       1.441   6.200   3.058  0.00  0.00    +0.277 C 
ENDBRANCH   4  27
TORSDOF 4
