REMARK  Name = ZINC36576024
REMARK  4 active torsions:
REMARK  status: ('A' for Active; 'I' for Inactive)
REMARK    1  A    between atoms: C_1  and  C_2
REMARK    2  A    between atoms: N_6  and  C_19
REMARK    3  A    between atoms: N_11  and  C_12
REMARK    4  A    between atoms: C_12  and  C_13
REMARK                            x       y       z     vdW  Elec       q    Type
REMARK                         _______ _______ _______ _____ _____    ______ ____
ROOT
ATOM      1  C   UNL     1      -0.018   1.503   0.010  0.00  0.00    +0.064 C 
ATOM      2  C   UNL     1       0.002  -0.004   0.002  0.00  0.00    +0.034 A 
ATOM      3  C   UNL     1       0.006  -0.678  -1.193  0.00  0.00    +0.088 A 
ATOM      4  C   UNL     1      -0.006  -0.310  -2.605  0.00  0.00    +0.283 A 
ATOM      5  O   UNL     1      -0.024   0.819  -3.067  0.00  0.00    -0.265 OA
ATOM      6  N   UNL     1       0.006  -1.470  -3.297  0.00  0.00    -0.196 N 
ATOM      7  N   UNL     1       0.026  -2.559  -2.422  0.00  0.00    -0.163 NA
ATOM      8  C   UNL     1       0.026  -2.159  -1.177  0.00  0.00    +0.104 A 
ATOM      9  C   UNL     1       0.042  -2.818   0.130  0.00  0.00    +0.100 A 
ATOM     10  C   UNL     1       0.037  -2.042   1.239  0.00  0.00    +0.254 A 
ATOM     11  N   UNL     1       0.022  -0.677   1.166  0.00  0.00    -0.307 N 
ATOM     12  O   UNL     1       0.052  -2.635   2.457  0.00  0.00    -0.268 OA
ENDROOT
BRANCH   6  13
ATOM     13  C   UNL     1       0.001  -1.567  -4.693  0.00  0.00    +0.069 A 
ATOM     14  C   UNL     1      -0.014  -0.416  -5.471  0.00  0.00    +0.029 A 
ATOM     15  C   UNL     1      -0.020  -0.514  -6.848  0.00  0.00    +0.022 A 
ATOM     16  C   UNL     1      -0.011  -1.758  -7.454  0.00  0.00    +0.041 A 
ATOM     17  C   UNL     1       0.003  -2.907  -6.682  0.00  0.00    +0.022 A 
ATOM     18  C   UNL     1       0.015  -2.814  -5.304  0.00  0.00    +0.029 A 
ATOM     19 CL   UNL     1      -0.019  -1.878  -9.186  0.00  0.00    -0.084 Cl
ENDBRANCH   6  13
BRANCH  11  20
ATOM     20  C   UNL     1       0.023   0.088   2.415  0.00  0.00    +0.167 C 
BRANCH  20  21
ATOM     21  C   UNL     1      -1.397   0.331   2.856  0.00  0.00    +0.010 A 
ATOM     22  C   UNL     1      -2.182  -0.426   3.661  0.00  0.00    +0.013 A 
ATOM     23  C   UNL     1      -3.469  -0.002   3.934  0.00  0.00    +0.008 A 
ATOM     24  C   UNL     1      -3.908   1.159   3.388  0.00  0.00    +0.045 A 
ATOM     25  S   UNL     1      -2.480   1.695   2.461  0.00  0.00    -0.100 S 
ENDBRANCH  20  21
ENDBRANCH  11  20
TORSDOF 3
