REMARK  Name = ZINC04892913
REMARK  7 active torsions:
REMARK  status: ('A' for Active; 'I' for Inactive)
REMARK    1  A    between atoms: C_1  and  C_2
REMARK    2  A    between atoms: C_2  and  C_3
REMARK    3  A    between atoms: C_2  and  C_4
REMARK    4  A    between atoms: C_4  and  O_5
REMARK    5  A    between atoms: O_5  and  C_6
REMARK    6  A    between atoms: C_9  and  C_12
REMARK    7  A    between atoms: N_25  and  N_26
REMARK                            x       y       z     vdW  Elec       q    Type
REMARK                         _______ _______ _______ _____ _____    ______ ____
ROOT
ATOM      1  C   UNL     1      -3.860   2.961   0.022  0.00  0.00    +0.162 A 
ATOM      2  N   UNL     1      -3.768   1.653   0.219  0.00  0.00    -0.220 NA
ATOM      3  C   UNL     1      -2.553   1.120   0.212  0.00  0.00    +0.116 A 
ATOM      4  C   UNL     1      -1.365   1.863   0.022  0.00  0.00    +0.077 A 
ATOM      5  C   UNL     1      -0.126   1.107   0.051  0.00  0.00    -0.023 A 
ATOM      6  C   UNL     1      -0.234  -0.229   0.245  0.00  0.00    -0.004 A 
ATOM      7  S   UNL     1      -1.975  -0.536   0.406  0.00  0.00    -0.073 S 
ATOM      8  C   UNL     1       0.878  -1.229   0.309  0.00  0.00    +0.043 C 
ATOM      9  C   UNL     1       2.151  -0.577  -0.249  0.00  0.00    +0.005 C 
ATOM     10  C   UNL     1       2.317   0.803   0.395  0.00  0.00    +0.005 C 
ATOM     11  C   UNL     1       1.244   1.755  -0.132  0.00  0.00    +0.037 C 
ATOM     12  C   UNL     1      -1.501   3.279  -0.170  0.00  0.00    +0.279 A 
ATOM     13  O   UNL     1      -0.536   4.006  -0.333  0.00  0.00    -0.265 OA
ATOM     14  N   UNL     1      -2.768   3.758  -0.159  0.00  0.00    -0.214 N 
ENDROOT
BRANCH   1  18
ATOM     15  C   UNL     1      -7.712   4.750   0.011  0.00  0.00    +0.121 A 
ATOM     16  C   UNL     1      -7.547   3.458  -0.472  0.00  0.00    +0.046 A 
ATOM     17  C   UNL     1      -6.299   2.874  -0.471  0.00  0.00    +0.015 A 
ATOM     18  C   UNL     1      -5.199   3.583   0.018  0.00  0.00    +0.019 A 
ATOM     19  C   UNL     1      -5.370   4.880   0.509  0.00  0.00    +0.015 A 
ATOM     20  C   UNL     1      -6.620   5.458   0.499  0.00  0.00    +0.046 A 
BRANCH  15  21
ATOM     21  O   UNL     1      -8.943   5.322   0.008  0.00  0.00    -0.492 OA
BRANCH  21  22
ATOM     22  C   UNL     1      -9.041   6.653   0.519  0.00  0.00    +0.232 C 
BRANCH  22  24
ATOM     23  C   UNL     1     -11.363   6.271   1.360  0.00  0.00    +0.010 C 
ATOM     24  C   UNL     1     -10.494   7.126   0.435  0.00  0.00    +0.020 C 
ATOM     25  C   UNL     1     -10.579   8.591   0.865  0.00  0.00    +0.010 C 
ENDBRANCH  22  24
ENDBRANCH  21  22
ENDBRANCH  15  21
ENDBRANCH   1  18
BRANCH  14  26
ATOM     26  N   UNL     1      -2.961   5.098  -0.338  0.00  0.00    -0.294 N 
ATOM     27  H   UNL     1      -2.079   5.588  -0.376  0.00  0.00    +0.163 HD
ATOM     28  H   UNL     1      -3.510   5.277  -1.165  0.00  0.00    +0.163 HD
ENDBRANCH  14  26
TORSDOF 5
