REMARK  Name = ZINC21145918
REMARK  12 active torsions:
REMARK  status: ('A' for Active; 'I' for Inactive)
REMARK    1  A    between atoms: C_1  and  C_2
REMARK    2  A    between atoms: C_3  and  C_28
REMARK    3  A    between atoms: C_5  and  N_11
REMARK    4  A    between atoms: C_6  and  C_7
REMARK    5  A    between atoms: C_7  and  O_9
REMARK    6  A    between atoms: O_9  and  C_10
REMARK    7  A    between atoms: C_12  and  C_14
REMARK    8  A    between atoms: C_14  and  S_15
REMARK    9  A    between atoms: S_15  and  C_16
REMARK   10  A    between atoms: C_19  and  C_22
REMARK   11  A    between atoms: N_20  and  N_21
REMARK   12  A    between atoms: C_26  and  C_27
REMARK                            x       y       z     vdW  Elec       q    Type
REMARK                         _______ _______ _______ _____ _____    ______ ____
ROOT
ATOM      1  C   UNL     1      -1.330   1.944   0.019  0.00  0.00    +0.173 C 
ENDROOT
BRANCH   1   3
ATOM      2  N   UNL     1       1.143   1.898   0.001  0.00  0.00    -0.279 N 
ATOM      3  C   UNL     1      -0.014   1.209   0.009  0.00  0.00    +0.228 C 
ATOM      4  O   UNL     1       0.002  -0.004   0.002  0.00  0.00    -0.275 OA
ATOM      5  H   UNL     1       1.129   2.998   0.007  0.00  0.00    +0.155 HD
BRANCH   2  10
ATOM      6  C   UNL     1       6.166   1.262  -0.051  0.00  0.00    +0.045 C 
ATOM      7  C   UNL     1       4.730   0.805  -0.039  0.00  0.00    -0.025 A 
ATOM      8  C   UNL     1       4.410  -0.501  -0.043  0.00  0.00    -0.008 A 
ATOM      9  S   UNL     1       2.630  -0.488  -0.018  0.00  0.00    -0.078 S 
ATOM     10  C   UNL     1       2.353   1.222  -0.014  0.00  0.00    +0.086 A 
ATOM     11  C   UNL     1       3.639   1.751  -0.023  0.00  0.00    +0.091 A 
ATOM     12  C   UNL     1       5.336  -1.690  -0.058  0.00  0.00    +0.052 C 
BRANCH  11  13
ATOM     13  C   UNL     1       3.876   3.196  -0.018  0.00  0.00    +0.342 C 
ATOM     14  O   UNL     1       3.984   3.791   1.037  0.00  0.00    -0.245 OA
BRANCH  13  15
ATOM     15  O   UNL     1       3.973   3.868  -1.184  0.00  0.00    -0.464 OA
ATOM     16  C   UNL     1       4.207   5.298  -1.103  0.00  0.00    +0.280 C 
ENDBRANCH  13  15
ENDBRANCH  11  13
ENDBRANCH   2  10
ENDBRANCH   1   3
BRANCH   1  17
ATOM     17  S   UNL     1      -2.689   0.750   0.019  0.00  0.00    -0.075 S 
BRANCH  17  18
ATOM     18  C   UNL     1      -4.064   1.851   0.031  0.00  0.00    +0.209 A 
ATOM     19  N   UNL     1      -4.012   3.163   0.038  0.00  0.00    -0.121 NA
ATOM     20  N   UNL     1      -5.200   3.653   0.046  0.00  0.00    -0.127 NA
ATOM     21  C   UNL     1      -6.085   2.683   0.046  0.00  0.00    +0.185 A 
ATOM     22  N   UNL     1      -5.386   1.499   0.030  0.00  0.00    -0.224 N 
BRANCH  21  23
ATOM     23  C   UNL     1      -7.556   2.836   0.054  0.00  0.00    +0.061 A 
ATOM     24  C   UNL     1      -8.558   1.763   0.053  0.00  0.00    +0.053 A 
ATOM     25  C   UNL     1      -9.755   2.374   0.063  0.00  0.00    +0.196 A 
ATOM     26  O   UNL     1      -9.568   3.702   0.070  0.00  0.00    -0.467 OA
ATOM     27  C   UNL     1      -8.261   3.999   0.069  0.00  0.00    +0.112 A 
ATOM     28  C   UNL     1      -7.672   5.386   0.081  0.00  0.00    +0.087 C 
ENDBRANCH  21  23
BRANCH  22  29
ATOM     29  N   UNL     1      -5.903   0.235   0.019  0.00  0.00    -0.295 N 
ATOM     30  H   UNL     1      -6.993   0.087   0.020  0.00  0.00    +0.163 HD
ATOM     31  H   UNL     1      -5.230  -0.635   0.010  0.00  0.00    +0.163 HD
ENDBRANCH  22  29
ENDBRANCH  17  18
ENDBRANCH   1  17
TORSDOF 8
