REMARK  Name = ZINC08583404
REMARK  10 active torsions:
REMARK  status: ('A' for Active; 'I' for Inactive)
REMARK    1  A    between atoms: C_1  and  C_2
REMARK    2  A    between atoms: N_5  and  C_8
REMARK    3  A    between atoms: C_8  and  C_9
REMARK    4  A    between atoms: C_9  and  C_10
REMARK    5  A    between atoms: C_10  and  N_11
REMARK    6  A    between atoms: C_12  and  C_14
REMARK    7  A    between atoms: C_14  and  N_15
REMARK    8  A    between atoms: C_18  and  S_26
REMARK    9  A    between atoms: S_26  and  N_29
REMARK   10  A    between atoms: C_32  and  C_35
REMARK                            x       y       z     vdW  Elec       q    Type
REMARK                         _______ _______ _______ _____ _____    ______ ____
ROOT
ATOM      1  N   UNL     1       4.864  -9.463   3.608  0.00  0.00    -0.261 N 
ATOM      2  C   UNL     1       3.914 -10.195   4.315  0.00  0.00    +0.052 A 
ATOM      3  C   UNL     1       2.677  -9.624   4.592  0.00  0.00    +0.053 A 
ATOM      4  C   UNL     1       1.725 -10.335   5.296  0.00  0.00    +0.107 A 
ATOM      5  C   UNL     1       1.990 -11.620   5.732  0.00  0.00    +0.030 A 
ATOM      6  C   UNL     1       3.215 -12.202   5.461  0.00  0.00    +0.018 A 
ATOM      7  C   UNL     1       4.173 -11.495   4.754  0.00  0.00    +0.030 A 
ATOM      8  S   UNL     1       5.736 -12.229   4.392  0.00  0.00    -0.114 S 
ATOM      9  C   UNL     1       6.194 -11.429   2.825  0.00  0.00    +0.170 C 
ATOM     10  C   UNL     1       5.890  -9.959   2.922  0.00  0.00    +0.230 C 
ATOM     11  O   UNL     1       6.623  -9.182   2.346  0.00  0.00    -0.274 OA
ENDROOT
BRANCH   4  12
ATOM     12  S   UNL     1       0.162  -9.599   5.641  0.00  0.00    +0.061 S 
ATOM     13  O   UNL     1      -0.357 -10.264   6.785  0.00  0.00    -0.153 OA
ATOM     14  O   UNL     1       0.358  -8.192   5.602  0.00  0.00    -0.153 OA
BRANCH  12  15
ATOM     15  N   UNL     1      -0.845  -9.972   4.380  0.00  0.00    -0.177 NA
ATOM     16  C   UNL     1      -0.932  -9.092   3.207  0.00  0.00    +0.110 C 
ATOM     17  C   UNL     1      -2.402  -8.731   2.970  0.00  0.00    +0.020 C 
ATOM     18  C   UNL     1      -3.227 -10.015   2.856  0.00  0.00    -0.012 C 
ATOM     19  C   UNL     1      -3.128 -10.805   4.163  0.00  0.00    +0.020 C 
ATOM     20  C   UNL     1      -1.662 -11.193   4.411  0.00  0.00    +0.110 C 
ATOM     21  C   UNL     1      -4.690  -9.659   2.584  0.00  0.00    +0.007 C 
ENDBRANCH  12  15
ENDBRANCH   4  12
BRANCH   1  22
ATOM     22  C   UNL     1       4.716  -8.005   3.617  0.00  0.00    +0.209 C 
BRANCH  22  24
ATOM     23  N   UNL     1       3.577  -6.276   2.265  0.00  0.00    -0.314 N 
ATOM     24  C   UNL     1       3.852  -7.581   2.458  0.00  0.00    +0.231 C 
ATOM     25  O   UNL     1       3.403  -8.414   1.700  0.00  0.00    -0.274 OA
ATOM     26  H   UNL     1       3.936  -5.609   2.871  0.00  0.00    +0.149 HD
BRANCH  23  27
ATOM     27  C   UNL     1       2.736  -5.863   1.138  0.00  0.00    +0.102 C 
BRANCH  27  28
ATOM     28  C   UNL     1       2.582  -4.341   1.147  0.00  0.00    +0.000 C 
BRANCH  28  29
ATOM     29  C   UNL     1       1.704  -3.911  -0.029  0.00  0.00    -0.077 C 
BRANCH  29  34
ATOM     30  C   UNL     1      -0.019   1.526   0.010  0.00  0.00    +0.007 C 
ATOM     31  C   UNL     1       0.002  -0.004   0.002  0.00  0.00    -0.018 C 
ATOM     32  C   UNL     1       0.727  -0.499  -1.252  0.00  0.00    -0.016 C 
ATOM     33  C   UNL     1       0.814  -2.027  -1.215  0.00  0.00    -0.079 C 
ATOM     34  N   UNL     1       1.556  -2.449  -0.021  0.00  0.00    +0.380 N 
ATOM     35  C   UNL     1       0.829  -2.040   1.187  0.00  0.00    -0.079 C 
ATOM     36  C   UNL     1       0.743  -0.513   1.242  0.00  0.00    -0.016 C 
ATOM     37  H   UNL     1       2.469  -2.020  -0.024  0.00  0.00    -0.082 HD
ENDBRANCH  29  34
ENDBRANCH  28  29
ENDBRANCH  27  28
ENDBRANCH  23  27
ENDBRANCH  22  24
ENDBRANCH   1  22
TORSDOF 8
