REMARK  Name = ZINC08894631
REMARK  7 active torsions:
REMARK  status: ('A' for Active; 'I' for Inactive)
REMARK    1  A    between atoms: C_1  and  C_2
REMARK    2  A    between atoms: C_7  and  N_8
REMARK    3  A    between atoms: C_9  and  C_11
REMARK    4  A    between atoms: C_11  and  C_13
REMARK    5  A    between atoms: C_11  and  N_14
REMARK    6  A    between atoms: C_21  and  C_24
REMARK    7  A    between atoms: C_28  and  N_30
REMARK                            x       y       z     vdW  Elec       q    Type
REMARK                         _______ _______ _______ _____ _____    ______ ____
ROOT
ATOM      1  N   UNL     1      -2.440   6.426  -2.702  0.00  0.00    -0.287 N 
ATOM      2  C   UNL     1      -2.303   7.766  -2.528  0.00  0.00    +0.204 A 
ATOM      3  N   UNL     1      -1.520   8.250  -1.602  0.00  0.00    -0.230 NA
ATOM      4  C   UNL     1      -0.829   7.445  -0.799  0.00  0.00    +0.116 A 
ATOM      5  C   UNL     1      -0.906   6.047  -0.904  0.00  0.00    +0.080 A 
ATOM      6  C   UNL     1      -1.774   5.549  -1.929  0.00  0.00    +0.263 A 
ATOM      7  O   UNL     1      -1.907   4.349  -2.097  0.00  0.00    -0.267 OA
ATOM      8  C   UNL     1      -0.088   5.309   0.051  0.00  0.00    +0.004 A 
ATOM      9  C   UNL     1       0.658   6.004   0.943  0.00  0.00    +0.056 A 
ATOM     10  S   UNL     1       0.307   7.704   0.539  0.00  0.00    -0.076 S 
ENDROOT
BRANCH   8  11
ATOM     11  C   UNL     1      -0.077   3.827   0.049  0.00  0.00    -0.014 A 
ATOM     12  C   UNL     1      -1.278   3.118   0.056  0.00  0.00    +0.009 A 
ATOM     13  C   UNL     1      -1.262   1.738   0.048  0.00  0.00    +0.003 A 
ATOM     14  C   UNL     1      -0.057   1.058   0.045  0.00  0.00    +0.033 A 
ATOM     15  C   UNL     1       1.137   1.756   0.038  0.00  0.00    +0.127 A 
ATOM     16  C   UNL     1       1.134   3.136   0.040  0.00  0.00    +0.041 A 
BRANCH  15  17
ATOM     17  N   UNL     1       2.422   1.021   0.029  0.00  0.00    +0.056 N 
ATOM     18  O   UNL     1       2.427  -0.197   0.026  0.00  0.00    -0.126 OA
ATOM     19  O   UNL     1       3.475   1.634   0.022  0.00  0.00    -0.126 OA
ENDBRANCH  15  17
ENDBRANCH   8  11
BRANCH   1  20
ATOM     20  C   UNL     1      -3.330   5.926  -3.752  0.00  0.00    +0.174 C 
ATOM     21  C   UNL     1      -2.852   6.437  -5.113  0.00  0.00    +0.041 C 
BRANCH  20  23
ATOM     22  N   UNL     1      -5.728   6.075  -4.341  0.00  0.00    -0.284 N 
ATOM     23  C   UNL     1      -4.732   6.414  -3.497  0.00  0.00    +0.240 C 
ATOM     24  O   UNL     1      -4.966   7.111  -2.533  0.00  0.00    -0.273 OA
ATOM     25  H   UNL     1      -5.529   5.586  -5.154  0.00  0.00    +0.155 HD
BRANCH  22  32
ATOM     26  C   UNL     1      -7.565   6.344  -6.496  0.00  0.00    +0.045 C 
ATOM     27  C   UNL     1      -7.977   6.573  -5.065  0.00  0.00    -0.029 A 
ATOM     28  C   UNL     1      -9.281   6.918  -4.768  0.00  0.00    +0.006 A 
ATOM     29  C   UNL     1      -9.660   7.134  -3.456  0.00  0.00    +0.020 A 
ATOM     30  C   UNL     1      -8.735   6.998  -2.435  0.00  0.00    +0.043 A 
ATOM     31  C   UNL     1      -7.430   6.647  -2.726  0.00  0.00    +0.043 A 
ATOM     32  C   UNL     1      -7.048   6.431  -4.043  0.00  0.00    +0.038 A 
ATOM     33 CL   UNL     1      -9.214   7.270  -0.789  0.00  0.00    -0.083 Cl
ENDBRANCH  22  32
ENDBRANCH  20  23
ENDBRANCH   1  20
TORSDOF 5
