REMARK  Name = ZINC22023123
REMARK  5 active torsions:
REMARK  status: ('A' for Active; 'I' for Inactive)
REMARK    1  A    between atoms: C_4  and  N_7
REMARK    2  A    between atoms: C_13  and  C_14
REMARK    3  A    between atoms: C_18  and  O_20
REMARK    4  A    between atoms: O_20  and  C_21
REMARK    5  A    between atoms: C_21  and  C_22
REMARK                            x       y       z     vdW  Elec       q    Type
REMARK                         _______ _______ _______ _____ _____    ______ ____
ROOT
ATOM      1  N   UNL     1       8.041   1.715   1.917  0.00  0.00    -0.289 N 
ATOM      2  C   UNL     1       6.705   1.515   1.687  0.00  0.00    +0.181 C 
ATOM      3  N   UNL     1       6.066   0.395   1.946  0.00  0.00    -0.146 NA
ATOM      4  C   UNL     1       4.772   0.506   1.619  0.00  0.00    +0.284 C 
ATOM      5  O   UNL     1       3.910  -0.349   1.739  0.00  0.00    -0.267 OA
ATOM      6  C   UNL     1       4.597   1.871   1.081  0.00  0.00    +0.098 C 
ATOM      7  C   UNL     1       3.456   2.438   0.619  0.00  0.00    +0.036 C 
ATOM      8  N   UNL     1       5.868   2.450   1.160  0.00  0.00    -0.285 N 
ATOM      9  H   UNL     1       8.522   2.647   1.587  0.00  0.00    +0.155 HD
ATOM     10  H   UNL     1       6.254   3.444   0.890  0.00  0.00    +0.155 HD
ENDROOT
BRANCH   1  14
ATOM     11  C   UNL     1      10.279  -1.210   3.863  0.00  0.00    +0.000 A 
ATOM     12  C   UNL     1      10.896  -0.343   2.980  0.00  0.00    +0.002 A 
ATOM     13  C   UNL     1      10.156   0.628   2.333  0.00  0.00    +0.023 A 
ATOM     14  C   UNL     1       8.792   0.733   2.570  0.00  0.00    +0.033 A 
ATOM     15  C   UNL     1       8.177  -0.136   3.462  0.00  0.00    +0.023 A 
ATOM     16  C   UNL     1       8.921  -1.108   4.102  0.00  0.00    +0.002 A 
ENDBRANCH   1  14
BRANCH   7  17
ATOM     17  C   UNL     1       2.245   1.621   0.449  0.00  0.00    -0.020 A 
ATOM     18  C   UNL     1       0.996   2.132   0.817  0.00  0.00    +0.008 A 
ATOM     19  C   UNL     1      -0.137   1.363   0.655  0.00  0.00    +0.004 A 
ATOM     20  C   UNL     1      -0.043   0.086   0.131  0.00  0.00    +0.046 A 
ATOM     21  C   UNL     1       1.193  -0.431  -0.237  0.00  0.00    +0.122 A 
ATOM     22  C   UNL     1       2.338   0.331  -0.081  0.00  0.00    +0.053 A 
BRANCH  21  23
ATOM     23  O   UNL     1       1.277  -1.686  -0.751  0.00  0.00    -0.487 OA
BRANCH  23  24
ATOM     24  C   UNL     1       0.056  -2.417  -0.885  0.00  0.00    +0.266 C 
BRANCH  24  25
ATOM     25  C   UNL     1       0.345  -3.776  -1.467  0.00  0.00    +0.008 A 
ATOM     26  C   UNL     1       1.644  -4.133  -1.779  0.00  0.00    +0.010 A 
ATOM     27  C   UNL     1       1.909  -5.379  -2.313  0.00  0.00    +0.020 A 
ATOM     28  C   UNL     1       0.875  -6.271  -2.537  0.00  0.00    +0.042 A 
ATOM     29  C   UNL     1      -0.424  -5.915  -2.224  0.00  0.00    +0.040 A 
ATOM     30  C   UNL     1      -0.689  -4.669  -1.684  0.00  0.00    +0.049 A 
ATOM     31 CL   UNL     1      -2.319  -4.224  -1.285  0.00  0.00    -0.083 Cl
ATOM     32 CL   UNL     1       1.209  -7.837  -3.208  0.00  0.00    -0.083 Cl
ENDBRANCH  24  25
ENDBRANCH  23  24
ENDBRANCH  21  23
ENDBRANCH   7  17
TORSDOF 5
