REMARK  Name = ZINC46624292
REMARK  10 active torsions:
REMARK  status: ('A' for Active; 'I' for Inactive)
REMARK    1  A    between atoms: C_4  and  N_7
REMARK    2  A    between atoms: N_10  and  C_13
REMARK    3  A    between atoms: C_13  and  C_14
REMARK    4  A    between atoms: C_14  and  C_15
REMARK    5  A    between atoms: C_15  and  N_16
REMARK    6  A    between atoms: C_17  and  C_19
REMARK    7  A    between atoms: C_19  and  C_20
REMARK    8  A    between atoms: C_20  and  C_21
REMARK    9  A    between atoms: C_24  and  S_27
REMARK   10  A    between atoms: S_27  and  N_30
REMARK                            x       y       z     vdW  Elec       q    Type
REMARK                         _______ _______ _______ _____ _____    ______ ____
ROOT
ATOM      1  N   UNL     1       8.421  -5.734   2.597  0.00  0.00    -0.315 N 
ATOM      2  C   UNL     1       9.289  -6.373   3.406  0.00  0.00    +0.213 C 
ATOM      3  O   UNL     1       9.888  -5.756   4.261  0.00  0.00    -0.276 OA
ATOM      4  H   UNL     1       7.942  -6.228   1.913  0.00  0.00    +0.149 HD
ENDROOT
BRANCH   1   5
ATOM      5  C   UNL     1       8.200  -4.294   2.751  0.00  0.00    +0.102 C 
BRANCH   5   6
ATOM      6  C   UNL     1       7.176  -3.822   1.717  0.00  0.00    +0.000 C 
BRANCH   6   7
ATOM      7  C   UNL     1       6.945  -2.318   1.878  0.00  0.00    -0.077 C 
BRANCH   7  11
ATOM      8  N   UNL     1       3.620  -0.649  -0.036  0.00  0.00    -0.333 N 
ATOM      9  C   UNL     1       4.892   0.081  -0.149  0.00  0.00    +0.086 C 
ATOM     10  C   UNL     1       5.830  -0.404   0.961  0.00  0.00    -0.060 C 
ATOM     11  N   UNL     1       5.961  -1.865   0.885  0.00  0.00    +0.382 N 
ATOM     12  C   UNL     1       4.665  -2.498   1.159  0.00  0.00    -0.060 C 
ATOM     13  C   UNL     1       3.669  -2.116   0.065  0.00  0.00    +0.086 C 
ATOM     14  H   UNL     1       6.274  -2.126  -0.038  0.00  0.00    -0.082 HD
BRANCH   8  18
ATOM     15  C   UNL     1      -0.017   1.379   0.011  0.00  0.00    +0.000 A 
ATOM     16  C   UNL     1       0.002  -0.004  -0.011  0.00  0.00    +0.002 A 
ATOM     17  C   UNL     1       1.206  -0.680  -0.027  0.00  0.00    +0.023 A 
ATOM     18  C   UNL     1       2.400   0.031  -0.021  0.00  0.00    +0.030 A 
ATOM     19  C   UNL     1       2.377   1.420   0.002  0.00  0.00    +0.023 A 
ATOM     20  C   UNL     1       1.170   2.089   0.018  0.00  0.00    +0.002 A 
ENDBRANCH   8  18
ENDBRANCH   7  11
ENDBRANCH   6   7
ENDBRANCH   5   6
ENDBRANCH   1   5
BRANCH   2  21
ATOM     21  C   UNL     1       9.516  -7.854   3.248  0.00  0.00    +0.100 C 
BRANCH  21  22
ATOM     22  C   UNL     1      10.541  -8.326   4.281  0.00  0.00    +0.044 C 
BRANCH  22  23
ATOM     23  C   UNL     1      10.768  -9.808   4.123  0.00  0.00    -0.047 A 
ATOM     24  C   UNL     1       9.984 -10.706   4.824  0.00  0.00    +0.005 A 
ATOM     25  C   UNL     1      10.192 -12.065   4.678  0.00  0.00    +0.029 A 
ATOM     26  C   UNL     1      11.184 -12.526   3.833  0.00  0.00    +0.105 A 
ATOM     27  C   UNL     1      11.967 -11.628   3.132  0.00  0.00    +0.029 A 
ATOM     28  C   UNL     1      11.756 -10.269   3.274  0.00  0.00    +0.005 A 
BRANCH  26  29
ATOM     29  S   UNL     1      11.450 -14.258   3.649  0.00  0.00    +0.061 S 
ATOM     30  O   UNL     1      12.795 -14.419   3.219  0.00  0.00    -0.153 OA
ATOM     31  O   UNL     1      10.949 -14.873   4.828  0.00  0.00    -0.153 OA
BRANCH  29  32
ATOM     32  N   UNL     1      10.489 -14.771   2.402  0.00  0.00    -0.177 NA
ATOM     33  C   UNL     1       9.116 -15.228   2.654  0.00  0.00    +0.109 C 
ATOM     34  C   UNL     1       8.161 -14.442   1.749  0.00  0.00    +0.017 C 
ATOM     35  C   UNL     1       8.613 -14.582   0.294  0.00  0.00    +0.003 C 
ATOM     36  C   UNL     1      10.018 -13.998   0.136  0.00  0.00    +0.017 C 
ATOM     37  C   UNL     1      10.992 -14.772   1.021  0.00  0.00    +0.109 C 
ENDBRANCH  29  32
ENDBRANCH  26  29
ENDBRANCH  22  23
ENDBRANCH  21  22
ENDBRANCH   2  21
TORSDOF 10
