REMARK  Name = ZINC37370456
REMARK  8 active torsions:
REMARK  status: ('A' for Active; 'I' for Inactive)
REMARK    1  A    between atoms: C_1  and  C_2
REMARK    2  A    between atoms: C_4  and  S_18
REMARK    3  A    between atoms: C_5  and  C_17
REMARK    4  A    between atoms: C_6  and  C_16
REMARK    5  A    between atoms: C_7  and  O_8
REMARK    6  A    between atoms: O_8  and  C_9
REMARK    7  A    between atoms: C_9  and  C_10
REMARK    8  A    between atoms: S_18  and  N_21
REMARK                            x       y       z     vdW  Elec       q    Type
REMARK                         _______ _______ _______ _____ _____    ______ ____
ROOT
ATOM      1  C   UNL     1      -0.018   1.503   0.010  0.00  0.00    +0.047 C 
ATOM      2  C   UNL     1       0.002  -0.004   0.002  0.00  0.00    -0.007 A 
ATOM      3  C   UNL     1       0.006  -0.689  -1.198  0.00  0.00    +0.035 A 
ATOM      4  C   UNL     1       0.024  -2.071  -1.206  0.00  0.00    +0.109 A 
ATOM      5  C   UNL     1       0.039  -2.772  -0.014  0.00  0.00    -0.018 A 
ATOM      6  C   UNL     1       0.036  -2.092   1.188  0.00  0.00    -0.004 A 
ATOM      7  C   UNL     1       0.023  -0.705   1.199  0.00  0.00    +0.127 A 
ATOM      8  C   UNL     1       0.052  -2.856   2.487  0.00  0.00    +0.048 C 
ATOM      9  C   UNL     1       0.058  -4.279  -0.027  0.00  0.00    +0.046 C 
ENDROOT
BRANCH   4  10
ATOM     10  S   UNL     1       0.027  -2.942  -2.738  0.00  0.00    +0.056 S 
ATOM     11  O   UNL     1      -0.985  -3.935  -2.643  0.00  0.00    -0.153 OA
ATOM     12  O   UNL     1       0.036  -1.958  -3.764  0.00  0.00    -0.153 OA
BRANCH  10  13
ATOM     13  N   UNL     1       1.471  -3.746  -2.841  0.00  0.00    -0.204 NA
ATOM     14  H   UNL     1       2.119  -3.673  -2.123  0.00  0.00    +0.144 HD
ATOM     15  H   UNL     1       1.669  -4.289  -3.620  0.00  0.00    +0.144 HD
ENDBRANCH  10  13
ENDBRANCH   4  10
BRANCH   7  16
ATOM     16  O   UNL     1       0.025  -0.033   2.381  0.00  0.00    -0.491 OA
BRANCH  16  17
ATOM     17  C   UNL     1      -1.246   0.270   2.957  0.00  0.00    +0.232 C 
BRANCH  17  18
ATOM     18  C   UNL     1      -1.043   1.022   4.274  0.00  0.00    +0.027 C 
ATOM     19  C   UNL     1      -0.350   0.105   5.283  0.00  0.00    +0.007 C 
ATOM     20  C   UNL     1      -0.147   0.857   6.600  0.00  0.00    +0.000 C 
ATOM     21  C   UNL     1      -1.505   1.291   7.154  0.00  0.00    +0.000 C 
ATOM     22  C   UNL     1      -2.198   2.209   6.145  0.00  0.00    +0.000 C 
ATOM     23  C   UNL     1      -2.401   1.457   4.828  0.00  0.00    +0.007 C 
ENDBRANCH  17  18
ENDBRANCH  16  17
ENDBRANCH   7  16
TORSDOF 5
