REMARK  Name = ZINC66204056
REMARK  8 active torsions:
REMARK  status: ('A' for Active; 'I' for Inactive)
REMARK    1  A    between atoms: C_1  and  C_2
REMARK    2  A    between atoms: C_5  and  N_8
REMARK    3  A    between atoms: N_8  and  C_9
REMARK    4  A    between atoms: N_17  and  C_18
REMARK    5  A    between atoms: C_18  and  C_19
REMARK    6  A    between atoms: C_22  and  C_27
REMARK    7  A    between atoms: C_24  and  O_25
REMARK    8  A    between atoms: O_25  and  C_26
REMARK                            x       y       z     vdW  Elec       q    Type
REMARK                         _______ _______ _______ _____ _____    ______ ____
ROOT
ATOM      1  C   UNL     1       0.072  -4.908   1.240  0.00  0.00    +0.073 C 
ATOM      2  C   UNL     1      -1.361  -5.074   1.753  0.00  0.00    +0.041 C 
ATOM      3  C   UNL     1      -1.337  -5.816   3.093  0.00  0.00    +0.111 C 
ATOM      4  N   UNL     1      -0.607  -7.080   2.921  0.00  0.00    -0.286 N 
ATOM      5  C   UNL     1       0.747  -7.042   2.350  0.00  0.00    +0.111 C 
ATOM      6  C   UNL     1       0.699  -6.286   1.018  0.00  0.00    +0.041 C 
ATOM      7  C   UNL     1      -1.167  -8.251   3.280  0.00  0.00    +0.302 C 
ATOM      8  O   UNL     1      -2.249  -8.262   3.835  0.00  0.00    -0.253 OA
ATOM      9  N   UNL     1      -0.529  -9.411   3.024  0.00  0.00    -0.295 N 
ATOM     10  H   UNL     1       0.365  -9.399   2.648  0.00  0.00    +0.151 HD
ENDROOT
BRANCH   1  11
ATOM     11  N   UNL     1       0.055  -4.170  -0.025  0.00  0.00    -0.341 N 
ATOM     12  H   UNL     1       0.057  -4.651  -0.867  0.00  0.00    +0.146 HD
BRANCH  11  17
ATOM     13  C   UNL     1      -0.024   1.500   0.001  0.00  0.00    +0.044 C 
ATOM     14  C   UNL     1      -0.003  -0.006  -0.006  0.00  0.00    -0.050 A 
ATOM     15  C   UNL     1       0.000  -0.691  -1.207  0.00  0.00    +0.005 A 
ATOM     16  C   UNL     1       0.019  -2.072  -1.218  0.00  0.00    +0.023 A 
ATOM     17  C   UNL     1       0.035  -2.773  -0.019  0.00  0.00    +0.027 A 
ATOM     18  C   UNL     1       0.032  -2.083   1.187  0.00  0.00    +0.023 A 
ATOM     19  C   UNL     1       0.019  -0.702   1.189  0.00  0.00    +0.005 A 
ENDBRANCH  11  17
ENDBRANCH   1  11
BRANCH   9  20
ATOM     20  C   UNL     1      -1.187 -10.688   3.313  0.00  0.00    +0.146 C 
BRANCH  20  21
ATOM     21  C   UNL     1      -0.267 -11.822   2.938  0.00  0.00    +0.031 A 
ATOM     22  C   UNL     1      -0.434 -12.493   1.739  0.00  0.00    +0.012 A 
ATOM     23  C   UNL     1       0.435 -13.531   1.435  0.00  0.00    +0.023 A 
ATOM     24  C   UNL     1       1.433 -13.860   2.331  0.00  0.00    +0.042 A 
ATOM     25  N   UNL     1       1.567 -13.202   3.466  0.00  0.00    -0.218 NA
ATOM     26  C   UNL     1       0.762 -12.203   3.788  0.00  0.00    +0.219 A 
ATOM     27  C   UNL     1       2.381 -14.986   2.007  0.00  0.00    +0.066 C 
BRANCH  26  28
ATOM     28  O   UNL     1       0.940 -11.549   4.964  0.00  0.00    -0.479 OA
ATOM     29  C   UNL     1       2.016 -11.989   5.795  0.00  0.00    +0.279 C 
ENDBRANCH  26  28
ENDBRANCH  20  21
ENDBRANCH   9  20
TORSDOF 5
