REMARK  Name = ZINC03910997
REMARK  3 active torsions:
REMARK  status: ('A' for Active; 'I' for Inactive)
REMARK    1  A    between atoms: C_1  and  O_2
REMARK    2  A    between atoms: O_2  and  C_3
REMARK    3  A    between atoms: C_6  and  N_9
REMARK                            x       y       z     vdW  Elec       q    Type
REMARK                         _______ _______ _______ _____ _____    ______ ____
ROOT
ATOM      1  N   UNL     1       2.458  -2.458  -4.302  0.00  0.00    -0.243 N 
ATOM      2  C   UNL     1       2.923  -1.735  -5.320  0.00  0.00    +0.231 C 
ATOM      3  O   UNL     1       2.830  -0.525  -5.327  0.00  0.00    -0.274 OA
ATOM      4  C   UNL     1       3.575  -2.484  -6.473  0.00  0.00    +0.168 C 
ATOM      5  S   UNL     1       3.822  -4.143  -5.699  0.00  0.00    -0.111 S 
ATOM      6  C   UNL     1       2.614  -3.908  -4.340  0.00  0.00    +0.192 C 
ATOM      7  C   UNL     1       3.127  -4.488  -3.059  0.00  0.00    +0.017 A 
ATOM      8  C   UNL     1       4.235  -4.248  -2.278  0.00  0.00    +0.009 A 
ATOM      9  C   UNL     1       4.436  -4.973  -1.117  0.00  0.00    +0.000 A 
ATOM     10  C   UNL     1       3.521  -5.939  -0.742  0.00  0.00    +0.002 A 
ATOM     11  C   UNL     1       2.409  -6.184  -1.520  0.00  0.00    +0.024 A 
ATOM     12  C   UNL     1       2.198  -5.459  -2.691  0.00  0.00    +0.040 A 
ATOM     13  N   UNL     1       1.165  -5.521  -3.629  0.00  0.00    -0.282 N 
ATOM     14  C   UNL     1       1.337  -4.636  -4.633  0.00  0.00    +0.256 C 
ATOM     15  O   UNL     1       0.604  -4.464  -5.584  0.00  0.00    -0.272 OA
ATOM     16  H   UNL     1       0.412  -6.129  -3.567  0.00  0.00    +0.155 HD
ENDROOT
BRANCH   1  20
ATOM     17  C   UNL     1       0.607  -0.607  -1.056  0.00  0.00    +0.120 A 
ATOM     18  C   UNL     1       1.990  -0.704  -1.103  0.00  0.00    +0.047 A 
ATOM     19  C   UNL     1       2.604  -1.317  -2.177  0.00  0.00    +0.027 A 
ATOM     20  C   UNL     1       1.836  -1.836  -3.211  0.00  0.00    +0.039 A 
ATOM     21  C   UNL     1       0.452  -1.738  -3.164  0.00  0.00    +0.027 A 
ATOM     22  C   UNL     1      -0.161  -1.130  -2.086  0.00  0.00    +0.047 A 
BRANCH  17  24
ATOM     23  C   UNL     1       0.855   0.514   1.027  0.00  0.00    +0.277 C 
ATOM     24  O   UNL     1       0.003  -0.003   0.002  0.00  0.00    -0.495 OA
ENDBRANCH  17  24
ENDBRANCH   1  20
TORSDOF 2
