REMARK  Name = ZINC54999464
REMARK  7 active torsions:
REMARK  status: ('A' for Active; 'I' for Inactive)
REMARK    1  A    between atoms: C_1  and  C_2
REMARK    2  A    between atoms: C_2  and  C_3
REMARK    3  A    between atoms: C_2  and  C_4
REMARK    4  A    between atoms: C_2  and  C_5
REMARK    5  A    between atoms: C_6  and  C_21
REMARK    6  A    between atoms: C_14  and  C_16
REMARK    7  A    between atoms: C_21  and  N_22
REMARK                            x       y       z     vdW  Elec       q    Type
REMARK                         _______ _______ _______ _____ _____    ______ ____
ROOT
ATOM      1  C   UNL     1       1.042  -0.364  -1.437  0.00  0.00    +0.057 A 
ATOM      2  C   UNL     1       0.917  -1.663  -1.797  0.00  0.00    -0.003 A 
ATOM      3  S   UNL     1       1.803  -1.668  -3.346  0.00  0.00    -0.059 S 
ATOM      4  C   UNL     1       2.234  -0.041  -3.373  0.00  0.00    +0.161 A 
ATOM      5  N   UNL     1       1.710   0.426  -2.260  0.00  0.00    -0.229 NA
ATOM      6  N   UNL     1       2.960   0.642  -4.337  0.00  0.00    -0.306 N 
ATOM      7  C   UNL     1       3.402   2.045  -4.245  0.00  0.00    +0.107 C 
ATOM      8  C   UNL     1       4.630   2.137  -5.185  0.00  0.00    +0.021 C 
ATOM      9  C   UNL     1       4.205   1.197  -6.344  0.00  0.00    +0.024 C 
ATOM     10  C   UNL     1       3.423   0.084  -5.616  0.00  0.00    +0.078 C 
ENDROOT
BRANCH  10  11
ATOM     11  C   UNL     1       2.222  -0.343  -6.462  0.00  0.00    +0.009 C 
ATOM     12  C   UNL     1       2.703  -0.913  -7.812  0.00  0.00    +0.005 C 
ATOM     13  C   UNL     1       1.646  -0.419  -8.832  0.00  0.00    +0.000 C 
ATOM     14  C   UNL     1       1.325   1.009  -8.326  0.00  0.00    +0.000 C 
ATOM     15  C   UNL     1       1.346   0.879  -6.789  0.00  0.00    +0.005 C 
ENDBRANCH  10  11
BRANCH   1  17
ATOM     16  C   UNL     1       0.608   1.681  -0.102  0.00  0.00    +0.017 C 
ATOM     17  C   UNL     1       0.443   0.161  -0.158  0.00  0.00    +0.005 C 
ATOM     18  C   UNL     1       1.156  -0.474   1.038  0.00  0.00    +0.017 C 
ATOM     19  C   UNL     1      -1.045  -0.193  -0.110  0.00  0.00    +0.017 C 
ENDBRANCH   1  17
BRANCH   2  20
ATOM     20  C   UNL     1       0.221  -2.795  -1.085  0.00  0.00    -0.041 C 
BRANCH  20  21
ATOM     21  N   UNL     1      -1.128  -2.967  -1.641  0.00  0.00    +0.381 N 
ATOM     22  H   UNL     1      -1.622  -2.088  -1.604  0.00  0.00    -0.090 HD
ATOM     23  H   UNL     1      -1.060  -3.275  -2.599  0.00  0.00    -0.090 HD
ATOM     24  H   UNL     1      -1.629  -3.657  -1.101  0.00  0.00    -0.090 HD
ENDBRANCH  20  21
ENDBRANCH   2  20
TORSDOF 4
