REMARK  Name = ZINC45019560
REMARK  7 active torsions:
REMARK  status: ('A' for Active; 'I' for Inactive)
REMARK    1  A    between atoms: C_1  and  C_2
REMARK    2  A    between atoms: C_2  and  C_4
REMARK    3  A    between atoms: C_2  and  N_25
REMARK    4  A    between atoms: C_7  and  C_10
REMARK    5  A    between atoms: N_15  and  C_16
REMARK    6  A    between atoms: C_16  and  C_18
REMARK    7  A    between atoms: C_26  and  C_28
REMARK                            x       y       z     vdW  Elec       q    Type
REMARK                         _______ _______ _______ _____ _____    ______ ____
ROOT
ATOM      1  C   UNL     1      -5.398  -1.995   0.043  0.00  0.00    +0.055 A 
ATOM      2  C   UNL     1      -6.125  -2.049   1.182  0.00  0.00    +0.074 A 
ATOM      3  S   UNL     1      -7.668  -2.730   0.605  0.00  0.00    -0.060 S 
ATOM      4  C   UNL     1      -7.285  -2.896  -1.024  0.00  0.00    +0.164 A 
ATOM      5  N   UNL     1      -6.009  -2.431  -1.099  0.00  0.00    -0.335 N 
ATOM      6  N   UNL     1      -8.051  -3.366  -2.007  0.00  0.00    -0.151 NA
ATOM      7  H   UNL     1      -5.539  -2.413  -1.948  0.00  0.00    +0.168 HD
ENDROOT
BRANCH   1  11
ATOM      8  C   UNL     1      -1.412  -0.526   0.013  0.00  0.00    -0.027 A 
ATOM      9  C   UNL     1      -2.121  -0.570   1.200  0.00  0.00    +0.006 A 
ATOM     10  C   UNL     1      -3.416  -1.046   1.216  0.00  0.00    +0.010 A 
ATOM     11  C   UNL     1      -4.010  -1.483   0.032  0.00  0.00    -0.001 A 
ATOM     12  C   UNL     1      -3.289  -1.436  -1.162  0.00  0.00    +0.010 A 
ATOM     13  C   UNL     1      -1.997  -0.953  -1.166  0.00  0.00    +0.006 A 
BRANCH   8  15
ATOM     14  C   UNL     1      -0.019   1.526   0.010  0.00  0.00    +0.033 C 
ATOM     15  C   UNL     1       0.002  -0.004   0.002  0.00  0.00    +0.100 C 
BRANCH  15  16
ATOM     16  N   UNL     1       0.711  -0.489   1.189  0.00  0.00    -0.309 N 
ATOM     17  C   UNL     1       2.054  -0.600   1.174  0.00  0.00    +0.210 C 
ATOM     18  O   UNL     1       2.676  -0.297   0.177  0.00  0.00    -0.276 OA
ATOM     19  C   UNL     1       2.783  -1.099   2.395  0.00  0.00    +0.109 C 
ATOM     20  H   UNL     1       0.213  -0.731   1.986  0.00  0.00    +0.149 HD
ENDBRANCH  15  16
ENDBRANCH   8  15
ENDBRANCH   1  11
BRANCH   6  21
ATOM     21  C   UNL     1      -9.294  -3.776  -1.746  0.00  0.00    +0.289 C 
ATOM     22  O   UNL     1      -9.728  -3.721  -0.608  0.00  0.00    -0.266 OA
BRANCH  21  23
ATOM     23  C   UNL     1     -10.146  -4.299  -2.840  0.00  0.00    +0.148 A 
ATOM     24  C   UNL     1     -11.445  -4.721  -2.563  0.00  0.00    +0.035 A 
ATOM     25  C   UNL     1     -12.229  -5.206  -3.596  0.00  0.00    +0.004 A 
ATOM     26  C   UNL     1     -11.689  -5.254  -4.873  0.00  0.00    +0.021 A 
ATOM     27  C   UNL     1     -10.392  -4.819  -5.077  0.00  0.00    +0.134 A 
ATOM     28  N   UNL     1      -9.668  -4.356  -4.078  0.00  0.00    -0.135 N 
ATOM     29  O   UNL     1      -8.346  -3.915  -4.329  0.00  0.00    -0.164 OA
ENDBRANCH  21  23
ENDBRANCH   6  21
TORSDOF 5
