REMARK  Name = ZINC04075815
REMARK  5 active torsions:
REMARK  status: ('A' for Active; 'I' for Inactive)
REMARK    1  A    between atoms: C_1  and  C_2
REMARK    2  A    between atoms: C_2  and  C_4
REMARK    3  A    between atoms: C_2  and  N_13
REMARK    4  A    between atoms: N_6  and  C_7
REMARK    5  A    between atoms: C_14  and  C_16
REMARK                            x       y       z     vdW  Elec       q    Type
REMARK                         _______ _______ _______ _____ _____    ______ ____
ROOT
ATOM      1  N   UNL     1      -2.103   1.072   1.277  0.00  0.00    -0.304 N 
ATOM      2  C   UNL     1      -2.365  -0.156   1.766  0.00  0.00    +0.220 C 
ATOM      3  O   UNL     1      -1.462  -0.842   2.198  0.00  0.00    -0.275 OA
ATOM      4  H   UNL     1      -2.825   1.620   0.932  0.00  0.00    +0.149 HD
ENDROOT
BRANCH   2   5
ATOM      5  C   UNL     1      -3.779  -0.678   1.777  0.00  0.00    +0.048 C 
ATOM      6  C   UNL     1      -4.314  -0.729   0.345  0.00  0.00    +0.019 C 
ATOM      7  C   UNL     1      -5.750  -1.258   0.356  0.00  0.00    -0.009 C 
ATOM      8  C   UNL     1      -5.770  -2.665   0.958  0.00  0.00    +0.007 C 
ATOM      9  C   UNL     1      -5.234  -2.614   2.390  0.00  0.00    -0.009 C 
ATOM     10  C   UNL     1      -3.799  -2.084   2.379  0.00  0.00    +0.019 C 
ATOM     11  C   UNL     1      -6.114  -1.686   3.231  0.00  0.00    +0.007 C 
ATOM     12  C   UNL     1      -6.093  -0.280   2.629  0.00  0.00    -0.009 C 
ATOM     13  C   UNL     1      -6.629  -0.331   1.196  0.00  0.00    +0.007 C 
ATOM     14  C   UNL     1      -4.658   0.250   2.618  0.00  0.00    +0.019 C 
ENDBRANCH   2   5
BRANCH   1  16
ATOM     15  C   UNL     1      -0.013   1.086   0.008  0.00  0.00    +0.038 C 
ATOM     16  C   UNL     1      -0.729   1.579   1.267  0.00  0.00    +0.156 C 
BRANCH  16  17
ATOM     17  C   UNL     1      -0.749   3.086   1.275  0.00  0.00    +0.233 C 
ATOM     18  O   UNL     1      -1.808   3.678   1.288  0.00  0.00    -0.274 OA
ATOM     19  N   UNL     1       0.409   3.776   1.268  0.00  0.00    -0.311 N 
ATOM     20  H   UNL     1       1.255   3.302   1.257  0.00  0.00    +0.149 HD
BRANCH  19  21
ATOM     21  C   UNL     1       0.389   5.241   1.276  0.00  0.00    +0.073 C 
ATOM     22  C   UNL     1       0.242   5.757  -0.157  0.00  0.00    +0.022 C 
ATOM     23  C   UNL     1       0.222   7.286  -0.149  0.00  0.00    +0.002 C 
ATOM     24  C   UNL     1       1.528   7.811   0.451  0.00  0.00    +0.000 C 
ATOM     25  C   UNL     1       1.674   7.295   1.884  0.00  0.00    +0.002 C 
ATOM     26  C   UNL     1       1.695   5.765   1.876  0.00  0.00    +0.022 C 
ENDBRANCH  19  21
ENDBRANCH  16  17
ENDBRANCH   1  16
TORSDOF 4
