REMARK  Name = ZINC39040770
REMARK  5 active torsions:
REMARK  status: ('A' for Active; 'I' for Inactive)
REMARK    1  A    between atoms: C_4  and  S_7
REMARK    2  A    between atoms: S_7  and  N_10
REMARK    3  A    between atoms: N_10  and  C_11
REMARK    4  A    between atoms: C_17  and  C_21
REMARK    5  A    between atoms: C_21  and  N_23
REMARK                            x       y       z     vdW  Elec       q    Type
REMARK                         _______ _______ _______ _____ _____    ______ ____
ROOT
ATOM      1  C   UNL     1       3.567  -1.942   2.398  0.00  0.00    +0.224 C 
ATOM      2  N   UNL     1       4.381  -2.532   3.469  0.00  0.00    -0.318 N 
ATOM      3  C   UNL     1       4.048  -2.217   4.780  0.00  0.00    +0.043 A 
ATOM      4  C   UNL     1       4.715  -2.691   5.929  0.00  0.00    +0.025 A 
ATOM      5  C   UNL     1       4.315  -2.326   7.188  0.00  0.00    +0.015 A 
ATOM      6  C   UNL     1       3.228  -1.469   7.376  0.00  0.00    +0.040 A 
ATOM      7  C   UNL     1       2.550  -0.987   6.252  0.00  0.00    +0.029 A 
ATOM      8  C   UNL     1       2.962  -1.360   4.997  0.00  0.00    +0.033 A 
ATOM      9  S   UNL     1       2.358  -0.958   3.371  0.00  0.00    -0.084 S 
ATOM     10  H   UNL     1       5.124  -3.122   3.268  0.00  0.00    +0.148 HD
ENDROOT
BRANCH   1  11
ATOM     11  N   UNL     1       4.378  -1.079   1.536  0.00  0.00    -0.160 NA
ATOM     12  H   UNL     1       5.174  -0.651   1.888  0.00  0.00    +0.151 HD
BRANCH  11  13
ATOM     13  S   UNL     1       3.934  -0.832  -0.041  0.00  0.00    +0.061 S 
ATOM     14  O   UNL     1       3.674  -2.114  -0.595  0.00  0.00    -0.153 OA
ATOM     15  O   UNL     1       4.890   0.060  -0.597  0.00  0.00    -0.153 OA
BRANCH  13  19
ATOM     16  C   UNL     1      -0.017   1.378   0.010  0.00  0.00    +0.000 A 
ATOM     17  C   UNL     1       1.171   2.086   0.002  0.00  0.00    +0.002 A 
ATOM     18  C   UNL     1       2.377   1.411  -0.013  0.00  0.00    +0.028 A 
ATOM     19  C   UNL     1       2.396   0.029  -0.020  0.00  0.00    +0.105 A 
ATOM     20  C   UNL     1       1.208  -0.679  -0.012  0.00  0.00    +0.028 A 
ATOM     21  C   UNL     1       0.002  -0.004   0.002  0.00  0.00    +0.002 A 
ENDBRANCH  13  19
ENDBRANCH  11  13
ENDBRANCH   1  11
BRANCH   6  22
ATOM     22  C   UNL     1       2.803  -1.080   8.738  0.00  0.00    +0.269 C 
ATOM     23  O   UNL     1       1.852  -0.332   8.889  0.00  0.00    -0.268 OA
BRANCH  22  24
ATOM     24  N   UNL     1       3.460  -1.549   9.804  0.00  0.00    -0.152 NA
ATOM     25  C   UNL     1       3.078  -1.200  11.027  0.00  0.00    +0.164 A 
ATOM     26  N   UNL     1       3.629  -1.573  12.211  0.00  0.00    -0.335 N 
ATOM     27  H   UNL     1       4.397  -2.166  12.225  0.00  0.00    +0.168 HD
ATOM     28  C   UNL     1       3.093  -1.106  13.396  0.00  0.00    +0.055 A 
ATOM     29  C   UNL     1       3.498  -1.362  14.713  0.00  0.00    +0.027 A 
ATOM     30  C   UNL     1       2.829  -0.799  15.775  0.00  0.00    +0.002 A 
ATOM     31  C   UNL     1       1.740   0.033  15.575  0.00  0.00    +0.001 A 
ATOM     32  C   UNL     1       1.319   0.302  14.284  0.00  0.00    +0.017 A 
ATOM     33  C   UNL     1       1.988  -0.260  13.223  0.00  0.00    +0.039 A 
ATOM     34  S   UNL     1       1.807  -0.189  11.460  0.00  0.00    -0.052 S 
ENDBRANCH  22  24
ENDBRANCH   6  22
TORSDOF 5
