REMARK  Name = ZINC64129712
REMARK  7 active torsions:
REMARK  status: ('A' for Active; 'I' for Inactive)
REMARK    1  A    between atoms: C_3  and  C_6
REMARK    2  A    between atoms: C_6  and  C_7
REMARK    3  A    between atoms: C_7  and  N_8
REMARK    4  A    between atoms: C_12  and  C_14
REMARK    5  A    between atoms: C_14  and  N_15
REMARK    6  A    between atoms: N_18  and  C_21
REMARK    7  A    between atoms: C_21  and  C_22
REMARK                            x       y       z     vdW  Elec       q    Type
REMARK                         _______ _______ _______ _____ _____    ______ ____
ROOT
ATOM      1  N   UNL     1       6.197   2.764   0.876  0.00  0.00    -0.299 N 
ATOM      2  C   UNL     1       6.754   2.971   2.086  0.00  0.00    +0.306 C 
ATOM      3  O   UNL     1       6.093   2.818   3.094  0.00  0.00    -0.252 OA
ATOM      4  N   UNL     1       8.045   3.348   2.177  0.00  0.00    -0.239 N 
ATOM      5  C   UNL     1       8.602   3.555   3.387  0.00  0.00    +0.234 C 
ATOM      6  O   UNL     1       7.943   3.402   4.392  0.00  0.00    -0.274 OA
ATOM      7  H   UNL     1       6.724   2.886   0.072  0.00  0.00    +0.150 HD
ATOM      8  H   UNL     1       8.572   3.471   1.373  0.00  0.00    +0.159 HD
ENDROOT
BRANCH   1   9
ATOM      9  C   UNL     1       4.794   2.354   0.777  0.00  0.00    +0.111 C 
BRANCH   9  10
ATOM     10  C   UNL     1       4.414   2.188  -0.696  0.00  0.00    +0.061 C 
BRANCH  10  13
ATOM     11  C   UNL     1       0.624   1.927  -0.978  0.00  0.00    +0.008 A 
ATOM     12  C   UNL     1       1.861   2.538  -0.894  0.00  0.00    +0.011 A 
ATOM     13  C   UNL     1       2.971   1.767  -0.798  0.00  0.00    -0.009 A 
ATOM     14  S   UNL     1       2.280   0.121  -0.825  0.00  0.00    -0.102 S 
ATOM     15  C   UNL     1       0.558   0.573  -0.962  0.00  0.00    +0.045 A 
ENDBRANCH  10  13
ENDBRANCH   9  10
ENDBRANCH   1   9
BRANCH   5  16
ATOM     16  C   UNL     1      10.046   3.977   3.489  0.00  0.00    +0.180 C 
BRANCH  16  17
ATOM     17  N   UNL     1      10.410   4.136   4.903  0.00  0.00    -0.298 NA
ATOM     18  C   UNL     1      10.379   2.845   5.604  0.00  0.00    +0.066 C 
ATOM     19  C   UNL     1      10.705   3.062   7.083  0.00  0.00    -0.063 C 
ATOM     20  N   UNL     1      12.036   3.672   7.206  0.00  0.00    +0.382 N 
ATOM     21  C   UNL     1      12.044   4.973   6.522  0.00  0.00    -0.063 C 
ATOM     22  C   UNL     1      11.729   4.771   5.038  0.00  0.00    +0.066 C 
ATOM     23  H   UNL     1      12.724   3.067   6.785  0.00  0.00    -0.082 HD
BRANCH  20  24
ATOM     24  C   UNL     1      12.356   3.864   8.626  0.00  0.00    -0.075 C 
BRANCH  24  25
ATOM     25  C   UNL     1      12.493   2.501   9.307  0.00  0.00    -0.028 C 
ATOM     26  C   UNL     1      13.697   1.758   8.725  0.00  0.00    +0.002 C 
ATOM     27  C   UNL     1      13.833   0.395   9.405  0.00  0.00    +0.000 C 
ATOM     28  C   UNL     1      14.035   0.593  10.909  0.00  0.00    +0.000 C 
ATOM     29  C   UNL     1      12.830   1.336  11.491  0.00  0.00    +0.000 C 
ATOM     30  C   UNL     1      12.694   2.699  10.811  0.00  0.00    +0.002 C 
ENDBRANCH  24  25
ENDBRANCH  20  24
ENDBRANCH  16  17
ENDBRANCH   5  16
TORSDOF 7
