REMARK  Name = ZINC06862031
REMARK  1 active torsions:
REMARK  status: ('A' for Active; 'I' for Inactive)
REMARK    1  A    between atoms: C_3  and  C_8
REMARK                            x       y       z     vdW  Elec       q    Type
REMARK                         _______ _______ _______ _____ _____    ______ ____
ROOT
ATOM      1  C   UNL     1       3.672   2.184  -0.021  0.00  0.00    +0.175 C 
ATOM      2  C   UNL     1       4.478   1.826   1.208  0.00  0.00    +0.041 C 
ATOM      3  C   UNL     1       5.572   1.038   1.144  0.00  0.00    +0.020 C 
ATOM      4  C   UNL     1       6.347   0.683   2.392  0.00  0.00    +0.052 C 
ATOM      5  C   UNL     1       6.255   1.832   3.398  0.00  0.00    +0.014 C 
ATOM      6  C   UNL     1       4.776   2.077   3.717  0.00  0.00    +0.080 C 
ATOM      7  C   UNL     1       4.040   2.354   2.436  0.00  0.00    +0.163 C 
ATOM      8  O   UNL     1       3.043   3.049   2.462  0.00  0.00    -0.292 OA
ATOM      9  N   UNL     1       6.031   0.530  -0.048  0.00  0.00    -0.287 N 
ATOM     10  C   UNL     1       5.531   1.070  -1.221  0.00  0.00    +0.218 A 
ATOM     11  N   UNL     1       4.426   1.852  -1.223  0.00  0.00    -0.221 N 
ATOM     12  N   UNL     1       4.210   2.223  -2.550  0.00  0.00    -0.156 NA
ATOM     13  C   UNL     1       5.159   1.662  -3.258  0.00  0.00    +0.247 A 
ATOM     14  N   UNL     1       5.955   0.965  -2.451  0.00  0.00    -0.201 NA
ATOM     15  H   UNL     1       6.687  -0.185  -0.067  0.00  0.00    +0.155 HD
ENDROOT
BRANCH   1  18
ATOM     16  C   UNL     1      -0.017   1.378   0.010  0.00  0.00    +0.002 A 
ATOM     17  C   UNL     1       1.171   2.086   0.002  0.00  0.00    +0.006 A 
ATOM     18  C   UNL     1       2.378   1.412  -0.013  0.00  0.00    -0.017 A 
ATOM     19  C   UNL     1       2.398   0.029  -0.021  0.00  0.00    +0.026 A 
ATOM     20  C   UNL     1       1.210  -0.679  -0.013  0.00  0.00    +0.041 A 
ATOM     21  C   UNL     1       0.002  -0.004   0.002  0.00  0.00    +0.020 A 
ATOM     22 CL   UNL     1       1.234  -2.415  -0.024  0.00  0.00    -0.084 Cl
ENDBRANCH   1  18
TORSDOF 1
