REMARK  Name = ZINC24892665
REMARK  14 active torsions:
REMARK  status: ('A' for Active; 'I' for Inactive)
REMARK    1  A    between atoms: C_1  and  C_2
REMARK    2  A    between atoms: C_2  and  C_4
REMARK    3  A    between atoms: C_2  and  N_10
REMARK    4  A    between atoms: C_4  and  C_5
REMARK    5  A    between atoms: N_10  and  C_11
REMARK    6  A    between atoms: N_10  and  C_20
REMARK    7  A    between atoms: C_11  and  C_12
REMARK    8  A    between atoms: C_15  and  O_18
REMARK    9  A    between atoms: O_18  and  C_19
REMARK   10  A    between atoms: C_20  and  C_21
REMARK   11  A    between atoms: N_23  and  C_24
REMARK   12  A    between atoms: C_24  and  C_25
REMARK   13  A    between atoms: C_28  and  S_31
REMARK   14  A    between atoms: S_31  and  N_34
REMARK                            x       y       z     vdW  Elec       q    Type
REMARK                         _______ _______ _______ _____ _____    ______ ____
ROOT
ATOM      1  N   UNL     1      -1.176   0.863  -4.279  0.00  0.00    +0.390 N 
ATOM      2  H   UNL     1      -1.490  -0.169  -4.062  0.00  0.00    -0.080 HD
ENDROOT
BRANCH   1   4
ATOM      3  C   UNL     1       0.863  -0.392  -4.794  0.00  0.00    -0.013 C 
ATOM      4  C   UNL     1       0.292   0.908  -4.225  0.00  0.00    -0.066 C 
BRANCH   4   5
ATOM      5  C   UNL     1       0.796   2.092  -5.052  0.00  0.00    +0.027 C 
BRANCH   5   6
ATOM      6  C   UNL     1       0.315   3.379  -4.433  0.00  0.00    -0.012 A 
ATOM      7  C   UNL     1       0.846   4.080  -3.401  0.00  0.00    +0.011 A 
ATOM      8  C   UNL     1       0.230   5.251  -3.000  0.00  0.00    +0.008 A 
ATOM      9  C   UNL     1      -0.892   5.658  -3.643  0.00  0.00    +0.045 A 
ATOM     10  S   UNL     1      -1.105   4.372  -4.863  0.00  0.00    -0.102 S 
ENDBRANCH   5   6
ENDBRANCH   4   5
ENDBRANCH   1   4
BRANCH   1  11
ATOM     11  C   UNL     1      -1.664   1.211  -5.620  0.00  0.00    -0.042 C 
BRANCH  11  12
ATOM     12  C   UNL     1      -1.355   0.086  -6.574  0.00  0.00    -0.064 A 
ATOM     13  C   UNL     1      -0.444   0.279  -7.596  0.00  0.00    +0.005 A 
ATOM     14  C   UNL     1      -0.155  -0.752  -8.469  0.00  0.00    +0.046 A 
ATOM     15  C   UNL     1      -0.789  -1.978  -8.327  0.00  0.00    +0.120 A 
ATOM     16  C   UNL     1      -1.707  -2.167  -7.304  0.00  0.00    +0.046 A 
ATOM     17  C   UNL     1      -1.988  -1.134  -6.431  0.00  0.00    +0.005 A 
BRANCH  15  18
ATOM     18  O   UNL     1      -0.510  -2.992  -9.187  0.00  0.00    -0.495 OA
ATOM     19  C   UNL     1       0.446  -2.726 -10.216  0.00  0.00    +0.277 C 
ENDBRANCH  15  18
ENDBRANCH  11  12
ENDBRANCH   1  11
BRANCH   1  20
ATOM     20  C   UNL     1      -1.767   1.739  -3.259  0.00  0.00    +0.019 C 
BRANCH  20  21
ATOM     21  C   UNL     1      -1.587   1.119  -1.898  0.00  0.00    +0.197 C 
ATOM     22  O   UNL     1      -1.112   0.008  -1.796  0.00  0.00    -0.278 OA
ATOM     23  N   UNL     1      -1.953   1.800  -0.793  0.00  0.00    -0.313 N 
ATOM     24  H   UNL     1      -2.383   2.808  -0.886  0.00  0.00    +0.149 HD
BRANCH  23  25
ATOM     25  C   UNL     1      -1.777   1.197   0.530  0.00  0.00    +0.139 C 
BRANCH  25  26
ATOM     26  C   UNL     1      -2.261   2.156   1.587  0.00  0.00    -0.030 A 
ATOM     27  C   UNL     1      -1.385   3.067   2.147  0.00  0.00    +0.007 A 
ATOM     28  C   UNL     1      -1.829   3.950   3.113  0.00  0.00    +0.029 A 
ATOM     29  C   UNL     1      -3.148   3.916   3.527  0.00  0.00    +0.105 A 
ATOM     30  C   UNL     1      -4.023   3.001   2.971  0.00  0.00    +0.029 A 
ATOM     31  C   UNL     1      -3.579   2.121   2.001  0.00  0.00    +0.007 A 
BRANCH  29  32
ATOM     32  S   UNL     1      -3.713   5.038   4.761  0.00  0.00    +0.056 S 
ATOM     33  O   UNL     1      -2.835   6.154   4.729  0.00  0.00    -0.153 OA
ATOM     34  O   UNL     1      -5.117   5.168   4.580  0.00  0.00    -0.153 OA
BRANCH  32  35
ATOM     35  N   UNL     1      -3.492   4.303   6.229  0.00  0.00    -0.204 NA
ATOM     36  H   UNL     1      -3.834   4.974   7.030  0.00  0.00    +0.144 HD
ATOM     37  H   UNL     1      -2.424   4.080   6.369  0.00  0.00    +0.144 HD
ENDBRANCH  32  35
ENDBRANCH  29  32
ENDBRANCH  25  26
ENDBRANCH  23  25
ENDBRANCH  20  21
ENDBRANCH   1  20
TORSDOF 12
