REMARK  Name = ZINC39895330
REMARK  7 active torsions:
REMARK  status: ('A' for Active; 'I' for Inactive)
REMARK    1  A    between atoms: C_1  and  C_2
REMARK    2  A    between atoms: C_6  and  N_8
REMARK    3  A    between atoms: N_8  and  C_9
REMARK    4  A    between atoms: C_10  and  C_27
REMARK    5  A    between atoms: C_14  and  C_21
REMARK    6  A    between atoms: C_15  and  C_19
REMARK    7  A    between atoms: C_16  and  N_18
REMARK                            x       y       z     vdW  Elec       q    Type
REMARK                         _______ _______ _______ _____ _____    ______ ____
ROOT
ATOM      1  C   UNL     1      -0.035  -4.170   2.384  0.00  0.00    +0.085 A 
ATOM      2  C   UNL     1      -0.137  -5.033   3.467  0.00  0.00    +0.091 A 
ATOM      3  C   UNL     1      -0.215  -6.469   3.198  0.00  0.00    +0.095 A 
ATOM      4  C   UNL     1      -0.177  -6.818   1.835  0.00  0.00    +0.049 A 
ATOM      5  S   UNL     1      -0.051  -5.269   0.981  0.00  0.00    -0.071 S 
ATOM      6  C   UNL     1      -0.241  -8.138   1.415  0.00  0.00    +0.019 A 
ATOM      7  C   UNL     1      -0.348  -9.142   2.405  0.00  0.00    +0.100 A 
ATOM      8  C   UNL     1      -0.382  -8.738   3.753  0.00  0.00    +0.135 A 
ATOM      9  N   UNL     1      -0.318  -7.472   4.096  0.00  0.00    -0.230 NA
ENDROOT
BRANCH   2  10
ATOM     10  C   UNL     1      -0.165  -4.522   4.837  0.00  0.00    +0.251 C 
ATOM     11  O   UNL     1      -1.228  -4.244   5.361  0.00  0.00    -0.270 OA
ATOM     12  N   UNL     1       0.987  -4.359   5.519  0.00  0.00    -0.297 N 
ATOM     13  C   UNL     1       2.277  -4.685   4.897  0.00  0.00    +0.108 C 
ATOM     14  C   UNL     1       3.200  -3.468   5.009  0.00  0.00    +0.019 C 
ATOM     15  C   UNL     1       3.298  -3.040   6.475  0.00  0.00    +0.003 C 
ATOM     16  C   UNL     1       1.912  -2.644   6.987  0.00  0.00    +0.019 C 
ATOM     17  C   UNL     1       0.975  -3.847   6.896  0.00  0.00    +0.108 C 
ENDBRANCH   2  10
BRANCH   6  18
ATOM     18  C   UNL     1      -0.201  -8.485  -0.024  0.00  0.00    -0.015 A 
ATOM     19  C   UNL     1      -1.232  -8.082  -0.871  0.00  0.00    +0.008 A 
ATOM     20  C   UNL     1      -1.188  -8.408  -2.211  0.00  0.00    +0.001 A 
ATOM     21  C   UNL     1      -0.124  -9.134  -2.714  0.00  0.00    +0.000 A 
ATOM     22  C   UNL     1       0.903  -9.537  -1.879  0.00  0.00    +0.001 A 
ATOM     23  C   UNL     1       0.873  -9.212  -0.538  0.00  0.00    +0.008 A 
ENDBRANCH   6  18
BRANCH   8  24
ATOM     24  N   UNL     1      -0.486  -9.701   4.744  0.00  0.00    -0.342 N 
ATOM     25  H   UNL     1      -0.534 -10.640   4.505  0.00  0.00    +0.144 HD
ATOM     26  H   UNL     1      -0.510  -9.436   5.677  0.00  0.00    +0.144 HD
ENDBRANCH   8  24
BRANCH   1  27
ATOM     27  N   UNL     1       0.050  -2.797   2.391  0.00  0.00    -0.308 N 
ATOM     28  H   UNL     1      -0.046  -2.310   3.224  0.00  0.00    +0.153 HD
BRANCH  27  34
ATOM     29  C   UNL     1      -0.682   1.188  -0.392  0.00  0.00    +0.044 C 
ATOM     30  C   UNL     1      -0.066  -0.171  -0.178  0.00  0.00    -0.049 A 
ATOM     31  C   UNL     1       0.725  -0.734  -1.163  0.00  0.00    +0.003 A 
ATOM     32  C   UNL     1       1.293  -1.980  -0.970  0.00  0.00    +0.002 A 
ATOM     33  C   UNL     1       1.071  -2.667   0.207  0.00  0.00    +0.023 A 
ATOM     34  C   UNL     1       0.277  -2.104   1.198  0.00  0.00    +0.032 A 
ATOM     35  C   UNL     1      -0.287  -0.850   1.004  0.00  0.00    +0.026 A 
ENDBRANCH  27  34
ENDBRANCH   1  27
BRANCH   7  36
ATOM     36  C   UNL     1      -0.419 -10.527   2.048  0.00  0.00    +0.103 C 
ATOM     37  N   UNL     1      -0.476 -11.626   1.765  0.00  0.00    -0.191 NA
ENDBRANCH   7  36
TORSDOF 6
