REMARK  Name = ZINC41148734
REMARK  2 active torsions:
REMARK  status: ('A' for Active; 'I' for Inactive)
REMARK    1  A    between atoms: N_14  and  S_17
REMARK    2  A    between atoms: S_17  and  C_20
REMARK                            x       y       z     vdW  Elec       q    Type
REMARK                         _______ _______ _______ _____ _____    ______ ____
ROOT
ATOM      1  C   UNL     1      -0.028   1.435  -0.003  0.00  0.00    +0.001 A 
ATOM      2  C   UNL     1       0.010   0.044  -0.027  0.00  0.00    +0.002 A 
ATOM      3  C   UNL     1      -1.140  -0.689  -0.021  0.00  0.00    +0.028 A 
ATOM      4  C   UNL     1      -2.378  -0.035   0.011  0.00  0.00    +0.078 A 
ATOM      5  C   UNL     1      -2.414   1.381   0.035  0.00  0.00    +0.039 A 
ATOM      6  C   UNL     1      -1.217   2.104   0.032  0.00  0.00    +0.013 A 
ATOM      7  C   UNL     1      -3.678   2.021   0.066  0.00  0.00    +0.111 A 
ATOM      8  N   UNL     1      -4.766   1.264   0.072  0.00  0.00    -0.315 N 
ATOM      9  C   UNL     1      -4.687  -0.064   0.049  0.00  0.00    +0.197 A 
ATOM     10  N   UNL     1      -3.537  -0.711   0.018  0.00  0.00    -0.216 NA
ATOM     11  N   UNL     1      -5.859  -0.798   0.057  0.00  0.00    -0.299 N 
ATOM     12  C   UNL     1      -7.162  -0.126  -0.043  0.00  0.00    +0.125 C 
ATOM     13  C   UNL     1      -7.932  -0.724  -1.227  0.00  0.00    +0.128 C 
ATOM     14  N   UNL     1      -7.897  -2.189  -1.119  0.00  0.00    -0.174 NA
ATOM     15  C   UNL     1      -6.594  -2.861  -1.019  0.00  0.00    +0.128 C 
ATOM     16  C   UNL     1      -5.824  -2.263   0.160  0.00  0.00    +0.125 C 
ATOM     17  N   UNL     1      -3.774   3.395   0.091  0.00  0.00    -0.316 N 
ATOM     18  C   UNL     1      -3.745   4.170  -1.157  0.00  0.00    +0.106 C 
ATOM     19  C   UNL     1      -4.977   5.080  -1.202  0.00  0.00    +0.019 C 
ATOM     20  C   UNL     1      -5.023   5.933   0.068  0.00  0.00    +0.003 C 
ATOM     21  C   UNL     1      -5.138   5.023   1.292  0.00  0.00    +0.019 C 
ATOM     22  C   UNL     1      -3.914   4.113   1.365  0.00  0.00    +0.106 C 
ATOM     23  H   UNL     1      -5.638   1.687   0.093  0.00  0.00    +0.170 HD
ENDROOT
BRANCH  14  24
ATOM     24  S   UNL     1      -9.301  -3.067  -1.109  0.00  0.00    +0.061 S 
ATOM     25  O   UNL     1      -9.008  -4.294  -0.456  0.00  0.00    -0.153 OA
ATOM     26  O   UNL     1     -10.325  -2.191  -0.660  0.00  0.00    -0.153 OA
BRANCH  24  27
ATOM     27  C   UNL     1      -9.678  -3.466  -2.784  0.00  0.00    +0.106 A 
ATOM     28  C   UNL     1     -10.454  -2.608  -3.540  0.00  0.00    +0.030 A 
ATOM     29  C   UNL     1     -10.750  -2.920  -4.854  0.00  0.00    +0.022 A 
ATOM     30  C   UNL     1     -10.269  -4.091  -5.411  0.00  0.00    +0.041 A 
ATOM     31  C   UNL     1      -9.492  -4.949  -4.654  0.00  0.00    +0.022 A 
ATOM     32  C   UNL     1      -9.192  -4.633  -3.342  0.00  0.00    +0.030 A 
ATOM     33 CL   UNL     1     -10.641  -4.484  -7.061  0.00  0.00    -0.084 Cl
ENDBRANCH  24  27
ENDBRANCH  14  24
TORSDOF 2
