REMARK  Name = ZINC16973683
REMARK  7 active torsions:
REMARK  status: ('A' for Active; 'I' for Inactive)
REMARK    1  A    between atoms: C_1  and  C_2
REMARK    2  A    between atoms: C_5  and  N_8
REMARK    3  A    between atoms: N_12  and  N_13
REMARK    4  A    between atoms: N_13  and  C_14
REMARK    5  A    between atoms: N_22  and  C_25
REMARK    6  A    between atoms: C_30  and  O_31
REMARK    7  A    between atoms: O_31  and  C_32
REMARK                            x       y       z     vdW  Elec       q    Type
REMARK                         _______ _______ _______ _____ _____    ______ ____
ROOT
ATOM      1  N   UNL     1       0.643   4.941  -1.524  0.00  0.00    -0.216 N 
ATOM      2  C   UNL     1       0.258   5.683  -0.465  0.00  0.00    +0.282 C 
ATOM      3  O   UNL     1      -0.242   6.781  -0.620  0.00  0.00    -0.267 OA
ATOM      4  C   UNL     1       0.461   5.126   0.887  0.00  0.00    +0.206 C 
ATOM      5  N   UNL     1       0.109   5.795   1.968  0.00  0.00    -0.172 NA
ATOM      6  C   UNL     1       1.076   3.787   0.976  0.00  0.00    +0.282 C 
ATOM      7  O   UNL     1       1.275   3.260   2.054  0.00  0.00    -0.267 OA
ATOM      8  N   UNL     1       1.410   3.162  -0.173  0.00  0.00    -0.212 N 
ATOM      9  C   UNL     1       1.201   3.732  -1.367  0.00  0.00    +0.158 C 
ATOM     10  S   UNL     1       1.664   2.867  -2.770  0.00  0.00    -0.017 S 
ENDROOT
BRANCH   1  15
ATOM     11  C   UNL     1      -0.096   6.996  -6.762  0.00  0.00    +0.044 C 
ATOM     12  C   UNL     1       0.100   6.450  -5.371  0.00  0.00    -0.050 A 
ATOM     13  C   UNL     1      -0.918   5.745  -4.756  0.00  0.00    +0.005 A 
ATOM     14  C   UNL     1      -0.741   5.243  -3.482  0.00  0.00    +0.024 A 
ATOM     15  C   UNL     1       0.461   5.448  -2.817  0.00  0.00    +0.043 A 
ATOM     16  C   UNL     1       1.480   6.162  -3.435  0.00  0.00    +0.024 A 
ATOM     17  C   UNL     1       1.298   6.656  -4.711  0.00  0.00    +0.005 A 
ENDBRANCH   1  15
BRANCH   8  18
ATOM     18  C   UNL     1       1.995   1.889  -0.115  0.00  0.00    +0.085 A 
ATOM     19  C   UNL     1       1.196   0.755  -0.130  0.00  0.00    +0.027 A 
ATOM     20  C   UNL     1       1.775  -0.498  -0.073  0.00  0.00    +0.002 A 
ATOM     21  C   UNL     1       3.151  -0.626  -0.001  0.00  0.00    +0.004 A 
ATOM     22  C   UNL     1       3.953   0.499   0.014  0.00  0.00    +0.047 A 
ATOM     23  C   UNL     1       3.380   1.760  -0.043  0.00  0.00    +0.142 A 
BRANCH  23  24
ATOM     24  O   UNL     1       4.168   2.868  -0.028  0.00  0.00    -0.493 OA
ATOM     25  C   UNL     1       5.580   2.659   0.046  0.00  0.00    +0.277 C 
ENDBRANCH  23  24
ENDBRANCH   8  18
BRANCH   5  26
ATOM     26  N   UNL     1      -0.338   7.001   1.863  0.00  0.00    -0.237 N 
ATOM     27  H   UNL     1      -0.328   7.449   1.003  0.00  0.00    +0.174 HD
BRANCH  26  28
ATOM     28  C   UNL     1      -0.835   7.661   2.988  0.00  0.00    +0.048 A 
ATOM     29  C   UNL     1      -0.855   7.019   4.220  0.00  0.00    +0.025 A 
ATOM     30  C   UNL     1      -1.342   7.677   5.332  0.00  0.00    +0.002 A 
ATOM     31  C   UNL     1      -1.821   8.970   5.218  0.00  0.00    +0.000 A 
ATOM     32  C   UNL     1      -1.808   9.610   3.992  0.00  0.00    +0.002 A 
ATOM     33  C   UNL     1      -1.317   8.960   2.877  0.00  0.00    +0.025 A 
ENDBRANCH  26  28
ENDBRANCH   5  26
TORSDOF 5
