REMARK  Name = ZINC07737569
REMARK  6 active torsions:
REMARK  status: ('A' for Active; 'I' for Inactive)
REMARK    1  A    between atoms: C_1  and  N_2
REMARK    2  A    between atoms: N_2  and  S_3
REMARK    3  A    between atoms: S_3  and  C_6
REMARK    4  A    between atoms: C_9  and  N_15
REMARK    5  A    between atoms: C_10  and  N_12
REMARK    6  A    between atoms: N_15  and  C_16
REMARK                            x       y       z     vdW  Elec       q    Type
REMARK                         _______ _______ _______ _____ _____    ______ ____
ROOT
ATOM      1  C   UNL     1      -1.391   2.659  -1.491  0.00  0.00    +0.108 A 
ATOM      2  C   UNL     1      -1.236   4.033  -1.484  0.00  0.00    +0.030 A 
ATOM      3  C   UNL     1      -1.517   4.767  -2.619  0.00  0.00    +0.027 A 
ATOM      4  C   UNL     1      -1.967   4.124  -3.766  0.00  0.00    +0.062 A 
ATOM      5  C   UNL     1      -2.126   2.744  -3.768  0.00  0.00    +0.149 A 
ATOM      6  C   UNL     1      -1.838   2.016  -2.631  0.00  0.00    +0.063 A 
ENDROOT
BRANCH   1   7
ATOM      7  S   UNL     1      -1.024   1.725  -0.042  0.00  0.00    +0.058 S 
ATOM      8  O   UNL     1      -1.776   0.522  -0.133  0.00  0.00    -0.153 OA
ATOM      9  O   UNL     1      -1.145   2.618   1.057  0.00  0.00    -0.153 OA
BRANCH   7  11
ATOM     10  C   UNL     1       1.612   2.325  -0.093  0.00  0.00    +0.127 C 
ATOM     11  N   UNL     1       0.572   1.294  -0.128  0.00  0.00    -0.193 NA
ATOM     12  H   UNL     1       0.818   0.359  -0.206  0.00  0.00    +0.148 HD
ENDBRANCH   7  11
ENDBRANCH   1   7
BRANCH   5  13
ATOM     13  N   UNL     1      -2.606   2.055  -4.987  0.00  0.00    +0.058 N 
ATOM     14  O   UNL     1      -2.845   0.862  -4.958  0.00  0.00    -0.126 OA
ATOM     15  O   UNL     1      -2.760   2.682  -6.020  0.00  0.00    -0.126 OA
ENDBRANCH   5  13
BRANCH   4  16
ATOM     16  N   UNL     1      -2.257   4.864  -4.915  0.00  0.00    -0.313 N 
ATOM     17  H   UNL     1      -1.540   5.146  -5.504  0.00  0.00    +0.152 HD
BRANCH  16  18
ATOM     18  C   UNL     1      -3.581   5.198  -5.215  0.00  0.00    +0.033 A 
ATOM     19  C   UNL     1      -4.602   4.850  -4.339  0.00  0.00    +0.025 A 
ATOM     20  C   UNL     1      -5.909   5.185  -4.635  0.00  0.00    +0.023 A 
ATOM     21  C   UNL     1      -6.203   5.857  -5.809  0.00  0.00    +0.059 A 
ATOM     22  C   UNL     1      -5.189   6.200  -6.686  0.00  0.00    +0.061 A 
ATOM     23  C   UNL     1      -3.879   5.872  -6.392  0.00  0.00    +0.044 A 
ATOM     24 CL   UNL     1      -5.562   7.044  -8.157  0.00  0.00    -0.082 Cl
ATOM     25 CL   UNL     1      -7.848   6.271  -6.180  0.00  0.00    -0.082 Cl
ENDBRANCH  16  18
ENDBRANCH   4  16
TORSDOF 5
