REMARK  Name = ZINC00925140
REMARK  9 active torsions:
REMARK  status: ('A' for Active; 'I' for Inactive)
REMARK    1  A    between atoms: C_1  and  C_2
REMARK    2  A    between atoms: C_2  and  O_3
REMARK    3  A    between atoms: O_3  and  C_4
REMARK    4  A    between atoms: C_4  and  C_6
REMARK    5  A    between atoms: C_7  and  C_28
REMARK    6  A    between atoms: C_9  and  N_27
REMARK    7  A    between atoms: C_10  and  C_25
REMARK    8  A    between atoms: C_11  and  C_13
REMARK    9  A    between atoms: C_17  and  C_24
REMARK                            x       y       z     vdW  Elec       q    Type
REMARK                         _______ _______ _______ _____ _____    ______ ____
ROOT
ATOM      1  C   UNL     1       1.636  -2.379   2.336  0.00  0.00    +0.087 C 
ATOM      2  C   UNL     1       1.483  -3.679   2.618  0.00  0.00    +0.115 C 
ATOM      3  O   UNL     1       1.946  -4.224   3.752  0.00  0.00    -0.445 OA
ATOM      4  C   UNL     1       2.223  -3.429   4.800  0.00  0.00    +0.198 C 
ATOM      5  C   UNL     1       2.419  -2.096   4.652  0.00  0.00    +0.098 C 
ATOM      6  C   UNL     1       2.330  -1.451   3.296  0.00  0.00    +0.107 C 
ATOM      7  C   UNL     1       0.772  -4.560   1.623  0.00  0.00    +0.087 C 
ENDROOT
BRANCH   6   8
ATOM      8  C   UNL     1       3.719  -1.155   2.790  0.00  0.00    +0.003 A 
ATOM      9  C   UNL     1       4.612  -2.172   2.609  0.00  0.00    +0.017 A 
ATOM     10  C   UNL     1       5.898  -1.851   2.135  0.00  0.00    +0.001 A 
ATOM     11  C   UNL     1       6.868  -2.844   1.925  0.00  0.00    +0.013 A 
ATOM     12  C   UNL     1       8.101  -2.493   1.466  0.00  0.00    -0.050 A 
ATOM     13  C   UNL     1       8.413  -1.161   1.201  0.00  0.00    +0.005 A 
ATOM     14  C   UNL     1       7.497  -0.173   1.394  0.00  0.00    +0.028 A 
ATOM     15  C   UNL     1       6.213  -0.495   1.867  0.00  0.00    +0.073 A 
ATOM     16  N   UNL     1       5.293   0.454   2.066  0.00  0.00    -0.235 NA
ATOM     17  C   UNL     1       4.091   0.158   2.502  0.00  0.00    +0.134 A 
ATOM     18 CL   UNL     1       2.937   1.434   2.732  0.00  0.00    -0.062 Cl
ATOM     19  C   UNL     1       9.141  -3.560   1.240  0.00  0.00    +0.044 C 
ENDBRANCH   6   8
BRANCH   4  20
ATOM     20  N   UNL     1       2.310  -3.982   6.053  0.00  0.00    -0.328 N 
ATOM     21  H   UNL     1       2.509  -3.420   6.818  0.00  0.00    +0.145 HD
ATOM     22  H   UNL     1       2.172  -4.935   6.173  0.00  0.00    +0.145 HD
ENDBRANCH   4  20
BRANCH   1  23
ATOM     23  C   UNL     1       1.130  -1.867   1.116  0.00  0.00    +0.339 C 
ATOM     24  O   UNL     1       0.125  -1.180   1.114  0.00  0.00    -0.245 OA
BRANCH  23  25
ATOM     25  O   UNL     1       1.762  -2.140  -0.044  0.00  0.00    -0.462 OA
BRANCH  25  27
ATOM     26  C   UNL     1       2.043  -2.006  -2.441  0.00  0.00    +0.048 C 
ATOM     27  C   UNL     1       1.196  -1.591  -1.236  0.00  0.00    +0.229 C 
ENDBRANCH  25  27
ENDBRANCH  23  25
ENDBRANCH   1  23
BRANCH   5  28
ATOM     28  C   UNL     1       2.714  -1.293   5.801  0.00  0.00    +0.101 C 
ATOM     29  N   UNL     1       2.947  -0.656   6.712  0.00  0.00    -0.191 NA
ENDBRANCH   5  28
TORSDOF 6
