REMARK  Name = ZINC62977199
REMARK  12 active torsions:
REMARK  status: ('A' for Active; 'I' for Inactive)
REMARK    1  A    between atoms: C_1  and  C_2
REMARK    2  A    between atoms: C_2  and  N_3
REMARK    3  A    between atoms: N_3  and  C_4
REMARK    4  A    between atoms: N_3  and  C_6
REMARK    5  A    between atoms: C_4  and  C_5
REMARK    6  A    between atoms: C_9  and  C_12
REMARK    7  A    between atoms: C_17  and  C_35
REMARK    8  A    between atoms: C_19  and  O_34
REMARK    9  A    between atoms: C_20  and  C_23
REMARK   10  A    between atoms: C_23  and  N_24
REMARK   11  A    between atoms: C_26  and  C_33
REMARK   12  A    between atoms: C_29  and  C_32
REMARK                            x       y       z     vdW  Elec       q    Type
REMARK                         _______ _______ _______ _____ _____    ______ ____
ROOT
ATOM      1  C   UNL     1      -1.303  -6.134   0.445  0.00  0.00    +0.058 C 
ATOM      2  C   UNL     1      -1.817  -6.736   1.545  0.00  0.00    +0.176 C 
ATOM      3  C   UNL     1      -2.521  -6.069   2.653  0.00  0.00    +0.232 C 
ATOM      4  O   UNL     1      -2.763  -4.881   2.776  0.00  0.00    -0.283 OA
ATOM      5  C   UNL     1      -2.869  -7.162   3.580  0.00  0.00    +0.071 A 
ATOM      6  C   UNL     1      -3.535  -7.197   4.806  0.00  0.00    -0.033 A 
ATOM      7  C   UNL     1      -3.713  -8.389   5.449  0.00  0.00    +0.050 A 
ATOM      8  C   UNL     1      -3.232  -9.567   4.885  0.00  0.00    +0.122 A 
ATOM      9  C   UNL     1      -2.569  -9.547   3.669  0.00  0.00    +0.020 A 
ATOM     10  C   UNL     1      -2.379  -8.343   3.001  0.00  0.00    +0.145 A 
ATOM     11  O   UNL     1      -1.781  -8.060   1.823  0.00  0.00    -0.451 OA
ATOM     12  C   UNL     1      -4.057  -5.923   5.418  0.00  0.00    +0.045 C 
ENDROOT
BRANCH   1  16
ATOM     13  C   UNL     1      -1.165  -1.902   0.213  0.00  0.00    +0.013 A 
ATOM     14  C   UNL     1      -1.491  -2.643  -0.911  0.00  0.00    +0.022 A 
ATOM     15  C   UNL     1      -1.538  -4.019  -0.844  0.00  0.00    +0.010 A 
ATOM     16  C   UNL     1      -1.255  -4.667   0.364  0.00  0.00    -0.021 A 
ATOM     17  C   UNL     1      -0.926  -3.910   1.495  0.00  0.00    +0.010 A 
ATOM     18  C   UNL     1      -0.879  -2.535   1.410  0.00  0.00    +0.022 A 
BRANCH  13  19
ATOM     19  N   UNL     1      -1.120  -0.507   0.136  0.00  0.00    -0.394 NA
ATOM     20  H   UNL     1      -0.865  -0.129   1.036  0.00  0.00    +0.126 HD
BRANCH  19  22
ATOM     21  C   UNL     1       0.015   1.420  -0.861  0.00  0.00    +0.022 C 
ATOM     22  C   UNL     1      -0.124  -0.103  -0.865  0.00  0.00    +0.081 C 
ENDBRANCH  19  22
BRANCH  19  23
ATOM     23  C   UNL     1      -2.441   0.005  -0.253  0.00  0.00    +0.081 C 
ATOM     24  C   UNL     1      -3.454  -0.307   0.850  0.00  0.00    +0.022 C 
ENDBRANCH  19  23
ENDBRANCH  13  19
ENDBRANCH   1  16
BRANCH   8  25
ATOM     25  O   UNL     1      -3.413 -10.746   5.533  0.00  0.00    -0.506 OA
ATOM     26  H   UNL     1      -4.234 -11.200   5.300  0.00  0.00    +0.292 HD
ENDBRANCH   8  25
BRANCH   9  27
ATOM     27  C   UNL     1      -2.053 -10.830   3.071  0.00  0.00    -0.036 C 
BRANCH  27  28
ATOM     28  N   UNL     1      -3.090 -11.424   2.216  0.00  0.00    +0.383 N 
ATOM     29  C   UNL     1      -4.242 -11.806   3.042  0.00  0.00    -0.075 C 
ATOM     30  C   UNL     1      -5.357 -12.351   2.147  0.00  0.00    -0.031 C 
ATOM     31  C   UNL     1      -4.842 -13.577   1.387  0.00  0.00    +0.003 C 
ATOM     32  C   UNL     1      -3.596 -13.184   0.588  0.00  0.00    -0.031 C 
ATOM     33  C   UNL     1      -2.546 -12.608   1.541  0.00  0.00    -0.075 C 
ATOM     34  C   UNL     1      -3.971 -12.131  -0.457  0.00  0.00    +0.005 C 
ATOM     35  C   UNL     1      -6.556 -12.750   3.010  0.00  0.00    +0.005 C 
ATOM     36  H   UNL     1      -3.383 -10.749   1.526  0.00  0.00    -0.081 HD
ENDBRANCH  27  28
ENDBRANCH   9  27
TORSDOF 7
