REMARK  Name = ZINC06194813
REMARK  7 active torsions:
REMARK  status: ('A' for Active; 'I' for Inactive)
REMARK    1  A    between atoms: C_1  and  C_2
REMARK    2  A    between atoms: C_6  and  C_15
REMARK    3  A    between atoms: C_13  and  C_14
REMARK    4  A    between atoms: C_15  and  C_17
REMARK    5  A    between atoms: C_15  and  N_72
REMARK    6  A    between atoms: N_21  and  C_22
REMARK    7  A    between atoms: N_30  and  C_33
REMARK                            x       y       z     vdW  Elec       q    Type
REMARK                         _______ _______ _______ _____ _____    ______ ____
ROOT
ATOM      1  C   UNL     1      -0.800   1.987  -1.118  0.00  0.00    +0.039 C 
ENDROOT
BRANCH   1   7
ATOM      2  C   UNL     1      -5.187   7.966  -0.326  0.00  0.00    +0.044 C 
ATOM      3  C   UNL     1      -3.818   7.345  -0.431  0.00  0.00    -0.047 A 
ATOM      4  C   UNL     1      -3.698   5.993  -0.588  0.00  0.00    +0.013 A 
ATOM      5  C   UNL     1      -2.427   5.417  -0.686  0.00  0.00    -0.001 A 
ATOM      6  C   UNL     1      -2.262   3.972  -0.856  0.00  0.00    +0.017 A 
ATOM      7  C   UNL     1      -1.005   3.470  -0.944  0.00  0.00    +0.011 A 
ATOM      8  C   UNL     1       0.111   4.330  -0.868  0.00  0.00    +0.251 A 
ATOM      9  O   UNL     1       1.232   3.857  -0.945  0.00  0.00    -0.268 OA
ATOM     10  N   UNL     1      -0.031   5.659  -0.717  0.00  0.00    -0.322 N 
ATOM     11  H   UNL     1       0.758   6.222  -0.672  0.00  0.00    +0.169 HD
ATOM     12  C   UNL     1      -1.281   6.232  -0.621  0.00  0.00    +0.049 A 
ATOM     13  C   UNL     1      -1.428   7.606  -0.460  0.00  0.00    +0.030 A 
ATOM     14  C   UNL     1      -2.691   8.152  -0.366  0.00  0.00    -0.046 A 
ATOM     15  C   UNL     1      -2.848   9.640  -0.192  0.00  0.00    +0.044 C 
ENDBRANCH   1   7
BRANCH   1  21
ATOM     16  C   UNL     1       0.386   0.061  -0.254  0.00  0.00    -0.058 C 
ATOM     17  C   UNL     1       1.394  -0.396   0.802  0.00  0.00    +0.086 C 
ATOM     18  N   UNL     1       0.850  -0.132   2.142  0.00  0.00    -0.331 N 
ATOM     19  C   UNL     1       0.572   1.300   2.321  0.00  0.00    +0.086 C 
ATOM     20  C   UNL     1      -0.436   1.757   1.265  0.00  0.00    -0.058 C 
ATOM     21  N   UNL     1       0.132   1.506  -0.077  0.00  0.00    +0.391 N 
ATOM     22  H   UNL     1       1.020   2.014  -0.163  0.00  0.00    -0.080 HD
BRANCH  18  23
ATOM     23  C   UNL     1       1.714  -0.603   3.135  0.00  0.00    +0.065 A 
ATOM     24  C   UNL     1       1.350  -0.517   4.472  0.00  0.00    +0.026 A 
ATOM     25  C   UNL     1       2.204  -0.987   5.452  0.00  0.00    +0.002 A 
ATOM     26  C   UNL     1       3.425  -1.534   5.103  0.00  0.00    +0.003 A 
ATOM     27  C   UNL     1       3.795  -1.618   3.773  0.00  0.00    +0.040 A 
ATOM     28  C   UNL     1       2.943  -1.154   2.787  0.00  0.00    +0.144 A 
ATOM     29  F   UNL     1       3.304  -1.235   1.488  0.00  0.00    -0.204 F 
ENDBRANCH  18  23
ENDBRANCH   1  21
BRANCH   1  30
ATOM     30  C   UNL     1      -0.200   1.720  -2.474  0.00  0.00    +0.143 A 
ATOM     31  N   UNL     1       1.041   1.935  -2.837  0.00  0.00    -0.115 NA
ATOM     32  N   UNL     1       1.163   1.577  -4.069  0.00  0.00    -0.023 NA
ATOM     33  N   UNL     1       0.031   1.146  -4.503  0.00  0.00    -0.044 NA
ATOM     34  N   UNL     1      -0.835   1.218  -3.550  0.00  0.00    -0.227 N 
BRANCH  34  35
ATOM     35  C   UNL     1      -2.245   0.827  -3.623  0.00  0.00    +0.111 C 
ATOM     36  C   UNL     1      -2.345  -0.658  -3.977  0.00  0.00    +0.027 C 
ATOM     37  C   UNL     1      -3.817  -1.067  -4.054  0.00  0.00    +0.002 C 
ATOM     38  C   UNL     1      -4.521  -0.238  -5.130  0.00  0.00    +0.000 C 
ATOM     39  C   UNL     1      -4.421   1.248  -4.777  0.00  0.00    +0.002 C 
ATOM     40  C   UNL     1      -2.949   1.656  -4.700  0.00  0.00    +0.027 C 
ENDBRANCH  34  35
ENDBRANCH   1  30
TORSDOF 5
