REMARK  Name = ZINC39567358
REMARK  13 active torsions:
REMARK  status: ('A' for Active; 'I' for Inactive)
REMARK    1  A    between atoms: C_1  and  C_2
REMARK    2  A    between atoms: C_2  and  C_4
REMARK    3  A    between atoms: C_2  and  N_28
REMARK    4  A    between atoms: C_7  and  S_16
REMARK    5  A    between atoms: N_8  and  C_9
REMARK    6  A    between atoms: S_16  and  C_17
REMARK    7  A    between atoms: C_17  and  C_18
REMARK    8  A    between atoms: N_23  and  C_24
REMARK    9  A    between atoms: C_24  and  C_25
REMARK   10  A    between atoms: C_25  and  C_26
REMARK   11  A    between atoms: C_25  and  C_27
REMARK   12  A    between atoms: N_28  and  C_29
REMARK   13  A    between atoms: N_28  and  C_30
REMARK                            x       y       z     vdW  Elec       q    Type
REMARK                         _______ _______ _______ _____ _____    ______ ____
ROOT
ATOM      1  C   UNL     1       0.731  -0.503   1.223  0.00  0.00    +0.125 A 
ATOM      2  N   UNL     1       2.020  -0.483   1.415  0.00  0.00    -0.135 NA
ATOM      3  N   UNL     1       2.304  -0.986   2.563  0.00  0.00    -0.122 NA
ATOM      4  C   UNL     1       1.202  -1.359   3.173  0.00  0.00    +0.197 A 
ATOM      5  N   UNL     1       0.161  -1.057   2.339  0.00  0.00    -0.275 N 
ENDROOT
BRANCH   5   6
ATOM      6  C   UNL     1      -1.204  -1.273   2.575  0.00  0.00    +0.050 A 
ATOM      7  C   UNL     1      -2.070  -0.193   2.683  0.00  0.00    +0.028 A 
ATOM      8  C   UNL     1      -3.415  -0.407   2.915  0.00  0.00    +0.022 A 
ATOM      9  C   UNL     1      -3.899  -1.698   3.041  0.00  0.00    +0.041 A 
ATOM     10  C   UNL     1      -3.038  -2.776   2.934  0.00  0.00    +0.022 A 
ATOM     11  C   UNL     1      -1.693  -2.566   2.696  0.00  0.00    +0.028 A 
ATOM     12 CL   UNL     1      -5.589  -1.964   3.334  0.00  0.00    -0.084 Cl
ENDBRANCH   5   6
BRANCH   1  14
ATOM     13  C   UNL     1      -0.019   1.526   0.010  0.00  0.00    -0.005 C 
ATOM     14  C   UNL     1       0.002  -0.004   0.002  0.00  0.00    -0.003 C 
BRANCH  14  15
ATOM     15  N   UNL     1       0.690  -0.478  -1.207  0.00  0.00    +0.382 N 
ATOM     16  C   UNL     1       0.710  -1.947  -1.215  0.00  0.00    -0.096 C 
ATOM     17  C   UNL     1      -0.021   0.009  -2.397  0.00  0.00    -0.096 C 
ATOM     18  H   UNL     1       1.636  -0.129  -1.214  0.00  0.00    -0.082 HD
ENDBRANCH  14  15
ENDBRANCH   1  14
BRANCH   4  19
ATOM     19  S   UNL     1       1.087  -2.101   4.767  0.00  0.00    -0.076 S 
BRANCH  19  20
ATOM     20  C   UNL     1       2.809  -2.211   5.326  0.00  0.00    +0.173 C 
BRANCH  20  21
ATOM     21  C   UNL     1       2.854  -2.837   6.696  0.00  0.00    +0.231 C 
ATOM     22  O   UNL     1       1.825  -3.175   7.242  0.00  0.00    -0.274 OA
ATOM     23  N   UNL     1       4.037  -3.021   7.315  0.00  0.00    -0.240 N 
ATOM     24  C   UNL     1       4.077  -3.580   8.540  0.00  0.00    +0.306 C 
ATOM     25  O   UNL     1       3.046  -3.919   9.088  0.00  0.00    -0.252 OA
ATOM     26  N   UNL     1       5.260  -3.764   9.159  0.00  0.00    -0.299 N 
ATOM     27  H   UNL     1       4.860  -2.751   6.878  0.00  0.00    +0.159 HD
ATOM     28  H   UNL     1       6.082  -3.494   8.722  0.00  0.00    +0.150 HD
BRANCH  26  29
ATOM     29  C   UNL     1       5.303  -4.372  10.491  0.00  0.00    +0.108 C 
BRANCH  29  30
ATOM     30  C   UNL     1       6.756  -4.465  10.962  0.00  0.00    -0.000 C 
ATOM     31  C   UNL     1       6.793  -4.984  12.401  0.00  0.00    +0.009 C 
ATOM     32  C   UNL     1       7.526  -5.426  10.054  0.00  0.00    +0.009 C 
ENDBRANCH  29  30
ENDBRANCH  26  29
ENDBRANCH  20  21
ENDBRANCH  19  20
ENDBRANCH   4  19
TORSDOF 8
