REMARK  Name = ZINC09783882
REMARK  15 active torsions:
REMARK  status: ('A' for Active; 'I' for Inactive)
REMARK    1  A    between atoms: C_1  and  C_2
REMARK    2  A    between atoms: C_2  and  C_3
REMARK    3  A    between atoms: C_3  and  C_5
REMARK    4  A    between atoms: C_3  and  O_6
REMARK    5  A    between atoms: O_6  and  C_7
REMARK    6  A    between atoms: C_7  and  C_9
REMARK    7  A    between atoms: C_9  and  C_10
REMARK    8  A    between atoms: N_17  and  C_18
REMARK    9  A    between atoms: C_18  and  N_20
REMARK   10  A    between atoms: C_21  and  C_23
REMARK   11  A    between atoms: C_26  and  O_30
REMARK   12  A    between atoms: O_30  and  C_31
REMARK   13  A    between atoms: C_31  and  C_32
REMARK   14  A    between atoms: C_32  and  C_33
REMARK   15  A    between atoms: C_32  and  C_34
REMARK                            x       y       z     vdW  Elec       q    Type
REMARK                         _______ _______ _______ _____ _____    ______ ____
ROOT
ATOM      1  C   UNL     1      -0.102   4.759  -1.033  0.00  0.00    +0.140 C 
ATOM      2  S   UNL     1       1.375   5.599  -1.246  0.00  0.00    -0.018 S 
ENDROOT
BRANCH   1   9
ATOM      3  C   UNL     1      -1.458   3.082   0.146  0.00  0.00    +0.171 C 
ATOM      4  C   UNL     1      -1.235   1.595   0.200  0.00  0.00    +0.234 C 
ATOM      5  O   UNL     1      -2.203   0.864   0.196  0.00  0.00    -0.274 OA
ATOM      6  N   UNL     1      -0.022   1.044   0.258  0.00  0.00    -0.312 N 
ATOM      7  C   UNL     1       1.228   1.786   0.174  0.00  0.00    +0.123 C 
ATOM      8  C   UNL     1       1.016   3.252   0.557  0.00  0.00    +0.126 C 
ATOM      9  N   UNL     1      -0.178   3.744  -0.150  0.00  0.00    -0.299 N 
ATOM     10  H   UNL     1       0.032   0.081   0.359  0.00  0.00    +0.149 HD
BRANCH   3  11
ATOM     11  C   UNL     1      -1.990   3.575   1.494  0.00  0.00    +0.152 C 
BRANCH  11  12
ATOM     12  C   UNL     1      -2.346   5.035   1.389  0.00  0.00    +0.310 C 
ATOM     13  O   UNL     1      -2.110   5.644   0.372  0.00  0.00    -0.251 OA
BRANCH  12  14
ATOM     14  O   UNL     1      -2.927   5.660   2.425  0.00  0.00    -0.462 OA
BRANCH  14  15
ATOM     15  C   UNL     1      -3.243   7.067   2.254  0.00  0.00    +0.173 C 
ATOM     16  C   UNL     1      -4.654   7.207   1.679  0.00  0.00    +0.052 C 
BRANCH  15  18
ATOM     17  C   UNL     1      -1.732   7.743   4.126  0.00  0.00    +0.007 C 
ATOM     18  C   UNL     1      -3.171   7.774   3.609  0.00  0.00    +0.041 C 
ENDBRANCH  15  18
ENDBRANCH  14  15
ENDBRANCH  12  14
ENDBRANCH  11  12
ENDBRANCH   3  11
ENDBRANCH   1   9
BRANCH   1  19
ATOM     19  N   UNL     1      -1.188   5.112  -1.749  0.00  0.00    -0.264 N 
ATOM     20  C   UNL     1      -1.086   6.056  -2.707  0.00  0.00    +0.250 C 
ATOM     21  O   UNL     1      -0.014   6.588  -2.924  0.00  0.00    -0.270 OA
ATOM     22  H   UNL     1      -2.042   4.688  -1.576  0.00  0.00    +0.157 HD
BRANCH  20  23
ATOM     23  C   UNL     1      -2.274   6.443  -3.490  0.00  0.00    +0.038 A 
ATOM     24  C   UNL     1      -3.506   5.828  -3.246  0.00  0.00    +0.017 A 
ATOM     25  C   UNL     1      -4.614   6.197  -3.974  0.00  0.00    +0.047 A 
ATOM     26  C   UNL     1      -4.507   7.169  -4.962  0.00  0.00    +0.134 A 
ATOM     27  C   UNL     1      -3.283   7.779  -5.213  0.00  0.00    +0.060 A 
ATOM     28  C   UNL     1      -2.170   7.420  -4.484  0.00  0.00    +0.032 A 
ATOM     29 BR   UNL     1      -3.145   9.102  -6.557  0.00  0.00    -0.046 Br
BRANCH  26  30
ATOM     30  O   UNL     1      -5.601   7.525  -5.682  0.00  0.00    -0.491 OA
BRANCH  30  31
ATOM     31  C   UNL     1      -6.827   6.859  -5.372  0.00  0.00    +0.232 C 
BRANCH  31  32
ATOM     32  C   UNL     1      -7.939   7.389  -6.280  0.00  0.00    +0.020 C 
ATOM     33  C   UNL     1      -7.632   7.016  -7.732  0.00  0.00    +0.010 C 
ATOM     34  C   UNL     1      -9.274   6.768  -5.866  0.00  0.00    +0.010 C 
ENDBRANCH  31  32
ENDBRANCH  30  31
ENDBRANCH  26  30
ENDBRANCH  20  23
ENDBRANCH   1  19
TORSDOF 11
