REMARK  Name = ZINC56387866
REMARK  7 active torsions:
REMARK  status: ('A' for Active; 'I' for Inactive)
REMARK    1  A    between atoms: C_1  and  C_2
REMARK    2  A    between atoms: C_2  and  C_21
REMARK    3  A    between atoms: C_3  and  C_4
REMARK    4  A    between atoms: N_6  and  N_7
REMARK    5  A    between atoms: C_8  and  C_10
REMARK    6  A    between atoms: C_10  and  C_11
REMARK    7  A    between atoms: N_19  and  C_20
REMARK                            x       y       z     vdW  Elec       q    Type
REMARK                         _______ _______ _______ _____ _____    ______ ____
ROOT
ATOM      1  N   UNL     1       0.082  -4.229   2.314  0.00  0.00    -0.234 N 
ATOM      2  C   UNL     1       0.102  -4.909   3.478  0.00  0.00    +0.236 C 
ATOM      3  O   UNL     1       0.104  -4.308   4.531  0.00  0.00    -0.274 OA
ATOM      4  H   UNL     1       0.080  -4.709   1.472  0.00  0.00    +0.173 HD
ENDROOT
BRANCH   1   7
ATOM      5  C   UNL     1       0.042  -2.148   1.158  0.00  0.00    +0.253 C 
ATOM      6  O   UNL     1       0.040  -2.751   0.101  0.00  0.00    -0.269 OA
ATOM      7  N   UNL     1       0.062  -2.828   2.322  0.00  0.00    -0.231 N 
ATOM      8  H   UNL     1       0.064  -2.348   3.164  0.00  0.00    +0.173 HD
BRANCH   5  11
ATOM      9  C   UNL     1      -0.018   1.503   0.010  0.00  0.00    +0.044 C 
ATOM     10  C   UNL     1       0.002  -0.004   0.002  0.00  0.00    -0.036 C 
ATOM     11  C   UNL     1       0.022  -0.685   1.167  0.00  0.00    +0.072 C 
BRANCH  10  12
ATOM     12  C   UNL     1      -0.000  -0.733  -1.276  0.00  0.00    +0.013 A 
ATOM     13  C   UNL     1      -1.165  -1.364  -1.724  0.00  0.00    +0.011 A 
ATOM     14  C   UNL     1      -1.160  -2.044  -2.922  0.00  0.00    +0.001 A 
ATOM     15  C   UNL     1      -0.005  -2.105  -3.684  0.00  0.00    +0.003 A 
ATOM     16  C   UNL     1       1.152  -1.485  -3.251  0.00  0.00    +0.039 A 
ATOM     17  C   UNL     1       1.163  -0.793  -2.054  0.00  0.00    +0.131 A 
ATOM     18  F   UNL     1       2.292  -0.183  -1.634  0.00  0.00    -0.205 F 
ENDBRANCH  10  12
ENDBRANCH   5  11
ENDBRANCH   1   7
BRANCH   2  19
ATOM     19  C   UNL     1       0.122  -6.416   3.469  0.00  0.00    +0.171 C 
BRANCH  19  20
ATOM     20  C   UNL     1       0.143  -6.926   4.887  0.00  0.00    +0.119 A 
ATOM     21  N   UNL     1       1.219  -7.158   5.580  0.00  0.00    -0.232 NA
ATOM     22  C   UNL     1       0.878  -7.608   6.815  0.00  0.00    +0.089 A 
ATOM     23  C   UNL     1       1.616  -8.000   7.936  0.00  0.00    +0.030 A 
ATOM     24  C   UNL     1       0.970  -8.417   9.065  0.00  0.00    +0.002 A 
ATOM     25  C   UNL     1      -0.417  -8.456   9.113  0.00  0.00    +0.002 A 
ATOM     26  C   UNL     1      -1.165  -8.075   8.020  0.00  0.00    +0.028 A 
ATOM     27  C   UNL     1      -0.525  -7.647   6.864  0.00  0.00    +0.069 A 
ATOM     28  N   UNL     1      -0.962  -7.205   5.631  0.00  0.00    -0.330 N 
ATOM     29  C   UNL     1      -2.356  -7.064   5.202  0.00  0.00    +0.150 C 
ENDBRANCH  19  20
ENDBRANCH   2  19
TORSDOF 5
