REMARK  Name = ZINC65551221
REMARK  3 active torsions:
REMARK  status: ('A' for Active; 'I' for Inactive)
REMARK    1  A    between atoms: C_1  and  C_2
REMARK    2  A    between atoms: C_3  and  C_9
REMARK    3  A    between atoms: C_4  and  C_8
REMARK                            x       y       z     vdW  Elec       q    Type
REMARK                         _______ _______ _______ _____ _____    ______ ____
ROOT
ATOM      1  C   UNL     1      -0.005  -0.375  -2.517  0.00  0.00    +0.032 C 
ATOM      2  C   UNL     1       0.898  -0.878  -3.397  0.00  0.00    +0.080 C 
ATOM      3  C   UNL     1       1.085  -0.586  -4.835  0.00  0.00    +0.276 C 
ATOM      4  O   UNL     1       0.375   0.212  -5.427  0.00  0.00    -0.267 OA
ATOM      5  N   UNL     1       2.056  -1.233  -5.442  0.00  0.00    -0.154 NA
ATOM      6  C   UNL     1       2.832  -2.101  -4.812  0.00  0.00    +0.154 C 
ATOM      7  S   UNL     1       2.203  -2.074  -3.140  0.00  0.00    -0.052 S 
ATOM      8  N   UNL     1       3.870  -2.838  -5.319  0.00  0.00    -0.311 N 
ATOM      9  C   UNL     1       4.620  -3.764  -4.459  0.00  0.00    +0.107 C 
ATOM     10  C   UNL     1       4.627  -5.149  -5.114  0.00  0.00    +0.019 C 
ATOM     11  C   UNL     1       5.172  -5.032  -6.539  0.00  0.00    +0.003 C 
ATOM     12  C   UNL     1       4.265  -4.113  -7.361  0.00  0.00    +0.019 C 
ATOM     13  C   UNL     1       4.251  -2.721  -6.733  0.00  0.00    +0.107 C 
ENDROOT
BRANCH   1  16
ATOM     14  C   UNL     1      -0.018   1.503   0.010  0.00  0.00    +0.065 C 
ATOM     15  C   UNL     1       0.002  -0.004   0.002  0.00  0.00    +0.040 A 
ATOM     16  C   UNL     1       0.008  -0.818  -1.117  0.00  0.00    +0.019 A 
ATOM     17  C   UNL     1       0.029  -2.156  -0.659  0.00  0.00    +0.067 A 
ATOM     18  N   UNL     1       0.035  -2.136   0.646  0.00  0.00    -0.178 NA
ATOM     19  N   UNL     1       0.024  -0.806   1.081  0.00  0.00    -0.281 N 
ATOM     20  H   UNL     1       0.029  -0.512   2.005  0.00  0.00    +0.189 HD
ATOM     21  C   UNL     1       0.042  -3.389  -1.525  0.00  0.00    +0.068 C 
ENDBRANCH   1  16
TORSDOF 1
