REMARK  Name = ZINC36584116
REMARK  14 active torsions:
REMARK  status: ('A' for Active; 'I' for Inactive)
REMARK    1  A    between atoms: C_1  and  C_2
REMARK    2  A    between atoms: C_5  and  S_8
REMARK    3  A    between atoms: S_8  and  C_11
REMARK    4  A    between atoms: C_11  and  N_12
REMARK    5  A    between atoms: C_13  and  C_15
REMARK    6  A    between atoms: C_15  and  C_17
REMARK    7  A    between atoms: C_15  and  N_24
REMARK    8  A    between atoms: C_22  and  O_23
REMARK    9  A    between atoms: N_24  and  C_34
REMARK   10  A    between atoms: C_25  and  C_27
REMARK   11  A    between atoms: C_32  and  O_33
REMARK   12  A    between atoms: C_34  and  C_35
REMARK   13  A    between atoms: C_34  and  C_36
REMARK   14  A    between atoms: C_34  and  C_37
REMARK                            x       y       z     vdW  Elec       q    Type
REMARK                         _______ _______ _______ _____ _____    ______ ____
ROOT
ATOM      1  C   UNL     1       2.429  -5.157   2.950  0.00  0.00    +0.196 C 
ENDROOT
BRANCH   1   2
ATOM      2  C   UNL     1       3.721  -4.381   2.977  0.00  0.00    +0.023 A 
ATOM      3  C   UNL     1       4.876  -4.977   3.446  0.00  0.00    +0.009 A 
ATOM      4  C   UNL     1       6.061  -4.266   3.472  0.00  0.00    +0.001 A 
ATOM      5  C   UNL     1       6.094  -2.957   3.028  0.00  0.00    +0.004 A 
ATOM      6  C   UNL     1       4.942  -2.356   2.558  0.00  0.00    +0.046 A 
ATOM      7  C   UNL     1       3.753  -3.070   2.526  0.00  0.00    +0.122 A 
BRANCH   7   8
ATOM      8  O   UNL     1       2.619  -2.483   2.058  0.00  0.00    -0.506 OA
ATOM      9  H   UNL     1       2.103  -2.029   2.738  0.00  0.00    +0.292 HD
ENDBRANCH   7   8
ENDBRANCH   1   2
BRANCH   1  11
ATOM     10  N   UNL     1       2.866  -5.588   0.554  0.00  0.00    -0.294 N 
ATOM     11  C   UNL     1       2.403  -6.046   1.734  0.00  0.00    +0.239 C 
ATOM     12  O   UNL     1       1.965  -7.174   1.817  0.00  0.00    -0.273 OA
ATOM     13  H   UNL     1       3.217  -4.686   0.488  0.00  0.00    +0.150 HD
BRANCH  10  14
ATOM     14  C   UNL     1       2.841  -6.453  -0.628  0.00  0.00    +0.278 C 
BRANCH  14  15
ATOM     15  S   UNL     1       1.335  -6.125  -1.585  0.00  0.00    +0.013 S 
ATOM     16  O   UNL     1       0.205  -6.098  -0.725  0.00  0.00    -0.168 OA
ATOM     17  O   UNL     1       1.327  -6.911  -2.769  0.00  0.00    -0.168 OA
BRANCH  15  22
ATOM     18  C   UNL     1       1.932  -0.440  -3.518  0.00  0.00    +0.044 C 
ATOM     19  C   UNL     1       1.783  -1.860  -3.035  0.00  0.00    -0.050 A 
ATOM     20  C   UNL     1       2.260  -2.905  -3.805  0.00  0.00    +0.005 A 
ATOM     21  C   UNL     1       2.123  -4.207  -3.362  0.00  0.00    +0.027 A 
ATOM     22  C   UNL     1       1.510  -4.465  -2.149  0.00  0.00    +0.090 A 
ATOM     23  C   UNL     1       1.035  -3.419  -1.380  0.00  0.00    +0.027 A 
ATOM     24  C   UNL     1       1.175  -2.117  -1.821  0.00  0.00    +0.005 A 
ENDBRANCH  15  22
ENDBRANCH  14  15
ENDBRANCH  10  14
ENDBRANCH   1  11
BRANCH   1  25
ATOM     25  N   UNL     1       2.328  -5.979   4.158  0.00  0.00    -0.277 N 
ATOM     26  C   UNL     1       3.365  -6.752   4.537  0.00  0.00    +0.251 C 
ATOM     27  O   UNL     1       3.645  -6.859   5.715  0.00  0.00    -0.270 OA
BRANCH  26  28
ATOM     28  C   UNL     1       4.161  -7.468   3.521  0.00  0.00    +0.078 A 
ATOM     29  C   UNL     1       4.476  -6.847   2.310  0.00  0.00    +0.017 A 
ATOM     30  C   UNL     1       5.220  -7.521   1.366  0.00  0.00    +0.001 A 
ATOM     31  C   UNL     1       5.657  -8.812   1.612  0.00  0.00    +0.004 A 
ATOM     32  C   UNL     1       5.352  -9.438   2.804  0.00  0.00    +0.046 A 
ATOM     33  C   UNL     1       4.609  -8.772   3.768  0.00  0.00    +0.129 A 
BRANCH  33  34
ATOM     34  O   UNL     1       4.313  -9.384   4.942  0.00  0.00    -0.506 OA
ATOM     35  H   UNL     1       3.485  -9.883   4.928  0.00  0.00    +0.292 HD
ENDBRANCH  33  34
ENDBRANCH  26  28
BRANCH  25  36
ATOM     36  C   UNL     1       1.099  -5.961   4.955  0.00  0.00    +0.030 C 
ATOM     37  C   UNL     1       0.052  -5.088   4.260  0.00  0.00    +0.031 C 
ATOM     38  C   UNL     1       0.561  -7.387   5.096  0.00  0.00    +0.031 C 
ATOM     39  C   UNL     1       1.399  -5.390   6.343  0.00  0.00    +0.031 C 
ENDBRANCH  25  36
ENDBRANCH   1  25
TORSDOF 10
