REMARK  Name = ZINC16866198
REMARK  12 active torsions:
REMARK  status: ('A' for Active; 'I' for Inactive)
REMARK    1  A    between atoms: C_1  and  C_2
REMARK    2  A    between atoms: C_2  and  C_3
REMARK    3  A    between atoms: C_2  and  C_4
REMARK    4  A    between atoms: C_2  and  C_5
REMARK    5  A    between atoms: C_8  and  C_11
REMARK    6  A    between atoms: C_14  and  S_19
REMARK    7  A    between atoms: N_15  and  C_16
REMARK    8  A    between atoms: C_16  and  C_17
REMARK    9  A    between atoms: S_19  and  C_20
REMARK   10  A    between atoms: C_20  and  C_21
REMARK   11  A    between atoms: N_23  and  C_24
REMARK   12  A    between atoms: C_25  and  C_32
REMARK                            x       y       z     vdW  Elec       q    Type
REMARK                         _______ _______ _______ _____ _____    ______ ____
ROOT
ATOM      1  S   UNL     1       0.703   4.072   1.357  0.00  0.00    -0.077 S 
ENDROOT
BRANCH   1   5
ATOM      2  C   UNL     1      -1.760   1.071   1.800  0.00  0.00    +0.165 A 
ATOM      3  N   UNL     1      -2.111   1.879   2.773  0.00  0.00    -0.128 NA
ATOM      4  N   UNL     1      -1.379   2.934   2.754  0.00  0.00    -0.122 NA
ATOM      5  C   UNL     1      -0.511   2.863   1.769  0.00  0.00    +0.193 A 
ATOM      6  N   UNL     1      -0.726   1.679   1.125  0.00  0.00    -0.298 N 
BRANCH   2  10
ATOM      7  C   UNL     1      -3.488  -2.703   0.902  0.00  0.00    -0.042 A 
ATOM      8  C   UNL     1      -3.660  -2.148   2.158  0.00  0.00    +0.005 A 
ATOM      9  C   UNL     1      -3.101  -0.923   2.456  0.00  0.00    +0.012 A 
ATOM     10  C   UNL     1      -2.361  -0.242   1.487  0.00  0.00    +0.019 A 
ATOM     11  C   UNL     1      -2.197  -0.805   0.221  0.00  0.00    +0.012 A 
ATOM     12  C   UNL     1      -2.757  -2.034  -0.063  0.00  0.00    +0.005 A 
BRANCH   7  14
ATOM     13  C   UNL     1      -5.621  -3.960   0.749  0.00  0.00    +0.015 C 
ATOM     14  C   UNL     1      -4.102  -4.042   0.584  0.00  0.00    -0.013 C 
ATOM     15  C   UNL     1      -3.767  -4.427  -0.859  0.00  0.00    +0.015 C 
ATOM     16  C   UNL     1      -3.542  -5.100   1.537  0.00  0.00    +0.015 C 
ENDBRANCH   7  14
ENDBRANCH   2  10
BRANCH   6  17
ATOM     17  C   UNL     1      -0.003   1.160  -0.039  0.00  0.00    +0.152 C 
BRANCH  17  18
ATOM     18  C   UNL     1      -0.603   1.731  -1.298  0.00  0.00    -0.013 C 
ATOM     19  C   UNL     1      -0.981   0.932  -2.265  0.00  0.00    +0.005 C 
ENDBRANCH  17  18
ENDBRANCH   6  17
ENDBRANCH   1   5
BRANCH   1  20
ATOM     20  C   UNL     1       0.364   5.307   2.636  0.00  0.00    +0.173 C 
BRANCH  20  21
ATOM     21  C   UNL     1       1.311   6.468   2.476  0.00  0.00    +0.228 C 
ATOM     22  O   UNL     1       2.134   6.462   1.585  0.00  0.00    -0.275 OA
ATOM     23  N   UNL     1       1.244   7.514   3.323  0.00  0.00    -0.279 N 
ATOM     24  H   UNL     1       0.586   7.519   4.036  0.00  0.00    +0.155 HD
BRANCH  23  25
ATOM     25  C   UNL     1       2.115   8.583   3.176  0.00  0.00    +0.084 A 
ATOM     26  C   UNL     1       2.195   9.738   3.935  0.00  0.00    +0.068 A 
ATOM     27  C   UNL     1       3.217  10.719   3.569  0.00  0.00    -0.023 A 
ATOM     28  C   UNL     1       3.974  10.386   2.508  0.00  0.00    -0.004 A 
ATOM     29  S   UNL     1       3.360   8.801   1.994  0.00  0.00    -0.077 S 
ATOM     30  C   UNL     1       4.997  11.443   2.192  0.00  0.00    +0.043 C 
ATOM     31  C   UNL     1       5.073  12.306   3.471  0.00  0.00    +0.010 C 
ATOM     32  C   UNL     1       3.676  12.084   4.083  0.00  0.00    +0.037 C 
BRANCH  26  33
ATOM     33  C   UNL     1       1.292   9.968   5.067  0.00  0.00    +0.244 C 
ATOM     34  O   UNL     1       1.605   9.592   6.181  0.00  0.00    -0.270 OA
ATOM     35  N   UNL     1       0.115  10.595   4.873  0.00  0.00    -0.325 N 
ATOM     36  H   UNL     1      -0.134  10.895   3.985  0.00  0.00    +0.145 HD
ATOM     37  H   UNL     1      -0.482  10.748   5.622  0.00  0.00    +0.145 HD
ENDBRANCH  26  33
ENDBRANCH  23  25
ENDBRANCH  20  21
ENDBRANCH   1  20
TORSDOF 9
