REMARK  Name = ZINC38932934
REMARK  7 active torsions:
REMARK  status: ('A' for Active; 'I' for Inactive)
REMARK    1  A    between atoms: C_1  and  C_2
REMARK    2  A    between atoms: C_2  and  O_3
REMARK    3  A    between atoms: O_3  and  C_4
REMARK    4  A    between atoms: C_4  and  C_6
REMARK    5  A    between atoms: C_7  and  C_32
REMARK    6  A    between atoms: C_14  and  C_15
REMARK    7  A    between atoms: C_25  and  C_27
REMARK                            x       y       z     vdW  Elec       q    Type
REMARK                         _______ _______ _______ _____ _____    ______ ____
ROOT
ATOM      1  C   UNL     1      -2.836  -2.409  -0.349  0.00  0.00    +0.090 C 
ATOM      2  C   UNL     1      -2.978  -3.765  -0.088  0.00  0.00    +0.086 C 
ATOM      3  N   UNL     1      -4.167  -4.258   0.274  0.00  0.00    -0.222 NA
ATOM      4  C   UNL     1      -5.255  -3.551   0.411  0.00  0.00    +0.178 A 
ATOM      5  N   UNL     1      -5.330  -2.192   0.201  0.00  0.00    -0.274 N 
ATOM      6  C   UNL     1      -6.508  -1.578   0.374  0.00  0.00    +0.268 A 
ATOM      7  O   UNL     1      -6.623  -0.380   0.199  0.00  0.00    -0.266 OA
ATOM      8  C   UNL     1      -7.663  -2.404   0.783  0.00  0.00    +0.080 A 
ATOM      9  C   UNL     1      -8.969  -2.029   1.025  0.00  0.00    +0.026 C 
ATOM     10  S   UNL     1      -6.910  -4.021   0.879  0.00  0.00    -0.046 S 
ATOM     11  C   UNL     1      -4.057  -1.531  -0.203  0.00  0.00    +0.169 C 
ENDROOT
BRANCH   9  12
ATOM     12  C   UNL     1      -9.912  -2.986   1.407  0.00  0.00    -0.018 C 
ATOM     13  C   UNL     1     -11.263  -2.776   1.682  0.00  0.00    +0.003 A 
ATOM     14  C   UNL     1     -12.072  -1.620   1.669  0.00  0.00    +0.010 A 
ATOM     15  C   UNL     1     -13.387  -1.715   1.988  0.00  0.00    +0.001 A 
ATOM     16  C   UNL     1     -13.972  -2.938   2.333  0.00  0.00    +0.002 A 
ATOM     17  C   UNL     1     -13.258  -4.088   2.367  0.00  0.00    +0.026 A 
ATOM     18  C   UNL     1     -11.873  -4.069   2.045  0.00  0.00    +0.043 A 
ATOM     19  N   UNL     1     -10.977  -5.029   2.003  0.00  0.00    -0.380 N 
ATOM     20  C   UNL     1      -9.683  -4.468   1.603  0.00  0.00    +0.149 C 
ATOM     21  H   UNL     1     -11.146  -5.963   2.203  0.00  0.00    +0.160 HD
ENDBRANCH   9  12
BRANCH   2  22
ATOM     22  C   UNL     1      -1.810  -4.668  -0.210  0.00  0.00    +0.001 A 
ATOM     23  C   UNL     1      -0.701  -4.494   0.618  0.00  0.00    +0.010 A 
ATOM     24  C   UNL     1       0.384  -5.339   0.499  0.00  0.00    +0.001 A 
ATOM     25  C   UNL     1       0.373  -6.355  -0.440  0.00  0.00    +0.000 A 
ATOM     26  C   UNL     1      -0.724  -6.532  -1.264  0.00  0.00    +0.001 A 
ATOM     27  C   UNL     1      -1.817  -5.698  -1.150  0.00  0.00    +0.010 A 
ENDBRANCH   2  22
BRANCH  11  28
ATOM     28  C   UNL     1      -3.741  -0.464   0.814  0.00  0.00    +0.017 A 
ATOM     29  C   UNL     1      -3.383   0.827   0.613  0.00  0.00    +0.013 A 
ATOM     30  C   UNL     1      -3.139   1.634   1.708  0.00  0.00    +0.008 A 
ATOM     31  C   UNL     1      -3.266   1.109   2.952  0.00  0.00    +0.045 A 
ATOM     32  S   UNL     1      -3.750  -0.572   2.596  0.00  0.00    -0.099 S 
ENDBRANCH  11  28
BRANCH   1  33
ATOM     33  C   UNL     1      -1.598  -1.871  -0.731  0.00  0.00    +0.340 C 
ATOM     34  O   UNL     1      -0.654  -2.609  -0.947  0.00  0.00    -0.245 OA
BRANCH  33  35
ATOM     35  O   UNL     1      -1.454  -0.533  -0.858  0.00  0.00    -0.462 OA
BRANCH  35  37
ATOM     36  C   UNL     1      -0.195   1.472  -1.340  0.00  0.00    +0.048 C 
ATOM     37  C   UNL     1      -0.166  -0.055  -1.250  0.00  0.00    +0.229 C 
ENDBRANCH  35  37
ENDBRANCH  33  35
ENDBRANCH   1  33
TORSDOF 6
