REMARK  Name = ZINC63136742
REMARK  17 active torsions:
REMARK  status: ('A' for Active; 'I' for Inactive)
REMARK    1  A    between atoms: C_1  and  C_2
REMARK    2  A    between atoms: C_2  and  C_3
REMARK    3  A    between atoms: C_2  and  C_4
REMARK    4  A    between atoms: C_2  and  C_5
REMARK    5  A    between atoms: C_7  and  S_16
REMARK    6  A    between atoms: C_9  and  C_12
REMARK    7  A    between atoms: C_10  and  O_11
REMARK    8  A    between atoms: C_12  and  C_13
REMARK    9  A    between atoms: C_12  and  C_14
REMARK   10  A    between atoms: C_12  and  C_15
REMARK   11  A    between atoms: S_16  and  C_17
REMARK   12  A    between atoms: C_17  and  C_18
REMARK   13  A    between atoms: N_20  and  C_21
REMARK   14  A    between atoms: C_21  and  C_22
REMARK   15  A    between atoms: C_22  and  C_23
REMARK   16  A    between atoms: C_26  and  O_32
REMARK   17  A    between atoms: O_32  and  C_33
REMARK                            x       y       z     vdW  Elec       q    Type
REMARK                         _______ _______ _______ _____ _____    ______ ____
ROOT
ATOM      1  C   UNL     1       3.255   0.094  -5.736  0.00  0.00    +0.170 C 
ENDROOT
BRANCH   1   2
ATOM      2  C   UNL     1       3.855   0.973  -6.803  0.00  0.00    +0.223 C 
ATOM      3  O   UNL     1       3.790   2.180  -6.702  0.00  0.00    -0.275 OA
ATOM      4  N   UNL     1       4.463   0.418  -7.870  0.00  0.00    -0.314 N 
ATOM      5  H   UNL     1       4.515  -0.547  -7.951  0.00  0.00    +0.149 HD
BRANCH   4   6
ATOM      6  C   UNL     1       5.046   1.272  -8.907  0.00  0.00    +0.108 C 
BRANCH   6   7
ATOM      7  C   UNL     1       5.670   0.398  -9.997  0.00  0.00    +0.052 C 
BRANCH   7   8
ATOM      8  C   UNL     1       6.269   1.277 -11.064  0.00  0.00    -0.040 C 
ATOM      9  C   UNL     1       7.558   1.676 -11.160  0.00  0.00    +0.002 A 
ATOM     10  C   UNL     1       8.742   1.422 -10.332  0.00  0.00    +0.055 A 
ATOM     11  C   UNL     1       9.931   1.969 -10.682  0.00  0.00    +0.121 A 
ATOM     12  C   UNL     1      10.077   2.780 -11.822  0.00  0.00    +0.047 A 
ATOM     13  C   UNL     1       9.047   3.070 -12.645  0.00  0.00    +0.029 A 
ATOM     14  C   UNL     1       7.713   2.530 -12.360  0.00  0.00    +0.043 A 
ATOM     15  N   UNL     1       6.567   2.653 -12.981  0.00  0.00    -0.380 N 
ATOM     16  C   UNL     1       5.553   1.886 -12.249  0.00  0.00    +0.144 C 
ATOM     17  H   UNL     1       6.415   3.164 -13.792  0.00  0.00    +0.160 HD
BRANCH  11  18
ATOM     18  O   UNL     1      11.019   1.726  -9.905  0.00  0.00    -0.495 OA
ATOM     19  C   UNL     1      12.253   2.323 -10.312  0.00  0.00    +0.277 C 
ENDBRANCH  11  18
ENDBRANCH   7   8
ENDBRANCH   6   7
ENDBRANCH   4   6
ENDBRANCH   1   2
BRANCH   1  20
ATOM     20  S   UNL     1       2.516   1.131  -4.444  0.00  0.00    -0.116 S 
BRANCH  20  23
ATOM     21  C   UNL     1       0.707  -0.490  -1.238  0.00  0.00    +0.001 A 
ATOM     22  C   UNL     1       1.216   0.419  -2.144  0.00  0.00    +0.022 A 
ATOM     23  C   UNL     1       1.867  -0.029  -3.287  0.00  0.00    +0.009 A 
ATOM     24  C   UNL     1       2.005  -1.392  -3.516  0.00  0.00    +0.022 A 
ATOM     25  C   UNL     1       1.495  -2.300  -2.609  0.00  0.00    +0.001 A 
ATOM     26  C   UNL     1       0.850  -1.851  -1.466  0.00  0.00    +0.124 A 
BRANCH  21  28
ATOM     27  C   UNL     1      -0.019   1.526   0.010  0.00  0.00    +0.015 C 
ATOM     28  C   UNL     1       0.002  -0.004   0.002  0.00  0.00    -0.009 C 
ATOM     29  C   UNL     1       0.742  -0.511   1.242  0.00  0.00    +0.015 C 
ATOM     30  C   UNL     1      -1.433  -0.534   0.013  0.00  0.00    +0.015 C 
ENDBRANCH  21  28
BRANCH  25  31
ATOM     31  C   UNL     1       1.644  -3.778  -2.858  0.00  0.00    -0.009 C 
ATOM     32  C   UNL     1       2.392  -4.001  -4.175  0.00  0.00    +0.015 C 
ATOM     33  C   UNL     1       2.433  -4.412  -1.711  0.00  0.00    +0.015 C 
ATOM     34  C   UNL     1       0.260  -4.423  -2.943  0.00  0.00    +0.015 C 
ENDBRANCH  25  31
BRANCH  26  35
ATOM     35  O   UNL     1       0.354  -2.746  -0.570  0.00  0.00    -0.506 OA
ATOM     36  H   UNL     1      -0.559  -3.013  -0.746  0.00  0.00    +0.292 HD
ENDBRANCH  26  35
ENDBRANCH  20  23
ENDBRANCH   1  20
TORSDOF 10
