REMARK  Name = ZINC01427047
REMARK  4 active torsions:
REMARK  status: ('A' for Active; 'I' for Inactive)
REMARK    1  A    between atoms: C_1  and  N_2
REMARK    2  A    between atoms: C_13  and  C_21
REMARK    3  A    between atoms: C_15  and  C_19
REMARK    4  A    between atoms: C_16  and  N_18
REMARK                            x       y       z     vdW  Elec       q    Type
REMARK                         _______ _______ _______ _____ _____    ______ ____
ROOT
ATOM      1  C   UNL     1       1.492  -6.021   1.561  0.00  0.00    +0.152 C 
ATOM      2  N   UNL     1       1.438  -4.614   1.155  0.00  0.00    -0.311 N 
ATOM      3  C   UNL     1       2.596  -3.865   1.151  0.00  0.00    +0.055 A 
ATOM      4  C   UNL     1       3.813  -4.423   1.528  0.00  0.00    +0.026 A 
ATOM      5  C   UNL     1       4.953  -3.648   1.514  0.00  0.00    +0.002 A 
ATOM      6  C   UNL     1       4.900  -2.317   1.128  0.00  0.00    +0.001 A 
ATOM      7  C   UNL     1       3.715  -1.748   0.754  0.00  0.00    +0.013 A 
ATOM      8  C   UNL     1       2.547  -2.516   0.760  0.00  0.00    +0.041 A 
ATOM      9  C   UNL     1       1.255  -1.937   0.366  0.00  0.00    +0.148 A 
ATOM     10  C   UNL     1       0.149  -2.732   0.395  0.00  0.00    +0.072 A 
ATOM     11  C   UNL     1       0.261  -4.076   0.794  0.00  0.00    +0.259 A 
ATOM     12  O   UNL     1      -0.739  -4.773   0.814  0.00  0.00    -0.267 OA
ATOM     13  C   UNL     1      -1.197  -2.185   0.001  0.00  0.00    +0.105 C 
ATOM     14  C   UNL     1      -1.171  -0.682   0.015  0.00  0.00    +0.098 C 
ATOM     15  C   UNL     1       0.002  -0.004   0.002  0.00  0.00    +0.199 C 
ATOM     16  O   UNL     1       1.184  -0.645  -0.013  0.00  0.00    -0.440 OA
ENDROOT
BRANCH  13  17
ATOM     17  C   UNL     1      -1.548  -2.670  -1.382  0.00  0.00    -0.016 A 
ATOM     18  C   UNL     1      -2.685  -3.437  -1.589  0.00  0.00    +0.007 A 
ATOM     19  C   UNL     1      -2.971  -3.857  -2.879  0.00  0.00    +0.020 A 
ATOM     20  C   UNL     1      -2.114  -3.509  -3.906  0.00  0.00    +0.111 A 
ATOM     21  N   UNL     1      -1.039  -2.782  -3.671  0.00  0.00    -0.263 NA
ATOM     22  C   UNL     1      -0.739  -2.361  -2.458  0.00  0.00    +0.115 A 
ENDBRANCH  13  17
BRANCH  15  23
ATOM     23  N   UNL     1      -0.017   1.368   0.010  0.00  0.00    -0.328 N 
ATOM     24  H   UNL     1       0.817   1.865   0.004  0.00  0.00    +0.145 HD
ATOM     25  H   UNL     1      -0.863   1.842   0.016  0.00  0.00    +0.145 HD
ENDBRANCH  15  23
BRANCH  14  26
ATOM     26  C   UNL     1      -2.405   0.044   0.038  0.00  0.00    +0.101 C 
ATOM     27  N   UNL     1      -3.383   0.621   0.056  0.00  0.00    -0.191 NA
ENDBRANCH  14  26
TORSDOF 3
