REMARK  Name = ZINC12741568
REMARK  13 active torsions:
REMARK  status: ('A' for Active; 'I' for Inactive)
REMARK    1  A    between atoms: C_1  and  C_2
REMARK    2  A    between atoms: C_2  and  O_3
REMARK    3  A    between atoms: O_3  and  C_4
REMARK    4  A    between atoms: C_4  and  C_6
REMARK    5  A    between atoms: C_7  and  C_20
REMARK    6  A    between atoms: C_12  and  C_14
REMARK    7  A    between atoms: C_17  and  C_19
REMARK    8  A    between atoms: C_20  and  S_21
REMARK    9  A    between atoms: S_21  and  C_22
REMARK   10  A    between atoms: C_25  and  C_28
REMARK   11  A    between atoms: N_26  and  N_27
REMARK   12  A    between atoms: C_28  and  O_29
REMARK   13  A    between atoms: O_29  and  C_30
REMARK                            x       y       z     vdW  Elec       q    Type
REMARK                         _______ _______ _______ _____ _____    ______ ____
ROOT
ATOM      1  C   UNL     1      -3.674   2.486   7.562  0.00  0.00    +0.082 C 
ATOM      2  C   UNL     1      -4.060   3.025   6.385  0.00  0.00    +0.034 C 
ATOM      3  N   UNL     1      -5.362   3.371   6.162  0.00  0.00    -0.272 N 
ATOM      4  C   UNL     1      -6.340   3.200   7.060  0.00  0.00    +0.304 C 
ATOM      5  O   UNL     1      -7.472   3.534   6.767  0.00  0.00    -0.252 OA
ATOM      6  N   UNL     1      -6.111   2.674   8.279  0.00  0.00    -0.285 N 
ATOM      7  C   UNL     1      -4.736   2.273   8.622  0.00  0.00    +0.179 C 
ATOM      8  H   UNL     1      -5.592   3.758   5.303  0.00  0.00    +0.156 HD
ATOM      9  H   UNL     1      -6.834   2.562   8.916  0.00  0.00    +0.151 HD
ENDROOT
BRANCH   7  10
ATOM     10  C   UNL     1      -4.754   0.807   8.974  0.00  0.00    +0.130 A 
ATOM     11  C   UNL     1      -4.171   0.250  10.050  0.00  0.00    +0.047 A 
ATOM     12  C   UNL     1      -4.436  -1.138   9.986  0.00  0.00    +0.045 A 
ATOM     13  C   UNL     1      -5.165  -1.345   8.875  0.00  0.00    +0.102 A 
ATOM     14  O   UNL     1      -5.360  -0.162   8.269  0.00  0.00    -0.463 OA
ATOM     15  C   UNL     1      -5.683  -2.676   8.396  0.00  0.00    +0.086 C 
ENDBRANCH   7  10
BRANCH   1  16
ATOM     16  C   UNL     1      -2.325   2.131   7.797  0.00  0.00    +0.339 C 
ATOM     17  O   UNL     1      -1.613   2.858   8.464  0.00  0.00    -0.245 OA
BRANCH  16  18
ATOM     18  O   UNL     1      -1.828   0.988   7.281  0.00  0.00    -0.462 OA
BRANCH  18  20
ATOM     19  C   UNL     1      -0.078  -0.633   6.895  0.00  0.00    +0.048 C 
ATOM     20  C   UNL     1      -0.458   0.692   7.558  0.00  0.00    +0.229 C 
ENDBRANCH  18  20
ENDBRANCH  16  18
ENDBRANCH   1  16
BRANCH   2  21
ATOM     21  C   UNL     1      -3.036   3.254   5.304  0.00  0.00    +0.128 C 
BRANCH  21  22
ATOM     22  S   UNL     1      -3.224   1.995   4.018  0.00  0.00    -0.079 S 
BRANCH  22  23
ATOM     23  C   UNL     1      -1.942   2.489   2.915  0.00  0.00    +0.209 A 
ATOM     24  N   UNL     1      -1.126   3.506   3.072  0.00  0.00    -0.121 NA
ATOM     25  N   UNL     1      -0.312   3.569   2.080  0.00  0.00    -0.128 NA
ATOM     26  C   UNL     1      -0.563   2.611   1.233  0.00  0.00    +0.189 A 
ATOM     27  N   UNL     1      -1.608   1.887   1.736  0.00  0.00    -0.225 N 
BRANCH  27  28
ATOM     28  N   UNL     1      -2.195   0.788   1.176  0.00  0.00    -0.295 N 
ATOM     29  H   UNL     1      -1.743  -0.060   1.485  0.00  0.00    +0.163 HD
ATOM     30  H   UNL     1      -3.183   0.764   1.376  0.00  0.00    +0.163 HD
ENDBRANCH  27  28
BRANCH  26  31
ATOM     31  C   UNL     1       0.167   2.348  -0.059  0.00  0.00    +0.306 C 
BRANCH  31  32
ATOM     32  O   UNL     1      -0.471   3.061  -1.120  0.00  0.00    -0.484 OA
BRANCH  32  33
ATOM     33  C   UNL     1       0.067   2.931  -2.362  0.00  0.00    +0.121 A 
ATOM     34  C   UNL     1       1.188   2.137  -2.553  0.00  0.00    +0.047 A 
ATOM     35  C   UNL     1       1.731   2.002  -3.816  0.00  0.00    +0.023 A 
ATOM     36  C   UNL     1       1.162   2.666  -4.889  0.00  0.00    +0.041 A 
ATOM     37  C   UNL     1       0.047   3.462  -4.699  0.00  0.00    +0.023 A 
ATOM     38  C   UNL     1      -0.501   3.596  -3.438  0.00  0.00    +0.047 A 
ATOM     39 CL   UNL     1       1.849   2.499  -6.474  0.00  0.00    -0.084 Cl
ENDBRANCH  32  33
ENDBRANCH  31  32
ENDBRANCH  26  31
ENDBRANCH  22  23
ENDBRANCH  21  22
ENDBRANCH   2  21
TORSDOF 11
