REMARK  Name = ZINC21108396
REMARK  4 active torsions:
REMARK  status: ('A' for Active; 'I' for Inactive)
REMARK    1  A    between atoms: C_1  and  C_2
REMARK    2  A    between atoms: C_7  and  S_8
REMARK    3  A    between atoms: S_8  and  N_11
REMARK    4  A    between atoms: N_11  and  C_12
REMARK                            x       y       z     vdW  Elec       q    Type
REMARK                         _______ _______ _______ _____ _____    ______ ____
ROOT
ATOM      1  C   UNL     1       0.919   2.885  -0.750  0.00  0.00    +0.046 C 
ATOM      2  C   UNL     1       1.402   4.238  -0.297  0.00  0.00    -0.022 A 
ATOM      3  C   UNL     1       0.500   5.160   0.204  0.00  0.00    +0.032 A 
ATOM      4  C   UNL     1       0.945   6.403   0.620  0.00  0.00    +0.076 A 
ATOM      5  C   UNL     1       2.300   6.723   0.533  0.00  0.00    +0.144 A 
ATOM      6  C   UNL     1       3.196   5.794   0.036  0.00  0.00    +0.076 A 
ATOM      7  C   UNL     1       2.744   4.555  -0.383  0.00  0.00    +0.115 A 
ATOM      8  O   UNL     1       2.725   7.948   0.942  0.00  0.00    -0.481 OA
ATOM      9  C   UNL     1       1.819   9.038   0.758  0.00  0.00    +0.325 C 
ATOM     10  C   UNL     1       0.444   8.639   1.231  0.00  0.00    +0.255 C 
ATOM     11  O   UNL     1      -0.304   9.472   1.699  0.00  0.00    -0.272 OA
ATOM     12  N   UNL     1       0.048   7.352   1.132  0.00  0.00    -0.280 N 
ATOM     13  H   UNL     1      -0.960   7.043   1.445  0.00  0.00    +0.155 HD
ENDROOT
BRANCH   7  14
ATOM     14  S   UNL     1       3.886   3.374  -1.021  0.00  0.00    +0.073 S 
ATOM     15  O   UNL     1       3.631   2.154  -0.340  0.00  0.00    -0.150 OA
ATOM     16  O   UNL     1       5.162   3.999  -1.014  0.00  0.00    -0.150 OA
BRANCH  14  17
ATOM     17  N   UNL     1       3.491   3.121  -2.609  0.00  0.00    -0.216 N 
ATOM     18  H   UNL     1       3.100   2.144  -2.930  0.00  0.00    +0.174 HD
BRANCH  17  19
ATOM     19  C   UNL     1       3.656   4.149  -3.543  0.00  0.00    +0.050 A 
ATOM     20  C   UNL     1       3.212   5.432  -3.250  0.00  0.00    +0.027 A 
ATOM     21  C   UNL     1       3.374   6.446  -4.174  0.00  0.00    +0.042 A 
ATOM     22  C   UNL     1       3.979   6.185  -5.391  0.00  0.00    +0.142 A 
ATOM     23  C   UNL     1       4.425   4.906  -5.686  0.00  0.00    +0.078 A 
ATOM     24  C   UNL     1       4.263   3.888  -4.764  0.00  0.00    +0.047 A 
ATOM     25 CL   UNL     1       5.184   4.581  -7.212  0.00  0.00    -0.081 Cl
ATOM     26  F   UNL     1       4.137   7.178  -6.293  0.00  0.00    -0.204 F 
ENDBRANCH  17  19
ENDBRANCH  14  17
ENDBRANCH   7  14
TORSDOF 3
