REMARK  Name = ZINC25415465
REMARK  10 active torsions:
REMARK  status: ('A' for Active; 'I' for Inactive)
REMARK    1  A    between atoms: C_1  and  C_2
REMARK    2  A    between atoms: C_5  and  N_8
REMARK    3  A    between atoms: N_8  and  S_9
REMARK    4  A    between atoms: S_9  and  C_12
REMARK    5  A    between atoms: C_15  and  C_33
REMARK    6  A    between atoms: C_16  and  C_18
REMARK    7  A    between atoms: N_20  and  N_21
REMARK    8  A    between atoms: C_22  and  C_24
REMARK    9  A    between atoms: C_29  and  O_30
REMARK   10  A    between atoms: O_30  and  C_31
REMARK                            x       y       z     vdW  Elec       q    Type
REMARK                         _______ _______ _______ _____ _____    ______ ____
ROOT
ATOM      1  C   UNL     1       1.399   2.292  -0.065  0.00  0.00    +0.109 A 
ATOM      2  C   UNL     1       2.278   2.107   0.988  0.00  0.00    +0.029 A 
ATOM      3  C   UNL     1       3.590   2.536   0.886  0.00  0.00    +0.006 A 
ATOM      4  C   UNL     1       4.026   3.162  -0.264  0.00  0.00    -0.038 A 
ATOM      5  C   UNL     1       3.143   3.357  -1.327  0.00  0.00    +0.043 A 
ATOM      6  C   UNL     1       1.823   2.917  -1.219  0.00  0.00    +0.042 A 
ATOM      7  C   UNL     1       5.453   3.634  -0.371  0.00  0.00    +0.044 C 
ENDROOT
BRANCH   5   8
ATOM      8  C   UNL     1       3.604   4.028  -2.561  0.00  0.00    +0.260 C 
ATOM      9  O   UNL     1       4.713   4.524  -2.605  0.00  0.00    -0.269 OA
ATOM     10  N   UNL     1       2.795   4.090  -3.637  0.00  0.00    -0.230 N 
ATOM     11  H   UNL     1       1.791   3.642  -3.596  0.00  0.00    +0.173 HD
BRANCH  10  12
ATOM     12  N   UNL     1       3.231   4.726  -4.806  0.00  0.00    -0.230 N 
ATOM     13  C   UNL     1       2.422   4.788  -5.882  0.00  0.00    +0.264 C 
ATOM     14  O   UNL     1       1.312   4.292  -5.838  0.00  0.00    -0.269 OA
ATOM     15  H   UNL     1       4.235   5.174  -4.847  0.00  0.00    +0.173 HD
BRANCH  13  16
ATOM     16  C   UNL     1       2.882   5.457  -7.114  0.00  0.00    +0.081 A 
ATOM     17  C   UNL     1       4.156   6.028  -7.169  0.00  0.00    +0.036 A 
ATOM     18  C   UNL     1       4.580   6.652  -8.324  0.00  0.00    +0.042 A 
ATOM     19  C   UNL     1       3.747   6.715  -9.430  0.00  0.00    +0.023 A 
ATOM     20  C   UNL     1       2.486   6.154  -9.388  0.00  0.00    +0.048 A 
ATOM     21  C   UNL     1       2.046   5.519  -8.236  0.00  0.00    +0.132 A 
ATOM     22 CL   UNL     1       6.163   7.360  -8.392  0.00  0.00    -0.084 Cl
BRANCH  21  23
ATOM     23  O   UNL     1       0.808   4.963  -8.196  0.00  0.00    -0.494 OA
ATOM     24  C   UNL     1       0.012   5.065  -9.378  0.00  0.00    +0.277 C 
ENDBRANCH  21  23
ENDBRANCH  13  16
ENDBRANCH  10  12
ENDBRANCH   5   8
BRANCH   1  25
ATOM     25  S   UNL     1      -0.267   1.736   0.073  0.00  0.00    +0.072 S 
ATOM     26  O   UNL     1      -1.014   2.447  -0.905  0.00  0.00    -0.150 OA
ATOM     27  O   UNL     1      -0.594   1.772   1.456  0.00  0.00    -0.150 OA
BRANCH  25  28
ATOM     28  N   UNL     1      -0.291   0.143  -0.378  0.00  0.00    -0.216 N 
ATOM     29  H   UNL     1      -0.829  -0.163  -1.287  0.00  0.00    +0.174 HD
BRANCH  28  34
ATOM     30  C   UNL     1       2.402  -3.734   2.764  0.00  0.00    +0.044 C 
ATOM     31  C   UNL     1       1.686  -2.704   1.929  0.00  0.00    -0.050 A 
ATOM     32  C   UNL     1       0.500  -2.154   2.379  0.00  0.00    +0.005 A 
ATOM     33  C   UNL     1      -0.158  -1.210   1.616  0.00  0.00    +0.025 A 
ATOM     34  C   UNL     1       0.373  -0.811   0.396  0.00  0.00    +0.048 A 
ATOM     35  C   UNL     1       1.562  -1.369  -0.055  0.00  0.00    +0.025 A 
ATOM     36  C   UNL     1       2.218  -2.310   0.715  0.00  0.00    +0.005 A 
ENDBRANCH  28  34
ENDBRANCH  25  28
ENDBRANCH   1  25
TORSDOF 7
