REMARK  Name = ZINC35591942
REMARK  13 active torsions:
REMARK  status: ('A' for Active; 'I' for Inactive)
REMARK    1  A    between atoms: C_4  and  C_39
REMARK    2  A    between atoms: C_5  and  C_7
REMARK    3  A    between atoms: C_7  and  O_8
REMARK    4  A    between atoms: O_8  and  C_9
REMARK    5  A    between atoms: C_9  and  C_32
REMARK    6  A    between atoms: C_11  and  O_31
REMARK    7  A    between atoms: C_13  and  O_30
REMARK    8  A    between atoms: C_15  and  O_18
REMARK    9  A    between atoms: O_18  and  C_19
REMARK   10  A    between atoms: C_19  and  C_20
REMARK   11  A    between atoms: C_23  and  C_26
REMARK   12  A    between atoms: N_34  and  C_35
REMARK   13  A    between atoms: C_35  and  C_36
REMARK                            x       y       z     vdW  Elec       q    Type
REMARK                         _______ _______ _______ _____ _____    ______ ____
ROOT
ATOM      1  C   UNL     1      -0.217  -4.101  -0.132  0.00  0.00    +0.150 C 
ATOM      2  C   UNL     1       0.212  -4.965   1.056  0.00  0.00    +0.078 C 
ATOM      3  C   UNL     1      -0.125  -6.429   0.769  0.00  0.00    +0.149 C 
ATOM      4  C   UNL     1      -1.632  -6.573   0.552  0.00  0.00    +0.172 C 
ATOM      5  C   UNL     1      -2.061  -5.709  -0.636  0.00  0.00    +0.153 C 
ATOM      6  C   UNL     1      -1.724  -4.245  -0.349  0.00  0.00    +0.079 C 
ENDROOT
BRANCH   1   7
ATOM      7  C   UNL     1       0.514  -4.551  -1.370  0.00  0.00    +0.245 C 
ATOM      8  O   UNL     1       1.027  -5.650  -1.406  0.00  0.00    -0.273 OA
ATOM      9  N   UNL     1       0.598  -3.734  -2.438  0.00  0.00    -0.313 N 
ATOM     10  H   UNL     1       0.128  -2.885  -2.438  0.00  0.00    +0.149 HD
BRANCH   9  11
ATOM     11  C   UNL     1       1.401  -4.126  -3.600  0.00  0.00    +0.107 C 
BRANCH  11  12
ATOM     12  C   UNL     1       1.328  -3.029  -4.664  0.00  0.00    +0.006 C 
ATOM     13  C   UNL     1       0.681  -3.386  -6.004  0.00  0.00    +0.005 C 
ATOM     14  C   UNL     1       2.196  -3.196  -5.912  0.00  0.00    +0.005 C 
ENDBRANCH  11  12
ENDBRANCH   9  11
ENDBRANCH   1   7
BRANCH   4  15
ATOM     15  O   UNL     1      -2.326  -6.146   1.726  0.00  0.00    -0.387 OA
ATOM     16  H   UNL     1      -2.103  -6.651   2.520  0.00  0.00    +0.210 HD
ENDBRANCH   4  15
BRANCH   3  17
ATOM     17  O   UNL     1       0.276  -7.236   1.879  0.00  0.00    -0.389 OA
ATOM     18  H   UNL     1       0.092  -8.179   1.766  0.00  0.00    +0.210 HD
ENDBRANCH   3  17
BRANCH   1  19
ATOM     19  O   UNL     1       0.098  -2.733   0.136  0.00  0.00    -0.359 OA
BRANCH  19  20
ATOM     20  C   UNL     1       1.493  -2.481   0.313  0.00  0.00    +0.197 C 
BRANCH  20  25
ATOM     21  C   UNL     1       0.860   1.233   0.559  0.00  0.00    +0.000 A 
ATOM     22  C   UNL     1       2.139   1.729   0.745  0.00  0.00    +0.001 A 
ATOM     23  C   UNL     1       3.216   0.869   0.792  0.00  0.00    +0.019 A 
ATOM     24  C   UNL     1       3.013  -0.506   0.652  0.00  0.00    +0.057 A 
ATOM     25  C   UNL     1       1.721  -0.999   0.465  0.00  0.00    -0.005 A 
ATOM     26  C   UNL     1       0.653  -0.127   0.420  0.00  0.00    +0.007 A 
BRANCH  24  27
ATOM     27  C   UNL     1       4.127  -1.405   0.700  0.00  0.00    +0.100 C 
ATOM     28  N   UNL     1       5.010  -2.118   0.738  0.00  0.00    -0.191 NA
ENDBRANCH  24  27
ENDBRANCH  20  25
ENDBRANCH  19  20
ENDBRANCH   1  19
BRANCH   5  29
ATOM     29  O   UNL     1      -3.469  -5.844  -0.839  0.00  0.00    -0.369 OA
BRANCH  29  30
ATOM     30  C   UNL     1      -3.830  -6.902  -1.728  0.00  0.00    +0.195 C 
BRANCH  30  31
ATOM     31  C   UNL     1      -5.330  -6.952  -1.868  0.00  0.00    -0.022 A 
ATOM     32  C   UNL     1      -6.079  -7.727  -1.003  0.00  0.00    +0.006 A 
ATOM     33  C   UNL     1      -7.455  -7.772  -1.131  0.00  0.00    +0.013 A 
ATOM     34  C   UNL     1      -8.081  -7.043  -2.124  0.00  0.00    +0.055 A 
ATOM     35  C   UNL     1      -7.332  -6.267  -2.989  0.00  0.00    +0.013 A 
ATOM     36  C   UNL     1      -5.956  -6.218  -2.858  0.00  0.00    +0.006 A 
BRANCH  34  37
ATOM     37  C   UNL     1      -9.581  -7.093  -2.264  0.00  0.00    +0.417 C 
ATOM     38  F   UNL     1     -10.156  -6.084  -1.485  0.00  0.00    -0.166 F 
ATOM     39  F   UNL     1      -9.930  -6.902  -3.606  0.00  0.00    -0.166 F 
ATOM     40  F   UNL     1     -10.048  -8.339  -1.833  0.00  0.00    -0.166 F 
ENDBRANCH  34  37
ENDBRANCH  30  31
ENDBRANCH  29  30
ENDBRANCH   5  29
TORSDOF 13
