REMARK  Name = ZINC63886477
REMARK  7 active torsions:
REMARK  status: ('A' for Active; 'I' for Inactive)
REMARK    1  A    between atoms: C_1  and  C_2
REMARK    2  A    between atoms: C_7  and  N_8
REMARK    3  A    between atoms: C_9  and  C_27
REMARK    4  A    between atoms: C_12  and  S_13
REMARK    5  A    between atoms: S_13  and  C_14
REMARK    6  A    between atoms: C_14  and  C_15
REMARK    7  A    between atoms: C_15  and  C_17
REMARK                            x       y       z     vdW  Elec       q    Type
REMARK                         _______ _______ _______ _____ _____    ______ ____
ROOT
ATOM      1  N   UNL     1       0.025  -0.014   2.418  0.00  0.00    -0.270 N 
ATOM      2  C   UNL     1      -1.079   0.379   3.159  0.00  0.00    +0.168 A 
ATOM      3  N   UNL     1      -0.618   1.001   4.236  0.00  0.00    -0.128 NA
ATOM      4  N   UNL     1       0.666   1.020   4.212  0.00  0.00    -0.122 NA
ATOM      5  C   UNL     1       1.112   0.408   3.125  0.00  0.00    +0.197 A 
ENDROOT
BRANCH   2   6
ATOM      6  C   UNL     1      -2.425   0.160   2.832  0.00  0.00    +0.025 C 
ATOM      7  C   UNL     1      -3.546   0.554   3.564  0.00  0.00    +0.006 A 
ATOM      8  C   UNL     1      -3.691   1.250   4.784  0.00  0.00    +0.010 A 
ATOM      9  C   UNL     1      -4.933   1.502   5.271  0.00  0.00    +0.001 A 
ATOM     10  C   UNL     1      -6.082   1.086   4.595  0.00  0.00    +0.002 A 
ATOM     11  C   UNL     1      -6.017   0.413   3.420  0.00  0.00    +0.026 A 
ATOM     12  C   UNL     1      -4.754   0.115   2.847  0.00  0.00    +0.043 A 
ATOM     13  N   UNL     1      -4.427  -0.515   1.736  0.00  0.00    -0.380 N 
ATOM     14  C   UNL     1      -2.967  -0.546   1.609  0.00  0.00    +0.152 C 
ATOM     15  H   UNL     1      -5.054  -0.895   1.101  0.00  0.00    +0.160 HD
ENDBRANCH   2   6
BRANCH   1  22
ATOM     16  C   UNL     1      -0.018   1.503   0.010  0.00  0.00    +0.046 C 
ATOM     17  C   UNL     1       0.002  -0.004   0.002  0.00  0.00    -0.026 A 
ATOM     18  C   UNL     1       0.006  -0.689  -1.198  0.00  0.00    +0.005 A 
ATOM     19  C   UNL     1       0.025  -2.071  -1.206  0.00  0.00    +0.000 A 
ATOM     20  C   UNL     1       0.041  -2.773  -0.014  0.00  0.00    +0.002 A 
ATOM     21  C   UNL     1       0.037  -2.094   1.188  0.00  0.00    +0.026 A 
ATOM     22  C   UNL     1       0.023  -0.705   1.200  0.00  0.00    +0.053 A 
ENDBRANCH   1  22
BRANCH   5  23
ATOM     23  S   UNL     1       2.800   0.183   2.672  0.00  0.00    -0.078 S 
BRANCH  23  24
ATOM     24  C   UNL     1       3.724   0.967   4.023  0.00  0.00    +0.157 C 
BRANCH  24  25
ATOM     25  C   UNL     1       5.202   0.844   3.757  0.00  0.00    +0.173 C 
ATOM     26  O   UNL     1       5.594   0.283   2.755  0.00  0.00    -0.291 OA
BRANCH  25  27
ATOM     27  C   UNL     1       6.169   1.404   4.711  0.00  0.00    +0.022 A 
ATOM     28  C   UNL     1       5.720   2.046   5.871  0.00  0.00    +0.015 A 
ATOM     29  C   UNL     1       6.628   2.571   6.761  0.00  0.00    +0.050 A 
ATOM     30  C   UNL     1       7.993   2.465   6.515  0.00  0.00    +0.162 A 
ATOM     31  C   UNL     1       8.448   1.824   5.364  0.00  0.00    +0.163 A 
ATOM     32  C   UNL     1       7.543   1.291   4.467  0.00  0.00    +0.060 A 
ATOM     33  O   UNL     1       9.781   1.706   5.114  0.00  0.00    -0.485 OA
ATOM     34  C   UNL     1      10.653   2.570   5.850  0.00  0.00    +0.270 C 
ATOM     35  C   UNL     1      10.227   2.541   7.324  0.00  0.00    +0.270 C 
ATOM     36  O   UNL     1       8.871   2.994   7.408  0.00  0.00    -0.485 OA
ENDBRANCH  25  27
ENDBRANCH  24  25
ENDBRANCH  23  24
ENDBRANCH   5  23
TORSDOF 6
