REMARK  Name = ZINC05861004
REMARK  5 active torsions:
REMARK  status: ('A' for Active; 'I' for Inactive)
REMARK    1  A    between atoms: C_1  and  C_2
REMARK    2  A    between atoms: C_2  and  C_3
REMARK    3  A    between atoms: C_2  and  S_4
REMARK    4  A    between atoms: S_4  and  C_5
REMARK    5  A    between atoms: C_16  and  C_18
REMARK                            x       y       z     vdW  Elec       q    Type
REMARK                         _______ _______ _______ _____ _____    ______ ____
ROOT
ATOM      1  C   UNL     1       2.629   6.624   3.442  0.00  0.00    +0.171 A 
ATOM      2  N   UNL     1       2.885   5.291   3.559  0.00  0.00    -0.302 N 
ATOM      3  H   UNL     1       3.134   4.863   4.542  0.00  0.00    +0.171 HD
ATOM      4  C   UNL     1       2.835   4.494   2.472  0.00  0.00    +0.258 A 
ATOM      5  O   UNL     1       3.061   3.298   2.566  0.00  0.00    -0.267 OA
ATOM      6  C   UNL     1       2.517   5.063   1.233  0.00  0.00    +0.069 A 
ATOM      7  C   UNL     1       2.268   6.423   1.168  0.00  0.00    +0.135 A 
ATOM      8  N   UNL     1       2.330   7.165   2.279  0.00  0.00    -0.208 NA
ATOM      9  N   UNL     1       1.960   7.004  -0.046  0.00  0.00    -0.302 N 
ATOM     10  C   UNL     1       2.275   6.374  -1.220  0.00  0.00    +0.017 C 
ATOM     11  C   UNL     1       2.515   5.046  -1.251  0.00  0.00    +0.024 C 
ATOM     12  C   UNL     1       2.447   4.210   0.002  0.00  0.00    +0.092 C 
ATOM     13  C   UNL     1       2.838   4.397  -2.456  0.00  0.00    +0.162 C 
ATOM     14  O   UNL     1       3.068   3.204  -2.447  0.00  0.00    -0.292 OA
ATOM     15  C   UNL     1       2.903   5.151  -3.756  0.00  0.00    +0.080 C 
ATOM     16  C   UNL     1       1.954   6.352  -3.683  0.00  0.00    +0.014 C 
ATOM     17  C   UNL     1       2.348   7.207  -2.477  0.00  0.00    +0.051 C 
ATOM     18  H   UNL     1       1.458   7.982  -0.076  0.00  0.00    +0.153 HD
ENDROOT
BRANCH  12  19
ATOM     19  C   UNL     1       1.153   3.438   0.010  0.00  0.00    -0.032 A 
ATOM     20  C   UNL     1      -0.054   4.112   0.025  0.00  0.00    +0.005 A 
ATOM     21  C   UNL     1      -1.242   3.405   0.032  0.00  0.00    +0.003 A 
ATOM     22  C   UNL     1      -1.224   2.023   0.019  0.00  0.00    +0.038 A 
ATOM     23  C   UNL     1      -0.016   1.347   0.009  0.00  0.00    +0.124 A 
ATOM     24  C   UNL     1       1.173   2.056   0.002  0.00  0.00    +0.043 A 
ATOM     25  F   UNL     1       0.002  -0.004   0.002  0.00  0.00    -0.205 F 
ENDBRANCH  12  19
BRANCH   1  26
ATOM     26  S   UNL     1       2.698   7.645   4.876  0.00  0.00    -0.085 S 
BRANCH  26  28
ATOM     27  C   UNL     1       2.163  10.299   5.246  0.00  0.00    +0.019 C 
ATOM     28  C   UNL     1       2.286   9.247   4.141  0.00  0.00    +0.048 C 
ATOM     29  C   UNL     1       3.390   9.660   3.166  0.00  0.00    +0.019 C 
ENDBRANCH  26  28
ENDBRANCH   1  26
TORSDOF 3
