REMARK  Name = ZINC39770404
REMARK  11 active torsions:
REMARK  status: ('A' for Active; 'I' for Inactive)
REMARK    1  A    between atoms: C_1  and  C_2
REMARK    2  A    between atoms: C_2  and  C_3
REMARK    3  A    between atoms: C_3  and  N_4
REMARK    4  A    between atoms: C_5  and  N_26
REMARK    5  A    between atoms: C_6  and  C_14
REMARK    6  A    between atoms: C_7  and  C_13
REMARK    7  A    between atoms: C_8  and  C_11
REMARK    8  A    between atoms: N_18  and  C_22
REMARK    9  A    between atoms: C_22  and  C_23
REMARK   10  A    between atoms: C_28  and  C_35
REMARK   11  A    between atoms: C_31  and  C_34
REMARK                            x       y       z     vdW  Elec       q    Type
REMARK                         _______ _______ _______ _____ _____    ______ ____
ROOT
ATOM      1  N   UNL     1       0.344  -2.331  -1.420  0.00  0.00    -0.295 N 
ATOM      2  C   UNL     1       1.451  -2.820  -0.804  0.00  0.00    +0.112 A 
ATOM      3  C   UNL     1       1.846  -4.154  -1.000  0.00  0.00    +0.019 A 
ATOM      4  C   UNL     1       1.084  -4.984  -1.839  0.00  0.00    -0.017 A 
ATOM      5  C   UNL     1      -0.046  -4.459  -2.459  0.00  0.00    +0.120 A 
ATOM      6  C   UNL     1      -0.405  -3.106  -2.225  0.00  0.00    +0.270 A 
ATOM      7  O   UNL     1      -1.396  -2.642  -2.760  0.00  0.00    -0.266 OA
ATOM      8  C   UNL     1       1.485  -6.418  -2.067  0.00  0.00    +0.046 C 
ENDROOT
BRANCH   3   9
ATOM      9  C   UNL     1       3.041  -4.675  -0.333  0.00  0.00    +0.032 C 
ATOM     10  C   UNL     1       2.924  -5.644   0.614  0.00  0.00    +0.077 C 
ATOM     11  C   UNL     1       1.747  -6.219   1.186  0.00  0.00    +0.259 C 
ATOM     12  O   UNL     1       0.639  -5.853   0.839  0.00  0.00    -0.269 OA
ATOM     13  N   UNL     1       1.898  -7.160   2.102  0.00  0.00    -0.244 N 
ATOM     14  C   UNL     1       3.129  -7.566   2.486  0.00  0.00    +0.121 C 
ATOM     15  S   UNL     1       3.554  -8.755   3.642  0.00  0.00    -0.027 S 
ATOM     16  S   UNL     1       4.199  -6.552   1.477  0.00  0.00    -0.061 S 
BRANCH  13  17
ATOM     17  C   UNL     1       0.714  -7.771   2.710  0.00  0.00    +0.240 C 
BRANCH  17  18
ATOM     18  C   UNL     1       0.298  -8.973   1.901  0.00  0.00    +0.373 C 
ATOM     19  O   UNL     1       0.932  -9.289   0.908  0.00  0.00    -0.245 OA
ATOM     20  O   UNL     1      -0.672  -9.629   2.239  0.00  0.00    -0.245 OA
ENDBRANCH  17  18
ENDBRANCH  13  17
ENDBRANCH   3   9
BRANCH   2  21
ATOM     21  N   UNL     1       2.186  -2.009   0.010  0.00  0.00    -0.311 N 
ATOM     22  C   UNL     1       3.227  -1.125  -0.540  0.00  0.00    +0.137 C 
ATOM     23  C   UNL     1       4.518  -1.344   0.258  0.00  0.00    +0.133 C 
ATOM     24  O   UNL     1       4.238  -1.204   1.653  0.00  0.00    -0.371 OA
ATOM     25  C   UNL     1       3.314  -2.167   2.164  0.00  0.00    +0.133 C 
ATOM     26  C   UNL     1       1.958  -1.987   1.464  0.00  0.00    +0.137 C 
ATOM     27  C   UNL     1       3.142  -1.961   3.670  0.00  0.00    +0.039 C 
ATOM     28  C   UNL     1       5.560  -0.305  -0.162  0.00  0.00    +0.039 C 
ENDBRANCH   2  21
BRANCH   5  29
ATOM     29  C   UNL     1      -0.844  -5.278  -3.321  0.00  0.00    +0.105 C 
ATOM     30  N   UNL     1      -1.476  -5.928  -4.005  0.00  0.00    -0.191 NA
ENDBRANCH   5  29
BRANCH   1  31
ATOM     31  C   UNL     1      -0.045  -0.936  -1.200  0.00  0.00    +0.126 C 
BRANCH  31  33
ATOM     32  C   UNL     1      -1.484   0.591   0.157  0.00  0.00    +0.005 C 
ATOM     33  C   UNL     1      -1.077  -0.866  -0.073  0.00  0.00    +0.018 C 
ENDBRANCH  31  33
ENDBRANCH   1  31
TORSDOF 7
