REMARK  Name = ZINC02653635
REMARK  8 active torsions:
REMARK  status: ('A' for Active; 'I' for Inactive)
REMARK    1  A    between atoms: C_1  and  C_2
REMARK    2  A    between atoms: C_2  and  C_3
REMARK    3  A    between atoms: C_3  and  C_5
REMARK    4  A    between atoms: C_3  and  C_6
REMARK    5  A    between atoms: C_11  and  O_12
REMARK    6  A    between atoms: O_12  and  C_13
REMARK    7  A    between atoms: C_13  and  C_14
REMARK    8  A    between atoms: C_20  and  C_25
REMARK                            x       y       z     vdW  Elec       q    Type
REMARK                         _______ _______ _______ _____ _____    ______ ____
ROOT
ATOM      1  C   UNL     1      -3.729   5.843   0.067  0.00  0.00    +0.284 C 
ENDROOT
BRANCH   1   2
ATOM      2  C   UNL     1      -2.400   5.132   0.051  0.00  0.00    +0.086 A 
ATOM      3  C   UNL     1      -1.227   5.862   0.043  0.00  0.00    +0.097 A 
ATOM      4  C   UNL     1      -0.005   5.179   0.028  0.00  0.00    +0.259 A 
ATOM      5  O   UNL     1       1.049   5.794   0.021  0.00  0.00    -0.267 OA
ATOM      6  N   UNL     1      -0.011   3.828   0.022  0.00  0.00    -0.268 N 
ATOM      7  C   UNL     1       1.169   3.150   0.007  0.00  0.00    +0.099 A 
ATOM      8  C   UNL     1       1.189   1.798   0.000  0.00  0.00    -0.034 A 
ATOM      9  C   UNL     1      -0.013   1.076   0.008  0.00  0.00    +0.008 A 
ATOM     10  C   UNL     1      -1.199   1.746   0.017  0.00  0.00    +0.047 A 
ATOM     11  C   UNL     1      -1.200   3.152   0.030  0.00  0.00    +0.141 A 
ATOM     12  N   UNL     1      -2.358   3.809   0.044  0.00  0.00    -0.231 NA
ATOM     13  C   UNL     1       2.506   1.065  -0.015  0.00  0.00    +0.045 C 
ENDBRANCH   1   2
BRANCH   1  14
ATOM     14  O   UNL     1      -4.429   5.572  -1.149  0.00  0.00    -0.486 OA
BRANCH  14  20
ATOM     15  C   UNL     1      -6.386   5.926  -2.454  0.00  0.00    -0.003 A 
ATOM     16  C   UNL     1      -7.633   6.502  -2.599  0.00  0.00    +0.007 A 
ATOM     17  C   UNL     1      -8.147   7.303  -1.595  0.00  0.00    +0.001 A 
ATOM     18  C   UNL     1      -7.416   7.525  -0.443  0.00  0.00    +0.004 A 
ATOM     19  C   UNL     1      -6.171   6.946  -0.291  0.00  0.00    +0.046 A 
ATOM     20  C   UNL     1      -5.654   6.142  -1.296  0.00  0.00    +0.124 A 
BRANCH  15  21
ATOM     21  C   UNL     1      -5.824   5.058  -3.551  0.00  0.00    +0.019 C 
ATOM     22  C   UNL     1      -6.759   3.872  -3.792  0.00  0.00    +0.012 C 
BRANCH  21  24
ATOM     23  C   UNL     1      -5.015   5.036  -5.915  0.00  0.00    +0.004 C 
ATOM     24  C   UNL     1      -5.700   5.878  -4.837  0.00  0.00    +0.004 C 
ENDBRANCH  21  24
ENDBRANCH  15  21
ENDBRANCH  14  20
ENDBRANCH   1  14
TORSDOF 5
