REMARK  Name = ZINC28051877
REMARK  8 active torsions:
REMARK  status: ('A' for Active; 'I' for Inactive)
REMARK    1  A    between atoms: C_1  and  C_2
REMARK    2  A    between atoms: C_5  and  C_8
REMARK    3  A    between atoms: C_13  and  C_22
REMARK    4  A    between atoms: C_16  and  C_21
REMARK    5  A    between atoms: C_25  and  O_30
REMARK    6  A    between atoms: C_26  and  O_28
REMARK    7  A    between atoms: O_28  and  C_29
REMARK    8  A    between atoms: O_30  and  C_31
REMARK                            x       y       z     vdW  Elec       q    Type
REMARK                         _______ _______ _______ _____ _____    ______ ____
ROOT
ATOM      1  C   UNL     1       1.425   2.014  -0.001  0.00  0.00    +0.032 C 
ATOM      2  C   UNL     1       2.134   1.430  -1.224  0.00  0.00    +0.059 C 
ATOM      3  C   UNL     1       2.100  -0.080  -1.160  0.00  0.00    +0.019 C 
ATOM      4  C   UNL     1       1.067  -0.722  -0.573  0.00  0.00    +0.024 C 
ATOM      5  C   UNL     1       0.989  -2.233  -0.498  0.00  0.00    +0.091 C 
ATOM      6  C   UNL     1       2.013  -2.829  -1.410  0.00  0.00    +0.049 A 
ATOM      7  C   UNL     1       2.206  -4.123  -1.887  0.00  0.00    +0.087 A 
ATOM      8  N   UNL     1       3.266  -4.073  -2.655  0.00  0.00    -0.081 NA
ATOM      9  O   UNL     1       3.735  -2.952  -2.710  0.00  0.00    -0.339 OA
ATOM     10  C   UNL     1       3.029  -2.101  -1.973  0.00  0.00    +0.226 A 
ATOM     11  N   UNL     1       3.158  -0.749  -1.729  0.00  0.00    -0.286 N 
ATOM     12  C   UNL     1       1.365  -5.336  -1.582  0.00  0.00    +0.069 C 
ATOM     13  C   UNL     1       0.002  -0.004   0.002  0.00  0.00    +0.162 C 
ATOM     14  O   UNL     1      -0.922  -0.613   0.503  0.00  0.00    -0.292 OA
ATOM     15  C   UNL     1      -0.018   1.499   0.010  0.00  0.00    +0.088 C 
ATOM     16  H   UNL     1       4.081  -0.206  -1.979  0.00  0.00    +0.155 HD
ENDROOT
BRANCH   1  21
ATOM     17  C   UNL     1       1.433   7.784  -0.318  0.00  0.00    +0.044 C 
ATOM     18  C   UNL     1       1.431   6.279  -0.235  0.00  0.00    -0.050 A 
ATOM     19  C   UNL     1       2.016   5.646   0.845  0.00  0.00    +0.003 A 
ATOM     20  C   UNL     1       2.014   4.265   0.921  0.00  0.00    +0.004 A 
ATOM     21  C   UNL     1       1.427   3.519  -0.083  0.00  0.00    -0.043 A 
ATOM     22  C   UNL     1       0.846   4.152  -1.166  0.00  0.00    +0.004 A 
ATOM     23  C   UNL     1       0.844   5.533  -1.240  0.00  0.00    +0.003 A 
ENDBRANCH   1  21
BRANCH   5  24
ATOM     24  C   UNL     1       1.255  -2.680   0.916  0.00  0.00    -0.032 A 
ATOM     25  C   UNL     1       2.463  -2.381   1.519  0.00  0.00    +0.008 A 
ATOM     26  C   UNL     1       2.709  -2.784   2.818  0.00  0.00    +0.050 A 
ATOM     27  C   UNL     1       1.749  -3.499   3.516  0.00  0.00    +0.162 A 
ATOM     28  C   UNL     1       0.535  -3.805   2.907  0.00  0.00    +0.162 A 
ATOM     29  C   UNL     1       0.293  -3.393   1.607  0.00  0.00    +0.054 A 
BRANCH  28  30
ATOM     30  O   UNL     1      -0.410  -4.507   3.587  0.00  0.00    -0.491 OA
ATOM     31  C   UNL     1      -1.632  -4.785   2.900  0.00  0.00    +0.277 C 
ENDBRANCH  28  30
BRANCH  27  32
ATOM     32  O   UNL     1       1.992  -3.902   4.792  0.00  0.00    -0.491 OA
ATOM     33  C   UNL     1       3.259  -3.552   5.352  0.00  0.00    +0.277 C 
ENDBRANCH  27  32
ENDBRANCH   5  24
TORSDOF 4
