REMARK  Name = ZINC63171213
REMARK  7 active torsions:
REMARK  status: ('A' for Active; 'I' for Inactive)
REMARK    1  A    between atoms: C_1  and  C_2
REMARK    2  A    between atoms: C_2  and  C_4
REMARK    3  A    between atoms: C_2  and  N_16
REMARK    4  A    between atoms: C_4  and  C_5
REMARK    5  A    between atoms: C_5  and  N_6
REMARK    6  A    between atoms: N_6  and  S_7
REMARK    7  A    between atoms: S_7  and  C_10
REMARK                            x       y       z     vdW  Elec       q    Type
REMARK                         _______ _______ _______ _____ _____    ______ ____
ROOT
ATOM      1  N   UNL     1      -2.790  -2.565  -0.111  0.00  0.00    -0.190 NA
ATOM      2  H   UNL     1      -3.515  -1.994   0.186  0.00  0.00    +0.148 HD
ENDROOT
BRANCH   1   3
ATOM      3  S   UNL     1      -3.105  -4.113  -0.607  0.00  0.00    +0.065 S 
ATOM      4  O   UNL     1      -4.504  -4.311  -0.456  0.00  0.00    -0.153 OA
ATOM      5  O   UNL     1      -2.441  -4.284  -1.851  0.00  0.00    -0.153 OA
BRANCH   3   6
ATOM      6  C   UNL     1      -2.318  -5.197   0.538  0.00  0.00    +0.143 A 
ATOM      7  C   UNL     1      -2.810  -5.738   1.679  0.00  0.00    +0.037 A 
ATOM      8  C   UNL     1      -2.002  -6.572   2.429  0.00  0.00    +0.025 A 
ATOM      9  C   UNL     1      -0.740  -6.824   2.001  0.00  0.00    +0.057 A 
ATOM     10  S   UNL     1      -0.666  -5.874   0.491  0.00  0.00    -0.062 S 
ATOM     11 BR   UNL     1       0.592  -7.906   2.793  0.00  0.00    -0.043 Br
ENDBRANCH   3   6
ENDBRANCH   1   3
BRANCH   1  12
ATOM     12  C   UNL     1      -1.416  -2.058  -0.121  0.00  0.00    +0.104 C 
BRANCH  12  13
ATOM     13  C   UNL     1      -1.433  -0.534   0.013  0.00  0.00    +0.000 C 
BRANCH  13  15
ATOM     14  C   UNL     1      -0.019   1.526   0.010  0.00  0.00    -0.014 C 
ATOM     15  C   UNL     1       0.002  -0.004   0.002  0.00  0.00    -0.077 C 
BRANCH  15  16
ATOM     16  N   UNL     1       0.713  -0.491   1.192  0.00  0.00    +0.380 N 
ATOM     17  H   UNL     1       0.240  -0.165   2.022  0.00  0.00    -0.090 HD
ATOM     18  H   UNL     1       0.726  -1.500   1.187  0.00  0.00    -0.090 HD
ATOM     19  H   UNL     1       1.659  -0.141   1.185  0.00  0.00    -0.090 HD
ENDBRANCH  15  16
ENDBRANCH  13  15
ENDBRANCH  12  13
ENDBRANCH   1  12
TORSDOF 6
