REMARK  Name = ZINC18127196
REMARK  10 active torsions:
REMARK  status: ('A' for Active; 'I' for Inactive)
REMARK    1  A    between atoms: C_1  and  C_2
REMARK    2  A    between atoms: N_4  and  C_33
REMARK    3  A    between atoms: C_7  and  C_9
REMARK    4  A    between atoms: C_9  and  C_10
REMARK    5  A    between atoms: C_9  and  C_19
REMARK    6  A    between atoms: C_13  and  O_18
REMARK    7  A    between atoms: C_14  and  O_16
REMARK    8  A    between atoms: O_16  and  C_17
REMARK    9  A    between atoms: C_21  and  C_32
REMARK   10  A    between atoms: N_23  and  C_26
REMARK                            x       y       z     vdW  Elec       q    Type
REMARK                         _______ _______ _______ _____ _____    ______ ____
ROOT
ATOM      1  C   UNL     1       6.636  -1.233  -1.416  0.00  0.00    +0.054 C 
ENDROOT
BRANCH   1   8
ATOM      2  C   UNL     1       6.668  -0.265  -4.517  0.00  0.00    +0.063 C 
ATOM      3  C   UNL     1       7.690  -0.156  -3.415  0.00  0.00    +0.047 C 
ATOM      4  N   UNL     1       8.958  -0.165  -3.554  0.00  0.00    -0.181 NA
ATOM      5  N   UNL     1       9.642  -0.048  -2.349  0.00  0.00    -0.160 N 
ATOM      6  C   UNL     1       8.784   0.051  -1.307  0.00  0.00    +0.249 C 
ATOM      7  O   UNL     1       9.056   0.166  -0.131  0.00  0.00    -0.273 OA
ATOM      8  C   UNL     1       7.404  -0.016  -1.934  0.00  0.00    +0.131 C 
BRANCH   5   9
ATOM      9  C   UNL     1      11.037  -0.032  -2.228  0.00  0.00    +0.060 A 
ATOM     10  C   UNL     1      11.626   0.096  -0.977  0.00  0.00    +0.025 A 
ATOM     11  C   UNL     1      13.002   0.106  -0.861  0.00  0.00    +0.002 A 
ATOM     12  C   UNL     1      13.793   0.000  -1.990  0.00  0.00    +0.000 A 
ATOM     13  C   UNL     1      13.210  -0.121  -3.238  0.00  0.00    +0.002 A 
ATOM     14  C   UNL     1      11.835  -0.137  -3.360  0.00  0.00    +0.025 A 
ENDBRANCH   5   9
ENDBRANCH   1   8
BRANCH   1  15
ATOM     15  C   UNL     1       6.386  -1.078   0.085  0.00  0.00    +0.131 C 
ATOM     16  C   UNL     1       5.398  -2.117   0.572  0.00  0.00    +0.047 C 
ATOM     17  N   UNL     1       4.388  -1.489   1.034  0.00  0.00    -0.181 NA
ATOM     18  N   UNL     1       4.511  -0.107   0.936  0.00  0.00    -0.160 N 
ATOM     19  C   UNL     1       5.691   0.238   0.377  0.00  0.00    +0.249 C 
ATOM     20  O   UNL     1       6.104   1.357   0.157  0.00  0.00    -0.273 OA
ATOM     21  C   UNL     1       5.577  -3.613   0.525  0.00  0.00    +0.063 C 
BRANCH  18  22
ATOM     22  C   UNL     1       3.542   0.807   1.366  0.00  0.00    +0.060 A 
ATOM     23  C   UNL     1       2.297   0.356   1.783  0.00  0.00    +0.025 A 
ATOM     24  C   UNL     1       1.342   1.260   2.207  0.00  0.00    +0.002 A 
ATOM     25  C   UNL     1       1.626   2.613   2.216  0.00  0.00    +0.000 A 
ATOM     26  C   UNL     1       2.865   3.066   1.800  0.00  0.00    +0.002 A 
ATOM     27  C   UNL     1       3.823   2.167   1.376  0.00  0.00    +0.025 A 
ENDBRANCH  18  22
ENDBRANCH   1  15
BRANCH   1  28
ATOM     28  C   UNL     1       7.444  -2.481  -1.665  0.00  0.00    -0.038 A 
ATOM     29  C   UNL     1       8.573  -2.733  -0.908  0.00  0.00    +0.008 A 
ATOM     30  C   UNL     1       9.317  -3.877  -1.131  0.00  0.00    +0.049 A 
ATOM     31  C   UNL     1       8.932  -4.772  -2.116  0.00  0.00    +0.158 A 
ATOM     32  C   UNL     1       7.796  -4.518  -2.878  0.00  0.00    +0.162 A 
ATOM     33  C   UNL     1       7.051  -3.373  -2.645  0.00  0.00    +0.053 A 
BRANCH  32  34
ATOM     34  O   UNL     1       7.415  -5.394  -3.846  0.00  0.00    -0.491 OA
ATOM     35  C   UNL     1       6.238  -5.068  -4.589  0.00  0.00    +0.277 C 
ENDBRANCH  32  34
BRANCH  31  36
ATOM     36  O   UNL     1       9.663  -5.898  -2.337  0.00  0.00    -0.503 OA
ATOM     37  H   UNL     1       9.381  -6.659  -1.811  0.00  0.00    +0.292 HD
ENDBRANCH  31  36
ENDBRANCH   1  28
TORSDOF 7
