REMARK  Name = ZINC39653888
REMARK  9 active torsions:
REMARK  status: ('A' for Active; 'I' for Inactive)
REMARK    1  A    between atoms: C_1  and  C_2
REMARK    2  A    between atoms: C_2  and  O_3
REMARK    3  A    between atoms: O_3  and  C_4
REMARK    4  A    between atoms: C_7  and  C_10
REMARK    5  A    between atoms: C_10  and  C_11
REMARK    6  A    between atoms: C_11  and  N_12
REMARK    7  A    between atoms: C_13  and  C_15
REMARK    8  A    between atoms: C_26  and  C_28
REMARK    9  A    between atoms: C_31  and  C_36
REMARK                            x       y       z     vdW  Elec       q    Type
REMARK                         _______ _______ _______ _____ _____    ______ ____
ROOT
ATOM      1  C   UNL     1      -0.827 -10.178  -3.635  0.00  0.00    +0.100 C 
ATOM      2  C   UNL     1      -0.723 -10.883  -2.264  0.00  0.00    +0.121 C 
ATOM      3  N   UNL     1      -2.115 -11.276  -1.939  0.00  0.00    -0.296 N 
ATOM      4  C   UNL     1      -2.683 -11.723  -3.233  0.00  0.00    +0.115 C 
ATOM      5  C   UNL     1      -2.112 -10.735  -4.269  0.00  0.00    -0.004 C 
ATOM      6  C   UNL     1      -3.107  -9.607  -4.524  0.00  0.00    -0.010 C 
ATOM      7  C   UNL     1      -4.354 -10.176  -5.207  0.00  0.00    -0.082 C 
ATOM      8  N   UNL     1      -3.972 -10.815  -6.473  0.00  0.00    +0.379 N 
ATOM      9  C   UNL     1      -3.088 -11.957  -6.211  0.00  0.00    -0.082 C 
ATOM     10  C   UNL     1      -1.788 -11.462  -5.571  0.00  0.00    -0.010 C 
ATOM     11  C   UNL     1      -2.726 -11.236  -0.738  0.00  0.00    +0.250 C 
ATOM     12  O   UNL     1      -2.154 -10.750   0.218  0.00  0.00    -0.270 OA
ATOM     13  H   UNL     1      -4.801 -11.135  -6.950  0.00  0.00    -0.086 HD
ATOM     14  H   UNL     1      -3.491 -10.145  -7.054  0.00  0.00    -0.086 HD
ENDROOT
BRANCH  11  15
ATOM     15  C   UNL     1      -4.089 -11.783  -0.585  0.00  0.00    +0.075 A 
ATOM     16  C   UNL     1      -4.481 -12.908  -1.315  0.00  0.00    +0.016 A 
ATOM     17  C   UNL     1      -5.754 -13.414  -1.168  0.00  0.00    +0.007 A 
ATOM     18  C   UNL     1      -6.648 -12.811  -0.299  0.00  0.00    -0.012 A 
ATOM     19  C   UNL     1      -6.271 -11.696   0.429  0.00  0.00    +0.162 A 
ATOM     20  C   UNL     1      -4.992 -11.180   0.295  0.00  0.00    +0.171 A 
ATOM     21  F   UNL     1      -4.621 -10.095   1.010  0.00  0.00    -0.202 F 
ATOM     22  F   UNL     1      -7.149 -11.113   1.274  0.00  0.00    -0.202 F 
ATOM     23  C   UNL     1      -8.039 -13.371  -0.146  0.00  0.00    +0.047 C 
ENDBRANCH  11  15
BRANCH   1  25
ATOM     24  N   UNL     1      -0.440  -7.854  -4.388  0.00  0.00    -0.315 N 
ATOM     25  C   UNL     1      -0.935  -8.687  -3.451  0.00  0.00    +0.218 C 
ATOM     26  O   UNL     1      -1.469  -8.235  -2.459  0.00  0.00    -0.275 OA
ATOM     27  H   UNL     1      -0.014  -8.215  -5.181  0.00  0.00    +0.149 HD
BRANCH  24  28
ATOM     28  C   UNL     1      -0.546  -6.404  -4.209  0.00  0.00    +0.109 C 
BRANCH  28  29
ATOM     29  C   UNL     1       0.089  -5.695  -5.407  0.00  0.00    +0.054 C 
BRANCH  29  33
ATOM     30  C   UNL     1      -0.220  -1.464  -4.886  0.00  0.00    +0.121 A 
ATOM     31  C   UNL     1       0.889  -2.145  -4.404  0.00  0.00    +0.046 A 
ATOM     32  C   UNL     1       0.987  -3.512  -4.574  0.00  0.00    +0.007 A 
ATOM     33  C   UNL     1      -0.020  -4.203  -5.223  0.00  0.00    -0.046 A 
ATOM     34  C   UNL     1      -1.126  -3.527  -5.704  0.00  0.00    +0.007 A 
ATOM     35  C   UNL     1      -1.231  -2.160  -5.531  0.00  0.00    +0.046 A 
BRANCH  30  36
ATOM     36  O   UNL     1      -0.318  -0.119  -4.720  0.00  0.00    -0.492 OA
BRANCH  36  38
ATOM     37  C   UNL     1       0.474   2.032  -3.954  0.00  0.00    +0.048 C 
ATOM     38  C   UNL     1       0.761   0.532  -4.045  0.00  0.00    +0.225 C 
ENDBRANCH  36  38
ENDBRANCH  30  36
ENDBRANCH  29  33
ENDBRANCH  28  29
ENDBRANCH  24  28
ENDBRANCH   1  25
TORSDOF 7
