REMARK  Name = ZINC59435162
REMARK  8 active torsions:
REMARK  status: ('A' for Active; 'I' for Inactive)
REMARK    1  A    between atoms: C_4  and  N_7
REMARK    2  A    between atoms: N_7  and  C_8
REMARK    3  A    between atoms: C_14  and  C_16
REMARK    4  A    between atoms: C_16  and  S_17
REMARK    5  A    between atoms: S_17  and  C_18
REMARK    6  A    between atoms: C_24  and  C_26
REMARK    7  A    between atoms: C_26  and  S_27
REMARK    8  A    between atoms: S_27  and  C_28
REMARK                            x       y       z     vdW  Elec       q    Type
REMARK                         _______ _______ _______ _____ _____    ______ ____
ROOT
ATOM      1  C   UNL     1       6.237   3.930  -0.261  0.00  0.00    +0.160 A 
ATOM      2  N   UNL     1       5.136   4.664  -0.194  0.00  0.00    -0.133 NA
ATOM      3  N   UNL     1       5.174   5.925  -0.193  0.00  0.00    -0.125 NA
ATOM      4  C   UNL     1       6.314   6.592  -0.259  0.00  0.00    +0.189 A 
ATOM      5  S   UNL     1       7.471   5.227  -0.322  0.00  0.00    -0.024 S 
ATOM      6  N   UNL     1       6.549   7.965  -0.270  0.00  0.00    -0.263 N 
ATOM      7  C   UNL     1       5.514   8.826  -0.206  0.00  0.00    +0.229 C 
ATOM      8  O   UNL     1       4.378   8.405  -0.140  0.00  0.00    -0.275 OA
ATOM      9  H   UNL     1       7.457   8.302  -0.322  0.00  0.00    +0.157 HD
ENDROOT
BRANCH   1  10
ATOM     10  S   UNL     1       6.432   2.179  -0.276  0.00  0.00    -0.088 S 
BRANCH  10  11
ATOM     11  C   UNL     1       4.734   1.548  -0.188  0.00  0.00    +0.173 C 
BRANCH  11  13
ATOM     12  N   UNL     1       3.614  -0.651  -0.020  0.00  0.00    -0.240 N 
ATOM     13  C   UNL     1       4.757   0.041  -0.194  0.00  0.00    +0.234 C 
ATOM     14  O   UNL     1       5.805  -0.549  -0.356  0.00  0.00    -0.274 OA
BRANCH  12  18
ATOM     15  C   UNL     1      -0.021   1.366   0.262  0.00  0.00    +0.000 A 
ATOM     16  C   UNL     1       0.490   0.709   1.365  0.00  0.00    +0.002 A 
ATOM     17  C   UNL     1       1.695   0.039   1.276  0.00  0.00    +0.024 A 
ATOM     18  C   UNL     1       2.393   0.026   0.075  0.00  0.00    +0.041 A 
ATOM     19  C   UNL     1       1.877   0.688  -1.032  0.00  0.00    +0.024 A 
ATOM     20  C   UNL     1       0.671   1.356  -0.935  0.00  0.00    +0.002 A 
ENDBRANCH  12  18
BRANCH  12  21
ATOM     21  C   UNL     1       3.648  -2.049   0.067  0.00  0.00    +0.041 A 
ATOM     22  C   UNL     1       4.243  -2.663   1.161  0.00  0.00    +0.024 A 
ATOM     23  C   UNL     1       4.274  -4.042   1.244  0.00  0.00    +0.002 A 
ATOM     24  C   UNL     1       3.715  -4.809   0.239  0.00  0.00    +0.000 A 
ATOM     25  C   UNL     1       3.123  -4.200  -0.852  0.00  0.00    +0.002 A 
ATOM     26  C   UNL     1       3.083  -2.822  -0.938  0.00  0.00    +0.024 A 
ENDBRANCH  12  21
ENDBRANCH  11  13
ENDBRANCH  10  11
ENDBRANCH   1  10
BRANCH   7  27
ATOM     27  C   UNL     1       5.768  10.312  -0.218  0.00  0.00    +0.172 C 
BRANCH  27  28
ATOM     28  S   UNL     1       4.187  11.196  -0.123  0.00  0.00    -0.088 S 
BRANCH  28  29
ATOM     29  C   UNL     1       4.647  12.896  -0.146  0.00  0.00    +0.160 A 
ATOM     30  N   UNL     1       5.849  13.436  -0.222  0.00  0.00    -0.133 NA
ATOM     31  N   UNL     1       5.985  14.805  -0.226  0.00  0.00    -0.125 NA
ATOM     32  C   UNL     1       4.914  15.571  -0.154  0.00  0.00    +0.180 A 
ATOM     33  S   UNL     1       3.612  14.351  -0.082  0.00  0.00    -0.025 S 
ATOM     34  N   UNL     1       4.823  16.958  -0.144  0.00  0.00    -0.336 N 
ATOM     35  H   UNL     1       5.627  17.498  -0.194  0.00  0.00    +0.144 HD
ATOM     36  H   UNL     1       3.954  17.387  -0.086  0.00  0.00    +0.144 HD
ENDBRANCH  28  29
ENDBRANCH  27  28
ENDBRANCH   7  27
TORSDOF 8
