REMARK  Name = ZINC36561149
REMARK  15 active torsions:
REMARK  status: ('A' for Active; 'I' for Inactive)
REMARK    1  A    between atoms: C_1  and  C_2
REMARK    2  A    between atoms: C_2  and  C_3
REMARK    3  A    between atoms: C_3  and  N_4
REMARK    4  A    between atoms: N_4  and  C_5
REMARK    5  A    between atoms: C_5  and  C_7
REMARK    6  A    between atoms: C_5  and  C_14
REMARK    7  A    between atoms: C_10  and  O_13
REMARK    8  A    between atoms: N_16  and  C_17
REMARK    9  A    between atoms: C_17  and  S_18
REMARK   10  A    between atoms: S_18  and  C_21
REMARK   11  A    between atoms: C_24  and  C_27
REMARK   12  A    between atoms: C_28  and  C_30
REMARK   13  A    between atoms: C_30  and  C_32
REMARK   14  A    between atoms: C_30  and  O_38
REMARK   15  A    between atoms: O_38  and  C_39
REMARK                            x       y       z     vdW  Elec       q    Type
REMARK                         _______ _______ _______ _____ _____    ______ ____
ROOT
ATOM      1  C   UNL     1       1.960  -2.921  -0.254  0.00  0.00    +0.192 C 
ENDROOT
BRANCH   1   2
ATOM      2  C   UNL     1       1.793  -2.749  -1.742  0.00  0.00    -0.018 A 
ATOM      3  C   UNL     1       1.645  -1.483  -2.278  0.00  0.00    +0.009 A 
ATOM      4  C   UNL     1       1.492  -1.323  -3.641  0.00  0.00    +0.046 A 
ATOM      5  C   UNL     1       1.487  -2.433  -4.473  0.00  0.00    +0.117 A 
ATOM      6  C   UNL     1       1.637  -3.702  -3.933  0.00  0.00    +0.046 A 
ATOM      7  C   UNL     1       1.795  -3.857  -2.569  0.00  0.00    +0.009 A 
BRANCH   5   8
ATOM      8  O   UNL     1       1.337  -2.278  -5.815  0.00  0.00    -0.507 OA
ATOM      9  H   UNL     1       2.169  -2.168  -6.294  0.00  0.00    +0.292 HD
ENDBRANCH   5   8
ENDBRANCH   1   2
BRANCH   1  10
ATOM     10  C   UNL     1       3.347  -2.492   0.149  0.00  0.00    +0.239 C 
ATOM     11  O   UNL     1       3.495  -1.653   1.012  0.00  0.00    -0.273 OA
ATOM     12  N   UNL     1       4.423  -3.040  -0.449  0.00  0.00    -0.294 N 
ATOM     13  H   UNL     1       4.304  -3.712  -1.139  0.00  0.00    +0.150 HD
BRANCH  12  14
ATOM     14  C   UNL     1       5.771  -2.623  -0.057  0.00  0.00    +0.278 C 
BRANCH  14  15
ATOM     15  S   UNL     1       6.420  -3.769   1.190  0.00  0.00    +0.013 S 
ATOM     16  O   UNL     1       7.753  -3.415   1.535  0.00  0.00    -0.168 OA
ATOM     17  O   UNL     1       5.447  -3.997   2.200  0.00  0.00    -0.168 OA
BRANCH  15  18
ATOM     18  C   UNL     1       6.568  -5.313   0.353  0.00  0.00    +0.090 A 
ATOM     19  C   UNL     1       5.506  -6.198   0.342  0.00  0.00    +0.027 A 
ATOM     20  C   UNL     1       5.623  -7.409  -0.315  0.00  0.00    +0.005 A 
ATOM     21  C   UNL     1       6.800  -7.734  -0.961  0.00  0.00    -0.050 A 
ATOM     22  C   UNL     1       7.862  -6.849  -0.951  0.00  0.00    +0.005 A 
ATOM     23  C   UNL     1       7.744  -5.636  -0.298  0.00  0.00    +0.027 A 
ATOM     24  C   UNL     1       6.927  -9.055  -1.676  0.00  0.00    +0.044 C 
ENDBRANCH  15  18
ENDBRANCH  14  15
ENDBRANCH  12  14
ENDBRANCH   1  10
BRANCH   1  25
ATOM     25  N   UNL     1       0.971  -2.098   0.447  0.00  0.00    -0.284 N 
ATOM     26  C   UNL     1      -0.339  -2.404   0.366  0.00  0.00    +0.250 C 
ATOM     27  O   UNL     1      -0.704  -3.330  -0.326  0.00  0.00    -0.272 OA
BRANCH  25  28
ATOM     28  C   UNL     1       1.406  -0.942   1.234  0.00  0.00    +0.109 C 
BRANCH  28  30
ATOM     29  C   UNL     1       2.401  -0.220   3.409  0.00  0.00    +0.005 C 
ATOM     30  C   UNL     1       1.835  -1.407   2.628  0.00  0.00    +0.016 C 
ENDBRANCH  28  30
ENDBRANCH  25  28
BRANCH  26  31
ATOM     31  C   UNL     1      -1.351  -1.595   1.137  0.00  0.00    +0.233 C 
BRANCH  31  32
ATOM     32  C   UNL     1      -1.296  -1.979   2.593  0.00  0.00    -0.010 A 
ATOM     33  C   UNL     1      -1.624  -3.264   2.982  0.00  0.00    +0.006 A 
ATOM     34  C   UNL     1      -1.574  -3.616   4.318  0.00  0.00    +0.000 A 
ATOM     35  C   UNL     1      -1.195  -2.682   5.265  0.00  0.00    +0.000 A 
ATOM     36  C   UNL     1      -0.867  -1.397   4.876  0.00  0.00    +0.000 A 
ATOM     37  C   UNL     1      -0.912  -1.047   3.539  0.00  0.00    +0.006 A 
ENDBRANCH  31  32
BRANCH  31  38
ATOM     38  O   UNL     1      -2.659  -1.856   0.625  0.00  0.00    -0.366 OA
ATOM     39  C   UNL     1      -3.054  -0.980  -0.434  0.00  0.00    +0.195 C 
ENDBRANCH  31  38
ENDBRANCH  26  31
ENDBRANCH   1  25
TORSDOF 12
