REMARK  Name = ZINC06796658
REMARK  9 active torsions:
REMARK  status: ('A' for Active; 'I' for Inactive)
REMARK    1  A    between atoms: C_1  and  C_2
REMARK    2  A    between atoms: C_4  and  O_9
REMARK    3  A    between atoms: O_9  and  C_10
REMARK    4  A    between atoms: C_10  and  C_12
REMARK    5  A    between atoms: C_10  and  C_13
REMARK    6  A    between atoms: N_15  and  N_16
REMARK    7  A    between atoms: C_17  and  C_18
REMARK    8  A    between atoms: C_17  and  C_19
REMARK    9  A    between atoms: C_24  and  O_25
REMARK                            x       y       z     vdW  Elec       q    Type
REMARK                         _______ _______ _______ _____ _____    ______ ____
ROOT
ATOM      1  C   UNL     1       0.964  -4.656  -3.498  0.00  0.00    +0.273 C 
ATOM      2  O   UNL     1       1.385  -3.862  -4.313  0.00  0.00    -0.270 OA
ATOM      3  N   UNL     1       1.217  -5.972  -3.645  0.00  0.00    -0.204 N 
ATOM      4  H   UNL     1       0.880  -6.606  -2.993  0.00  0.00    +0.177 HD
ENDROOT
BRANCH   3   5
ATOM      5  N   UNL     1       1.965  -6.423  -4.740  0.00  0.00    -0.184 NA
ATOM      6  C   UNL     1       2.209  -7.690  -4.882  0.00  0.00    +0.067 C 
ATOM      7  C   UNL     1       1.686  -8.675  -3.869  0.00  0.00    +0.068 C 
BRANCH   6   8
ATOM      8  C   UNL     1       2.997  -8.164  -6.033  0.00  0.00    +0.039 A 
ATOM      9  C   UNL     1       3.256  -9.527  -6.193  0.00  0.00    +0.013 A 
ATOM     10  C   UNL     1       3.993  -9.965  -7.273  0.00  0.00    +0.001 A 
ATOM     11  C   UNL     1       4.478  -9.059  -8.201  0.00  0.00    +0.004 A 
ATOM     12  C   UNL     1       4.229  -7.707  -8.054  0.00  0.00    +0.046 A 
ATOM     13  C   UNL     1       3.485  -7.251  -6.978  0.00  0.00    +0.126 A 
BRANCH  13  14
ATOM     14  O   UNL     1       3.234  -5.924  -6.835  0.00  0.00    -0.506 OA
ATOM     15  H   UNL     1       3.904  -5.450  -6.324  0.00  0.00    +0.292 HD
ENDBRANCH  13  14
ENDBRANCH   6   8
ENDBRANCH   3   5
BRANCH   1  16
ATOM     16  C   UNL     1       0.158  -4.171  -2.320  0.00  0.00    +0.257 C 
ATOM     17  C   UNL     1      -1.230  -4.812  -2.353  0.00  0.00    +0.062 C 
BRANCH  16  18
ATOM     18  O   UNL     1       0.028  -2.749  -2.386  0.00  0.00    -0.480 OA
BRANCH  18  22
ATOM     19  C   UNL     1      -0.819  -2.925   2.418  0.00  0.00    +0.045 C 
ATOM     20  C   UNL     1      -0.605  -2.146   1.146  0.00  0.00    -0.029 A 
ATOM     21  C   UNL     1      -0.385  -2.813  -0.044  0.00  0.00    +0.050 A 
ATOM     22  C   UNL     1      -0.189  -2.095  -1.214  0.00  0.00    +0.122 A 
ATOM     23  C   UNL     1      -0.214  -0.708  -1.188  0.00  0.00    +0.047 A 
ATOM     24  C   UNL     1      -0.434  -0.045   0.004  0.00  0.00    +0.024 A 
ATOM     25  C   UNL     1      -0.635  -0.763   1.169  0.00  0.00    +0.044 A 
ATOM     26 CL   UNL     1      -0.918   0.073   2.664  0.00  0.00    -0.083 Cl
ENDBRANCH  18  22
ENDBRANCH  16  18
ENDBRANCH   1  16
TORSDOF 6
