REMARK  Name = ZINC06711588
REMARK  8 active torsions:
REMARK  status: ('A' for Active; 'I' for Inactive)
REMARK    1  A    between atoms: C_1  and  C_2
REMARK    2  A    between atoms: C_2  and  C_3
REMARK    3  A    between atoms: C_8  and  N_9
REMARK    4  A    between atoms: N_9  and  C_10
REMARK    5  A    between atoms: C_10  and  N_12
REMARK    6  A    between atoms: N_12  and  N_13
REMARK    7  A    between atoms: C_17  and  N_24
REMARK    8  A    between atoms: C_27  and  C_30
REMARK                            x       y       z     vdW  Elec       q    Type
REMARK                         _______ _______ _______ _____ _____    ______ ____
ROOT
ATOM      1  N   UNL     1       4.214   0.253   2.175  0.00  0.00    -0.175 NA
ATOM      2  C   UNL     1       4.892   0.458   3.279  0.00  0.00    +0.153 C 
ATOM      3  C   UNL     1       4.367   0.914   4.588  0.00  0.00    +0.030 A 
ATOM      4  C   UNL     1       3.095   1.246   5.039  0.00  0.00    +0.035 A 
ATOM      5  C   UNL     1       2.915   1.648   6.354  0.00  0.00    +0.030 A 
ATOM      6  C   UNL     1       4.007   1.717   7.213  0.00  0.00    +0.025 A 
ATOM      7  C   UNL     1       5.271   1.388   6.768  0.00  0.00    +0.026 A 
ATOM      8  C   UNL     1       5.467   0.983   5.453  0.00  0.00    +0.043 A 
ATOM      9  N   UNL     1       6.617   0.603   4.764  0.00  0.00    -0.280 N 
ATOM     10  C   UNL     1       6.341   0.279   3.490  0.00  0.00    +0.269 C 
ATOM     11  O   UNL     1       7.145  -0.093   2.655  0.00  0.00    -0.268 OA
ATOM     12  H   UNL     1       7.503   0.572   5.157  0.00  0.00    +0.155 HD
ENDROOT
BRANCH   5  13
ATOM     13  N   UNL     1       1.638   1.985   6.815  0.00  0.00    -0.330 N 
ATOM     14  C   UNL     1       0.458   1.791   5.961  0.00  0.00    +0.105 C 
ATOM     15  C   UNL     1      -0.311   3.114   5.876  0.00  0.00    +0.022 C 
ATOM     16  C   UNL     1      -0.632   3.604   7.290  0.00  0.00    -0.011 C 
ATOM     17  C   UNL     1       0.670   3.852   8.054  0.00  0.00    +0.022 C 
ATOM     18  C   UNL     1       1.450   2.533   8.166  0.00  0.00    +0.105 C 
ATOM     19  C   UNL     1      -1.431   4.907   7.208  0.00  0.00    +0.007 C 
ENDBRANCH   5  13
BRANCH   1  20
ATOM     20  N   UNL     1       4.873  -0.187   1.020  0.00  0.00    -0.217 N 
ATOM     21  H   UNL     1       5.831  -0.340   1.037  0.00  0.00    +0.176 HD
BRANCH  20  22
ATOM     22  C   UNL     1       4.177  -0.398  -0.114  0.00  0.00    +0.154 C 
ATOM     23  S   UNL     1       4.982  -0.936  -1.526  0.00  0.00    -0.017 S 
BRANCH  22  24
ATOM     24  N   UNL     1       2.846  -0.186  -0.137  0.00  0.00    -0.295 N 
ATOM     25  H   UNL     1       2.400   0.182   0.641  0.00  0.00    +0.154 HD
BRANCH  24  31
ATOM     26  C   UNL     1       0.921  -1.208  -1.176  0.00  0.00    -0.026 A 
ATOM     27  C   UNL     1       0.191  -1.508  -2.310  0.00  0.00    +0.005 A 
ATOM     28  C   UNL     1       0.645  -1.105  -3.552  0.00  0.00    +0.000 A 
ATOM     29  C   UNL     1       1.830  -0.401  -3.664  0.00  0.00    +0.002 A 
ATOM     30  C   UNL     1       2.564  -0.098  -2.534  0.00  0.00    +0.023 A 
ATOM     31  C   UNL     1       2.108  -0.496  -1.284  0.00  0.00    +0.036 A 
BRANCH  26  33
ATOM     32  C   UNL     1      -0.369  -0.510   0.824  0.00  0.00    +0.009 C 
ATOM     33  C   UNL     1       0.425  -1.648   0.178  0.00  0.00    +0.033 C 
ENDBRANCH  26  33
ENDBRANCH  24  31
ENDBRANCH  22  24
ENDBRANCH  20  22
ENDBRANCH   1  20
TORSDOF 6
