REMARK  Name = ZINC66240473
REMARK  8 active torsions:
REMARK  status: ('A' for Active; 'I' for Inactive)
REMARK    1  A    between atoms: C_1  and  C_2
REMARK    2  A    between atoms: C_2  and  N_3
REMARK    3  A    between atoms: N_3  and  C_4
REMARK    4  A    between atoms: C_4  and  C_5
REMARK    5  A    between atoms: C_13  and  C_15
REMARK    6  A    between atoms: C_18  and  N_21
REMARK    7  A    between atoms: C_22  and  N_28
REMARK    8  A    between atoms: C_23  and  C_26
REMARK                            x       y       z     vdW  Elec       q    Type
REMARK                         _______ _______ _______ _____ _____    ______ ____
ROOT
ATOM      1  C   UNL     1      -1.187  -0.197   2.553  0.00  0.00    +0.037 A 
ATOM      2  C   UNL     1      -0.230   0.815   2.445  0.00  0.00    +0.015 A 
ATOM      3  C   UNL     1       0.450   1.240   3.565  0.00  0.00    +0.028 A 
ATOM      4  C   UNL     1       0.184   0.662   4.802  0.00  0.00    +0.067 A 
ATOM      5  C   UNL     1      -0.768  -0.345   4.913  0.00  0.00    +0.028 A 
ATOM      6  C   UNL     1      -1.455  -0.771   3.798  0.00  0.00    +0.015 A 
ENDROOT
BRANCH   4   7
ATOM      7  N   UNL     1       0.875   1.095   5.936  0.00  0.00    -0.218 N 
ATOM      8  C   UNL     1       0.368   1.178   7.194  0.00  0.00    +0.137 A 
ATOM      9  C   UNL     1       1.388   1.653   8.014  0.00  0.00    +0.111 A 
ATOM     10  C   UNL     1       2.523   1.849   7.192  0.00  0.00    +0.155 A 
ATOM     11  N   UNL     1       2.210   1.513   5.972  0.00  0.00    -0.172 NA
BRANCH   8  12
ATOM     12  N   UNL     1      -0.916   0.853   7.585  0.00  0.00    -0.342 N 
ATOM     13  H   UNL     1      -1.555   0.529   6.931  0.00  0.00    +0.144 HD
ATOM     14  H   UNL     1      -1.179   0.948   8.514  0.00  0.00    +0.144 HD
ENDBRANCH   8  12
BRANCH   9  15
ATOM     15  C   UNL     1       1.305   1.896   9.422  0.00  0.00    +0.104 C 
ATOM     16  N   UNL     1       1.239   2.089  10.540  0.00  0.00    -0.191 NA
ENDBRANCH   9  15
ENDBRANCH   4   7
BRANCH   1  18
ATOM     17  N   UNL     1      -1.288  -0.719   0.164  0.00  0.00    -0.293 N 
ATOM     18  C   UNL     1      -1.918  -0.655   1.354  0.00  0.00    +0.247 C 
ATOM     19  O   UNL     1      -3.088  -0.973   1.440  0.00  0.00    -0.270 OA
BRANCH  17  21
ATOM     20  C   UNL     1       0.346   0.971  -0.512  0.00  0.00    +0.024 C 
ATOM     21  C   UNL     1       0.145  -0.427   0.077  0.00  0.00    +0.105 C 
ENDBRANCH  17  21
BRANCH  17  22
ATOM     22  C   UNL     1      -2.036  -1.082  -1.042  0.00  0.00    +0.143 C 
BRANCH  22  23
ATOM     23  C   UNL     1      -1.999  -2.577  -1.226  0.00  0.00    -0.027 A 
ATOM     24  C   UNL     1      -0.979  -3.158  -1.957  0.00  0.00    +0.008 A 
ATOM     25  C   UNL     1      -0.942  -4.529  -2.127  0.00  0.00    +0.041 A 
ATOM     26  C   UNL     1      -1.928  -5.322  -1.564  0.00  0.00    +0.158 A 
ATOM     27  C   UNL     1      -2.950  -4.740  -0.831  0.00  0.00    +0.159 A 
ATOM     28  C   UNL     1      -2.981  -3.367  -0.659  0.00  0.00    +0.046 A 
ATOM     29  F   UNL     1      -3.913  -5.512  -0.282  0.00  0.00    -0.202 F 
ATOM     30  F   UNL     1      -1.893  -6.663  -1.730  0.00  0.00    -0.202 F 
ENDBRANCH  22  23
ENDBRANCH  17  22
ENDBRANCH   1  18
TORSDOF 7
