REMARK  Name = ZINC09835101
REMARK  11 active torsions:
REMARK  status: ('A' for Active; 'I' for Inactive)
REMARK    1  A    between atoms: C_1  and  C_2
REMARK    2  A    between atoms: C_3  and  S_28
REMARK    3  A    between atoms: N_9  and  C_12
REMARK    4  A    between atoms: C_12  and  C_13
REMARK    5  A    between atoms: N_15  and  C_16
REMARK    6  A    between atoms: C_16  and  C_17
REMARK    7  A    between atoms: C_17  and  C_18
REMARK    8  A    between atoms: C_18  and  N_72
REMARK    9  A    between atoms: C_20  and  C_27
REMARK   10  A    between atoms: C_23  and  C_26
REMARK   11  A    between atoms: S_28  and  N_31
REMARK                            x       y       z     vdW  Elec       q    Type
REMARK                         _______ _______ _______ _____ _____    ______ ____
ROOT
ATOM      1  C   UNL     1       6.267  -2.826   2.954  0.00  0.00    +0.053 C 
ATOM      2  C   UNL     1       5.592  -1.902   1.973  0.00  0.00    +0.016 A 
ATOM      3  C   UNL     1       4.597  -1.030   2.200  0.00  0.00    +0.130 A 
ATOM      4  C   UNL     1       4.091  -0.230   1.101  0.00  0.00    +0.099 A 
ATOM      5  C   UNL     1       4.717  -0.458  -0.138  0.00  0.00    +0.117 A 
ATOM      6  S   UNL     1       5.923  -1.706   0.232  0.00  0.00    -0.072 S 
ATOM      7  N   UNL     1       4.361   0.200  -1.238  0.00  0.00    -0.230 NA
ATOM      8  C   UNL     1       3.408   1.092  -1.209  0.00  0.00    +0.203 A 
ATOM      9  N   UNL     1       2.747   1.378  -0.058  0.00  0.00    -0.290 N 
ATOM     10  C   UNL     1       3.053   0.758   1.097  0.00  0.00    +0.264 A 
ATOM     11  O   UNL     1       2.454   1.030   2.123  0.00  0.00    -0.267 OA
ENDROOT
BRANCH   3  12
ATOM     12  S   UNL     1       3.913  -0.859   3.815  0.00  0.00    +0.062 S 
ATOM     13  O   UNL     1       2.552  -0.490   3.643  0.00  0.00    -0.153 OA
ATOM     14  O   UNL     1       4.303  -2.014   4.546  0.00  0.00    -0.153 OA
BRANCH  12  15
ATOM     15  N   UNL     1       4.666   0.431   4.531  0.00  0.00    -0.177 NA
ATOM     16  C   UNL     1       5.892   0.240   5.318  0.00  0.00    +0.109 C 
ATOM     17  C   UNL     1       6.974   1.185   4.774  0.00  0.00    +0.017 C 
ATOM     18  C   UNL     1       6.441   2.619   4.780  0.00  0.00    +0.003 C 
ATOM     19  C   UNL     1       5.216   2.714   3.867  0.00  0.00    +0.017 C 
ATOM     20  C   UNL     1       4.117   1.787   4.397  0.00  0.00    +0.109 C 
ENDBRANCH  12  15
ENDBRANCH   3  12
BRANCH   9  21
ATOM     21  C   UNL     1       1.684   2.385  -0.072  0.00  0.00    +0.221 C 
BRANCH  21  22
ATOM     22  C   UNL     1       0.365   1.721  -0.373  0.00  0.00    +0.233 C 
ATOM     23  O   UNL     1       0.319   0.523  -0.557  0.00  0.00    -0.274 OA
ATOM     24  N   UNL     1      -0.761   2.458  -0.442  0.00  0.00    -0.314 N 
ATOM     25  H   UNL     1      -0.723   3.416  -0.295  0.00  0.00    +0.149 HD
BRANCH  24  26
ATOM     26  C   UNL     1      -2.041   1.812  -0.741  0.00  0.00    +0.102 C 
BRANCH  26  27
ATOM     27  C   UNL     1      -3.151   2.865  -0.761  0.00  0.00    +0.000 C 
BRANCH  27  28
ATOM     28  C   UNL     1      -4.489   2.191  -1.073  0.00  0.00    -0.077 C 
BRANCH  28  36
ATOM     29  C   UNL     1      -5.752   3.784   0.242  0.00  0.00    -0.076 C 
ATOM     30  C   UNL     1      -6.762   4.930   0.156  0.00  0.00    -0.031 C 
ATOM     31  C   UNL     1      -8.089   4.395  -0.391  0.00  0.00    +0.003 C 
ATOM     32  C   UNL     1      -7.846   3.752  -1.759  0.00  0.00    -0.031 C 
ATOM     33  C   UNL     1      -6.804   2.640  -1.617  0.00  0.00    -0.076 C 
ATOM     34  C   UNL     1      -7.333   4.811  -2.737  0.00  0.00    +0.005 C 
ATOM     35  C   UNL     1      -6.985   5.521   1.549  0.00  0.00    +0.005 C 
ATOM     36  N   UNL     1      -5.545   3.224  -1.111  0.00  0.00    +0.380 N 
ATOM     37  H   UNL     1      -5.250   3.979  -1.742  0.00  0.00    -0.082 HD
ENDBRANCH  28  36
ENDBRANCH  27  28
ENDBRANCH  26  27
ENDBRANCH  24  26
ENDBRANCH  21  22
ENDBRANCH   9  21
TORSDOF 8
