REMARK  Name = ZINC39683356
REMARK  15 active torsions:
REMARK  status: ('A' for Active; 'I' for Inactive)
REMARK    1  A    between atoms: C_1  and  C_2
REMARK    2  A    between atoms: C_2  and  C_3
REMARK    3  A    between atoms: C_2  and  C_4
REMARK    4  A    between atoms: C_4  and  O_5
REMARK    5  A    between atoms: O_5  and  C_6
REMARK    6  A    between atoms: C_6  and  C_7
REMARK    7  A    between atoms: C_7  and  C_8
REMARK    8  A    between atoms: C_8  and  N_9
REMARK    9  A    between atoms: C_10  and  C_12
REMARK   10  A    between atoms: C_23  and  C_25
REMARK   11  A    between atoms: C_25  and  C_27
REMARK   12  A    between atoms: C_25  and  O_30
REMARK   13  A    between atoms: C_27  and  C_28
REMARK   14  A    between atoms: C_27  and  C_29
REMARK   15  A    between atoms: O_30  and  C_31
REMARK                            x       y       z     vdW  Elec       q    Type
REMARK                         _______ _______ _______ _____ _____    ______ ____
ROOT
ATOM      1  C   UNL     1      -3.583  -8.739  -0.642  0.00  0.00    +0.100 C 
ATOM      2  C   UNL     1      -3.085  -9.169   0.756  0.00  0.00    +0.121 C 
ATOM      3  N   UNL     1      -4.311  -9.585   1.478  0.00  0.00    -0.297 N 
ATOM      4  C   UNL     1      -5.115 -10.300   0.458  0.00  0.00    +0.115 C 
ATOM      5  C   UNL     1      -4.913  -9.486  -0.836  0.00  0.00    -0.004 C 
ATOM      6  C   UNL     1      -4.825 -10.419  -2.039  0.00  0.00    -0.010 C 
ATOM      7  C   UNL     1      -6.178 -11.107  -2.246  0.00  0.00    -0.082 C 
ATOM      8  N   UNL     1      -7.216 -10.092  -2.463  0.00  0.00    +0.379 N 
ATOM      9  C   UNL     1      -7.359  -9.257  -1.265  0.00  0.00    -0.082 C 
ATOM     10  C   UNL     1      -6.056  -8.491  -1.016  0.00  0.00    -0.010 C 
ATOM     11  C   UNL     1      -4.624  -9.363   2.770  0.00  0.00    +0.257 C 
ATOM     12  O   UNL     1      -5.634  -9.843   3.240  0.00  0.00    -0.272 OA
ATOM     13  H   UNL     1      -6.959  -9.512  -3.248  0.00  0.00    -0.086 HD
ATOM     14  H   UNL     1      -8.094 -10.548  -2.660  0.00  0.00    -0.086 HD
ENDROOT
BRANCH   1  16
ATOM     15  N   UNL     1      -3.410  -6.537  -1.757  0.00  0.00    -0.315 N 
ATOM     16  C   UNL     1      -3.807  -7.249  -0.684  0.00  0.00    +0.218 C 
ATOM     17  O   UNL     1      -4.343  -6.690   0.249  0.00  0.00    -0.275 OA
ATOM     18  H   UNL     1      -2.980  -6.984  -2.503  0.00  0.00    +0.149 HD
BRANCH  15  19
ATOM     19  C   UNL     1      -3.627  -5.089  -1.798  0.00  0.00    +0.106 C 
BRANCH  19  20
ATOM     20  C   UNL     1      -3.089  -4.529  -3.116  0.00  0.00    +0.047 C 
BRANCH  20  21
ATOM     21  C   UNL     1      -3.317  -3.017  -3.158  0.00  0.00    +0.161 C 
BRANCH  21  22
ATOM     22  O   UNL     1      -2.814  -2.494  -4.389  0.00  0.00    -0.379 OA
BRANCH  22  23
ATOM     23  C   UNL     1      -2.978  -1.081  -4.530  0.00  0.00    +0.162 C 
BRANCH  23  25
ATOM     24  C   UNL     1      -2.693   0.855  -6.083  0.00  0.00    +0.009 C 
ATOM     25  C   UNL     1      -2.407  -0.633  -5.877  0.00  0.00    +0.009 C 
ATOM     26  C   UNL     1      -0.895  -0.870  -5.895  0.00  0.00    +0.009 C 
ENDBRANCH  23  25
ENDBRANCH  22  23
ENDBRANCH  21  22
ENDBRANCH  20  21
ENDBRANCH  19  20
ENDBRANCH  15  19
ENDBRANCH   1  16
BRANCH  11  27
ATOM     27  C   UNL     1      -3.719  -8.518   3.630  0.00  0.00    +0.261 C 
BRANCH  27  28
ATOM     28  C   UNL     1      -4.466  -7.258   4.072  0.00  0.00    +0.033 C 
ATOM     29  C   UNL     1      -3.573  -6.437   5.004  0.00  0.00    +0.011 C 
ATOM     30  C   UNL     1      -4.828  -6.422   2.843  0.00  0.00    +0.011 C 
ENDBRANCH  27  28
BRANCH  27  31
ATOM     31  O   UNL     1      -3.323  -9.266   4.782  0.00  0.00    -0.479 OA
BRANCH  31  32
ATOM     32  C   UNL     1      -2.050  -9.091   5.223  0.00  0.00    +0.122 A 
ATOM     33  C   UNL     1      -1.605  -9.767   6.349  0.00  0.00    +0.045 A 
ATOM     34  C   UNL     1      -0.310  -9.587   6.796  0.00  0.00    +0.004 A 
ATOM     35  C   UNL     1       0.542  -8.734   6.121  0.00  0.00    +0.000 A 
ATOM     36  C   UNL     1       0.102  -8.058   4.998  0.00  0.00    +0.004 A 
ATOM     37  C   UNL     1      -1.190  -8.239   4.544  0.00  0.00    +0.045 A 
ENDBRANCH  31  32
ENDBRANCH  27  31
ENDBRANCH  11  27
TORSDOF 11
