REMARK  Name = ZINC01869739
REMARK  8 active torsions:
REMARK  status: ('A' for Active; 'I' for Inactive)
REMARK    1  A    between atoms: C_4  and  N_7
REMARK    2  A    between atoms: C_9  and  C_19
REMARK    3  A    between atoms: C_10  and  C_12
REMARK    4  A    between atoms: C_20  and  C_21
REMARK    5  A    between atoms: C_20  and  N_30
REMARK    6  A    between atoms: N_23  and  C_24
REMARK    7  A    between atoms: C_24  and  C_25
REMARK    8  A    between atoms: C_31  and  C_33
REMARK                            x       y       z     vdW  Elec       q    Type
REMARK                         _______ _______ _______ _____ _____    ______ ____
ROOT
ATOM      1  C   UNL     1      -4.787   1.181  -0.033  0.00  0.00    +0.040 C 
ATOM      2  C   UNL     1      -3.691   1.978  -0.010  0.00  0.00    +0.097 C 
ENDROOT
BRANCH   1   5
ATOM      3  N   UNL     1      -3.748  -2.299  -0.024  0.00  0.00    -0.239 N 
ATOM      4  C   UNL     1      -3.446  -0.986  -0.019  0.00  0.00    +0.123 A 
ATOM      5  C   UNL     1      -4.633  -0.279  -0.034  0.00  0.00    +0.023 A 
ATOM      6  C   UNL     1      -5.708  -1.277  -0.057  0.00  0.00    +0.100 A 
ATOM      7  N   UNL     1      -5.136  -2.461  -0.050  0.00  0.00    -0.166 NA
BRANCH   6   8
ATOM      8  C   UNL     1      -7.164  -1.002  -0.083  0.00  0.00    +0.003 A 
ATOM      9  C   UNL     1      -7.682   0.093   0.608  0.00  0.00    +0.013 A 
ATOM     10  C   UNL     1      -9.037   0.347   0.577  0.00  0.00    +0.039 A 
ATOM     11  C   UNL     1      -9.886  -0.489  -0.131  0.00  0.00    +0.123 A 
ATOM     12  C   UNL     1      -9.377  -1.581  -0.815  0.00  0.00    +0.039 A 
ATOM     13  C   UNL     1      -8.022  -1.841  -0.794  0.00  0.00    +0.013 A 
ATOM     14  F   UNL     1     -11.213  -0.238  -0.154  0.00  0.00    -0.205 F 
ENDBRANCH   6   8
BRANCH   3  18
ATOM     15  C   UNL     1      -0.970  -5.404   0.018  0.00  0.00    +0.000 A 
ATOM     16  C   UNL     1      -2.317  -5.686  -0.117  0.00  0.00    +0.002 A 
ATOM     17  C   UNL     1      -3.240  -4.659  -0.132  0.00  0.00    +0.028 A 
ATOM     18  C   UNL     1      -2.814  -3.343  -0.009  0.00  0.00    +0.065 A 
ATOM     19  C   UNL     1      -1.460  -3.063   0.121  0.00  0.00    +0.028 A 
ATOM     20  C   UNL     1      -0.543  -4.095   0.141  0.00  0.00    +0.002 A 
ENDBRANCH   3  18
ENDBRANCH   1   5
BRANCH   2  21
ATOM     21  C   UNL     1      -3.839   3.432  -0.133  0.00  0.00    +0.259 C 
ATOM     22  O   UNL     1      -2.852   4.143  -0.173  0.00  0.00    -0.269 OA
ATOM     23  N   UNL     1      -5.068   3.980  -0.201  0.00  0.00    -0.303 N 
ATOM     24  H   UNL     1      -5.855   3.414  -0.169  0.00  0.00    +0.149 HD
BRANCH  23  25
ATOM     25  C   UNL     1      -5.216   5.433  -0.325  0.00  0.00    +0.179 C 
BRANCH  25  26
ATOM     26  C   UNL     1      -6.680   5.785  -0.381  0.00  0.00    +0.122 A 
ATOM     27  C   UNL     1      -7.465   6.060   0.677  0.00  0.00    +0.046 A 
ATOM     28  C   UNL     1      -8.755   6.335   0.169  0.00  0.00    +0.041 A 
ATOM     29  C   UNL     1      -8.682   6.212  -1.169  0.00  0.00    +0.195 A 
ATOM     30  O   UNL     1      -7.421   5.885  -1.496  0.00  0.00    -0.466 OA
ENDBRANCH  25  26
ENDBRANCH  23  25
ENDBRANCH   2  21
BRANCH   2  31
ATOM     31  N   UNL     1      -2.417   1.413   0.132  0.00  0.00    -0.277 N 
ATOM     32  C   UNL     1      -1.484   1.605  -0.822  0.00  0.00    +0.250 C 
ATOM     33  O   UNL     1      -1.723   2.332  -1.768  0.00  0.00    -0.270 OA
ATOM     34  H   UNL     1      -2.205   0.884   0.917  0.00  0.00    +0.155 HD
BRANCH  32  35
ATOM     35  C   UNL     1      -0.173   0.933  -0.720  0.00  0.00    +0.055 A 
ATOM     36  C   UNL     1       0.148   0.192   0.420  0.00  0.00    +0.016 A 
ATOM     37  C   UNL     1       1.371  -0.437   0.507  0.00  0.00    +0.021 A 
ATOM     38  C   UNL     1       2.282  -0.338  -0.533  0.00  0.00    +0.042 A 
ATOM     39  C   UNL     1       1.970   0.395  -1.665  0.00  0.00    +0.040 A 
ATOM     40  C   UNL     1       0.749   1.031  -1.765  0.00  0.00    +0.054 A 
ATOM     41 CL   UNL     1       0.359   1.949  -3.187  0.00  0.00    -0.083 Cl
ATOM     42 CL   UNL     1       3.820  -1.134  -0.414  0.00  0.00    -0.083 Cl
ENDBRANCH  32  35
ENDBRANCH   2  31
TORSDOF 8
