REMARK  Name = ZINC59021977
REMARK  7 active torsions:
REMARK  status: ('A' for Active; 'I' for Inactive)
REMARK    1  A    between atoms: C_1  and  C_2
REMARK    2  A    between atoms: C_2  and  C_23
REMARK    3  A    between atoms: N_3  and  N_4
REMARK    4  A    between atoms: C_7  and  S_10
REMARK    5  A    between atoms: S_10  and  C_11
REMARK    6  A    between atoms: C_11  and  C_12
REMARK    7  A    between atoms: N_14  and  C_15
REMARK                            x       y       z     vdW  Elec       q    Type
REMARK                         _______ _______ _______ _____ _____    ______ ____
ROOT
ATOM      1  N   UNL     1      -1.620   0.271   0.628  0.00  0.00    -0.205 N 
ATOM      2  C   UNL     1      -2.050   0.106   1.932  0.00  0.00    +0.232 A 
ATOM      3  N   UNL     1      -2.065   1.035   2.866  0.00  0.00    -0.186 NA
ATOM      4  C   UNL     1      -2.545   0.521   4.003  0.00  0.00    +0.211 A 
ATOM      5  N   UNL     1      -2.842  -0.742   3.809  0.00  0.00    -0.144 NA
ATOM      6  N   UNL     1      -2.534  -1.034   2.470  0.00  0.00    -0.245 N 
ATOM      7  H   UNL     1      -1.651  -0.475   0.009  0.00  0.00    +0.177 HD
ATOM      8  H   UNL     1      -2.646  -1.886   2.022  0.00  0.00    +0.192 HD
ENDROOT
BRANCH   1  11
ATOM      9  C   UNL     1      -0.139   2.969  -1.472  0.00  0.00    +0.068 C 
ATOM     10  C   UNL     1      -0.824   1.697  -1.045  0.00  0.00    +0.063 C 
ATOM     11  N   UNL     1      -1.139   1.515   0.202  0.00  0.00    -0.184 NA
BRANCH  10  12
ATOM     12  C   UNL     1      -1.138   0.659  -2.043  0.00  0.00    -0.002 A 
ATOM     13  C   UNL     1      -2.335  -0.075  -1.936  0.00  0.00    +0.010 A 
ATOM     14  C   UNL     1      -2.646  -1.035  -2.842  0.00  0.00    +0.009 A 
ATOM     15  C   UNL     1      -1.767  -1.310  -3.907  0.00  0.00    -0.018 A 
ATOM     16  C   UNL     1      -2.068  -2.300  -4.857  0.00  0.00    +0.008 A 
ATOM     17  C   UNL     1      -1.199  -2.544  -5.876  0.00  0.00    +0.001 A 
ATOM     18  C   UNL     1      -0.011  -1.825  -5.994  0.00  0.00    +0.001 A 
ATOM     19  C   UNL     1       0.315  -0.859  -5.093  0.00  0.00    +0.008 A 
ATOM     20  C   UNL     1      -0.558  -0.579  -4.026  0.00  0.00    -0.017 A 
ATOM     21  C   UNL     1      -0.255   0.415  -3.084  0.00  0.00    +0.018 A 
ENDBRANCH  10  12
ENDBRANCH   1  11
BRANCH   4  22
ATOM     22  S   UNL     1      -2.746   1.399   5.518  0.00  0.00    -0.075 S 
BRANCH  22  23
ATOM     23  C   UNL     1      -3.428   0.161   6.655  0.00  0.00    +0.173 C 
BRANCH  23  24
ATOM     24  C   UNL     1      -3.651   0.790   8.007  0.00  0.00    +0.228 C 
ATOM     25  O   UNL     1      -3.376   1.957   8.185  0.00  0.00    -0.275 OA
ATOM     26  N   UNL     1      -4.155   0.054   9.017  0.00  0.00    -0.283 N 
ATOM     27  H   UNL     1      -4.425  -0.864   8.860  0.00  0.00    +0.155 HD
BRANCH  26  28
ATOM     28  C   UNL     1      -4.290   0.616  10.294  0.00  0.00    +0.069 A 
ATOM     29  C   UNL     1      -4.415   1.991  10.438  0.00  0.00    +0.029 A 
ATOM     30  C   UNL     1      -4.548   2.543  11.697  0.00  0.00    +0.040 A 
ATOM     31  C   UNL     1      -4.557   1.727  12.816  0.00  0.00    +0.126 A 
ATOM     32  C   UNL     1      -4.432   0.355  12.676  0.00  0.00    +0.078 A 
ATOM     33  C   UNL     1      -4.305  -0.203  11.417  0.00  0.00    +0.147 A 
ATOM     34  F   UNL     1      -4.190  -1.542  11.279  0.00  0.00    -0.203 F 
ATOM     35  F   UNL     1      -4.686   2.270  14.046  0.00  0.00    -0.205 F 
ENDBRANCH  26  28
ENDBRANCH  23  24
ENDBRANCH  22  23
ENDBRANCH   4  22
TORSDOF 6
