REMARK  Name = ZINC04587116
REMARK  5 active torsions:
REMARK  status: ('A' for Active; 'I' for Inactive)
REMARK    1  A    between atoms: C_1  and  C_2
REMARK    2  A    between atoms: C_2  and  C_18
REMARK    3  A    between atoms: N_3  and  N_4
REMARK    4  A    between atoms: C_5  and  C_7
REMARK    5  A    between atoms: C_16  and  O_17
REMARK                            x       y       z     vdW  Elec       q    Type
REMARK                         _______ _______ _______ _____ _____    ______ ____
ROOT
ATOM      1  N   UNL     1       0.024   0.033   2.342  0.00  0.00    -0.203 N 
ATOM      2  C   UNL     1       0.044  -0.647   3.506  0.00  0.00    +0.267 C 
ATOM      3  O   UNL     1       0.060  -1.863   3.499  0.00  0.00    -0.268 OA
ATOM      4  H   UNL     1       0.011   1.003   2.347  0.00  0.00    +0.178 HD
ENDROOT
BRANCH   2   5
ATOM      5  C   UNL     1       0.046   0.084   4.787  0.00  0.00    +0.080 A 
ATOM      6  C   UNL     1       0.022   1.470   4.790  0.00  0.00    +0.025 A 
ATOM      7  C   UNL     1       0.024   2.158   6.011  0.00  0.00    -0.017 A 
ATOM      8  C   UNL     1      -0.001   3.565   6.051  0.00  0.00    +0.008 A 
ATOM      9  C   UNL     1       0.001   4.205   7.251  0.00  0.00    +0.001 A 
ATOM     10  C   UNL     1       0.029   3.488   8.447  0.00  0.00    +0.001 A 
ATOM     11  C   UNL     1       0.054   2.127   8.448  0.00  0.00    +0.008 A 
ATOM     12  C   UNL     1       0.051   1.429   7.228  0.00  0.00    -0.014 A 
ATOM     13  C   UNL     1       0.076   0.024   7.198  0.00  0.00    +0.054 A 
ATOM     14  C   UNL     1       0.068  -0.632   6.003  0.00  0.00    +0.130 A 
BRANCH  14  15
ATOM     15  O   UNL     1       0.086  -1.990   5.982  0.00  0.00    -0.506 OA
ATOM     16  H   UNL     1       0.974  -2.371   5.968  0.00  0.00    +0.292 HD
ENDBRANCH  14  15
ENDBRANCH   2   5
BRANCH   1  19
ATOM     17  C   UNL     1      -0.018   1.503   0.010  0.00  0.00    +0.068 C 
ATOM     18  C   UNL     1       0.002  -0.004   0.002  0.00  0.00    +0.070 C 
ATOM     19  N   UNL     1       0.022  -0.660   1.125  0.00  0.00    -0.184 NA
BRANCH  18  20
ATOM     20  C   UNL     1      -0.000  -0.730  -1.272  0.00  0.00    +0.035 A 
ATOM     21  C   UNL     1       0.011  -2.096  -1.498  0.00  0.00    +0.017 A 
ATOM     22  C   UNL     1       0.005  -2.543  -2.799  0.00  0.00    +0.008 A 
ATOM     23  C   UNL     1      -0.011  -1.639  -3.813  0.00  0.00    +0.046 A 
ATOM     24  S   UNL     1      -0.025  -0.084  -2.936  0.00  0.00    -0.095 S 
ENDBRANCH  18  20
ENDBRANCH   1  19
TORSDOF 4
