REMARK  Name = ZINC36203093
REMARK  17 active torsions:
REMARK  status: ('A' for Active; 'I' for Inactive)
REMARK    1  A    between atoms: C_1  and  O_2
REMARK    2  A    between atoms: O_2  and  C_3
REMARK    3  A    between atoms: C_3  and  C_4
REMARK    4  A    between atoms: C_4  and  C_5
REMARK    5  A    between atoms: C_5  and  N_6
REMARK    6  A    between atoms: N_6  and  C_7
REMARK    7  A    between atoms: N_6  and  C_15
REMARK    8  A    between atoms: C_7  and  C_8
REMARK    9  A    between atoms: C_15  and  C_16
REMARK   10  A    between atoms: C_19  and  C_21
REMARK   11  A    between atoms: C_21  and  C_22
REMARK   12  A    between atoms: C_21  and  C_30
REMARK   13  A    between atoms: C_21  and  O_38
REMARK   14  A    between atoms: C_25  and  O_28
REMARK   15  A    between atoms: O_28  and  C_29
REMARK   16  A    between atoms: C_33  and  O_36
REMARK   17  A    between atoms: O_36  and  C_37
REMARK                            x       y       z     vdW  Elec       q    Type
REMARK                         _______ _______ _______ _____ _____    ______ ____
ROOT
ATOM      1  C   UNL     1       0.551  -5.913  -2.312  0.00  0.00    +0.089 A 
ATOM      2  C   UNL     1      -0.304  -6.951  -2.273  0.00  0.00    +0.043 A 
ATOM      3  C   UNL     1       0.322  -7.968  -1.517  0.00  0.00    +0.048 A 
ATOM      4  C   UNL     1       1.521  -7.491  -1.139  0.00  0.00    +0.146 A 
ATOM      5  O   UNL     1       1.657  -6.248  -1.628  0.00  0.00    -0.463 OA
ENDROOT
BRANCH   1   6
ATOM      6  C   UNL     1       0.310  -4.599  -3.010  0.00  0.00    -0.003 C 
BRANCH   6   7
ATOM      7  N   UNL     1      -0.424  -3.696  -2.114  0.00  0.00    +0.387 N 
ATOM      8  H   UNL     1      -1.270  -4.147  -1.800  0.00  0.00    -0.081 HD
BRANCH   7   9
ATOM      9  C   UNL     1       0.416  -3.368  -0.954  0.00  0.00    -0.076 C 
BRANCH   9  10
ATOM     10  C   UNL     1      -0.391  -2.529   0.038  0.00  0.00    +0.009 C 
BRANCH  10  11
ATOM     11  C   UNL     1       0.483  -2.188   1.247  0.00  0.00    +0.157 C 
BRANCH  11  13
ATOM     12  C   UNL     1       0.458  -1.029   3.345  0.00  0.00    +0.193 C 
ATOM     13  O   UNL     1      -0.271  -1.404   2.174  0.00  0.00    -0.383 OA
ENDBRANCH  11  13
ENDBRANCH  10  11
ENDBRANCH   9  10
ENDBRANCH   7   9
BRANCH   7  14
ATOM     14  C   UNL     1      -0.766  -2.462  -2.836  0.00  0.00    -0.042 C 
BRANCH  14  15
ATOM     15  C   UNL     1      -1.746  -2.779  -3.936  0.00  0.00    -0.061 A 
ATOM     16  C   UNL     1      -1.290  -3.007  -5.222  0.00  0.00    +0.002 A 
ATOM     17  C   UNL     1      -2.188  -3.298  -6.232  0.00  0.00    +0.003 A 
ATOM     18  C   UNL     1      -3.541  -3.360  -5.958  0.00  0.00    +0.038 A 
ATOM     19  C   UNL     1      -3.998  -3.132  -4.672  0.00  0.00    +0.124 A 
ATOM     20  C   UNL     1      -3.097  -2.847  -3.659  0.00  0.00    +0.040 A 
ATOM     21  F   UNL     1      -5.321  -3.192  -4.403  0.00  0.00    -0.205 F 
ENDBRANCH  14  15
ENDBRANCH   7  14
ENDBRANCH   6   7
ENDBRANCH   1   6
BRANCH   4  22
ATOM     22  C   UNL     1       2.542  -8.228  -0.311  0.00  0.00    +0.174 C 
BRANCH  22  23
ATOM     23  C   UNL     1       3.925  -7.764  -0.689  0.00  0.00    -0.004 A 
ATOM     24  C   UNL     1       4.799  -8.635  -1.313  0.00  0.00    +0.011 A 
ATOM     25  C   UNL     1       6.068  -8.212  -1.660  0.00  0.00    +0.046 A 
ATOM     26  C   UNL     1       6.464  -6.912  -1.382  0.00  0.00    +0.120 A 
ATOM     27  C   UNL     1       5.585  -6.040  -0.756  0.00  0.00    +0.046 A 
ATOM     28  C   UNL     1       4.316  -6.466  -0.416  0.00  0.00    +0.011 A 
BRANCH  26  29
ATOM     29  O   UNL     1       7.712  -6.493  -1.722  0.00  0.00    -0.495 OA
ATOM     30  C   UNL     1       8.052  -5.142  -1.405  0.00  0.00    +0.277 C 
ENDBRANCH  26  29
ENDBRANCH  22  23
BRANCH  22  31
ATOM     31  C   UNL     1       2.301  -7.950   1.150  0.00  0.00    -0.004 A 
ATOM     32  C   UNL     1       1.920  -6.684   1.558  0.00  0.00    +0.011 A 
ATOM     33  C   UNL     1       1.698  -6.426   2.897  0.00  0.00    +0.046 A 
ATOM     34  C   UNL     1       1.857  -7.438   3.832  0.00  0.00    +0.120 A 
ATOM     35  C   UNL     1       2.239  -8.707   3.421  0.00  0.00    +0.046 A 
ATOM     36  C   UNL     1       2.454  -8.961   2.080  0.00  0.00    +0.011 A 
BRANCH  34  37
ATOM     37  O   UNL     1       1.640  -7.187   5.150  0.00  0.00    -0.495 OA
ATOM     38  C   UNL     1       1.823  -8.276   6.057  0.00  0.00    +0.277 C 
ENDBRANCH  34  37
ENDBRANCH  22  31
BRANCH  22  39
ATOM     39  O   UNL     1       2.428  -9.632  -0.554  0.00  0.00    -0.372 OA
ATOM     40  H   UNL     1       1.562 -10.000  -0.333  0.00  0.00    +0.212 HD
ENDBRANCH  22  39
ENDBRANCH   4  22
TORSDOF 14
