REMARK  Name = ZINC65056715
REMARK  7 active torsions:
REMARK  status: ('A' for Active; 'I' for Inactive)
REMARK    1  A    between atoms: C_1  and  C_2
REMARK    2  A    between atoms: C_2  and  N_3
REMARK    3  A    between atoms: N_3  and  C_4
REMARK    4  A    between atoms: C_4  and  C_5
REMARK    5  A    between atoms: C_12  and  C_14
REMARK    6  A    between atoms: N_16  and  C_17
REMARK    7  A    between atoms: C_21  and  N_22
REMARK                            x       y       z     vdW  Elec       q    Type
REMARK                         _______ _______ _______ _____ _____    ______ ____
ROOT
ATOM      1  C   UNL     1      -3.776  -1.615  -7.363  0.00  0.00    +0.251 C 
ATOM      2  O   UNL     1      -3.255  -2.013  -8.390  0.00  0.00    -0.270 OA
ATOM      3  N   UNL     1      -5.103  -1.385  -7.326  0.00  0.00    -0.306 N 
ATOM      4  H   UNL     1      -5.517  -1.068  -6.508  0.00  0.00    +0.149 HD
ENDROOT
BRANCH   1  12
ATOM      5  N   UNL     1       0.688  -0.476  -1.203  0.00  0.00    -0.310 N 
ATOM      6  C   UNL     1      -0.030  -0.710  -2.359  0.00  0.00    +0.162 A 
ATOM      7  N   UNL     1      -1.321  -0.563  -2.577  0.00  0.00    -0.218 NA
ATOM      8  C   UNL     1      -1.874  -0.830  -3.754  0.00  0.00    +0.118 A 
ATOM      9  C   UNL     1      -1.031  -1.284  -4.785  0.00  0.00    +0.049 A 
ATOM     10  S   UNL     1       0.552  -1.281  -3.947  0.00  0.00    -0.052 S 
ATOM     11  C   UNL     1      -1.600  -1.562  -6.008  0.00  0.00    +0.038 A 
ATOM     12  C   UNL     1      -2.961  -1.387  -6.172  0.00  0.00    +0.077 A 
ATOM     13  S   UNL     1      -3.471  -0.813  -4.563  0.00  0.00    -0.064 S 
BRANCH   5  15
ATOM     14  C   UNL     1      -0.019   1.526   0.010  0.00  0.00    +0.024 C 
ATOM     15  C   UNL     1       0.002  -0.004   0.002  0.00  0.00    +0.103 C 
ENDBRANCH   5  15
BRANCH   5  16
ATOM     16  C   UNL     1       2.135  -0.701  -1.182  0.00  0.00    +0.103 C 
ATOM     17  C   UNL     1       2.421  -2.145  -0.763  0.00  0.00    +0.024 C 
ENDBRANCH   5  16
ENDBRANCH   1  12
BRANCH   3  18
ATOM     18  C   UNL     1      -5.920  -1.613  -8.520  0.00  0.00    +0.096 C 
ATOM     19  C   UNL     1      -6.396  -3.080  -8.562  0.00  0.00    +0.024 C 
ATOM     20  C   UNL     1      -7.811  -3.038  -7.933  0.00  0.00    +0.004 C 
ATOM     21  C   UNL     1      -8.388  -1.709  -8.478  0.00  0.00    +0.027 C 
ATOM     22  C   UNL     1      -7.187  -0.741  -8.466  0.00  0.00    +0.108 C 
BRANCH  22  23
ATOM     23  N   UNL     1      -7.240   0.140  -9.636  0.00  0.00    -0.334 N 
ATOM     24  C   UNL     1      -7.281  -0.253 -10.947  0.00  0.00    +0.105 A 
ATOM     25  C   UNL     1      -7.323   0.871 -11.688  0.00  0.00    +0.101 A 
ATOM     26  N   UNL     1      -7.309   1.920 -10.853  0.00  0.00    -0.352 N 
ATOM     27  C   UNL     1      -7.264   1.490  -9.622  0.00  0.00    +0.174 A 
ATOM     28  H   UNL     1      -7.332   2.852 -11.122  0.00  0.00    +0.166 HD
ENDBRANCH  22  23
ENDBRANCH   3  18
TORSDOF 5
