REMARK  Name = ZINC36207789
REMARK  12 active torsions:
REMARK  status: ('A' for Active; 'I' for Inactive)
REMARK    1  A    between atoms: C_1  and  C_2
REMARK    2  A    between atoms: C_2  and  C_4
REMARK    3  A    between atoms: C_2  and  O_30
REMARK    4  A    between atoms: C_4  and  N_5
REMARK    5  A    between atoms: N_5  and  C_6
REMARK    6  A    between atoms: N_5  and  C_11
REMARK    7  A    between atoms: C_6  and  C_7
REMARK    8  A    between atoms: C_7  and  C_8
REMARK    9  A    between atoms: C_8  and  C_9
REMARK   10  A    between atoms: C_8  and  C_10
REMARK   11  A    between atoms: C_11  and  C_12
REMARK   12  A    between atoms: C_18  and  C_23
REMARK                            x       y       z     vdW  Elec       q    Type
REMARK                         _______ _______ _______ _____ _____    ______ ____
ROOT
ATOM      1  C   UNL     1      -3.234  -2.417  -1.356  0.00  0.00    +0.094 A 
ATOM      2  N   UNL     1      -4.493  -2.853  -1.616  0.00  0.00    -0.312 N 
ATOM      3  H   UNL     1      -5.022  -3.234  -0.898  0.00  0.00    +0.170 HD
ATOM      4  C   UNL     1      -5.021  -2.767  -2.851  0.00  0.00    +0.260 A 
ATOM      5  O   UNL     1      -6.154  -3.162  -3.068  0.00  0.00    -0.267 OA
ATOM      6  C   UNL     1      -4.234  -2.203  -3.905  0.00  0.00    +0.080 A 
ATOM      7  C   UNL     1      -4.577  -2.003  -5.308  0.00  0.00    +0.004 A 
ATOM      8  C   UNL     1      -3.658  -1.442  -6.130  0.00  0.00    +0.056 A 
ATOM      9  S   UNL     1      -2.267  -1.149  -5.055  0.00  0.00    -0.076 S 
ATOM     10  C   UNL     1      -2.945  -1.780  -3.541  0.00  0.00    +0.116 A 
ATOM     11  N   UNL     1      -2.493  -1.893  -2.295  0.00  0.00    -0.229 NA
ENDROOT
BRANCH   7  12
ATOM     12  C   UNL     1      -5.907  -2.406  -5.824  0.00  0.00    -0.016 A 
ATOM     13  C   UNL     1      -6.404  -3.680  -5.558  0.00  0.00    +0.010 A 
ATOM     14  C   UNL     1      -7.643  -4.051  -6.041  0.00  0.00    +0.020 A 
ATOM     15  C   UNL     1      -8.391  -3.158  -6.789  0.00  0.00    +0.041 A 
ATOM     16  C   UNL     1      -7.902  -1.891  -7.057  0.00  0.00    +0.020 A 
ATOM     17  C   UNL     1      -6.667  -1.509  -6.574  0.00  0.00    +0.010 A 
ATOM     18 CL   UNL     1      -9.948  -3.630  -7.394  0.00  0.00    -0.084 Cl
ENDBRANCH   7  12
BRANCH   1  19
ATOM     19  C   UNL     1      -2.684  -2.533   0.043  0.00  0.00    -0.003 C 
BRANCH  19  20
ATOM     20  N   UNL     1      -1.318  -1.994   0.078  0.00  0.00    +0.386 N 
ATOM     21  H   UNL     1      -0.757  -2.453  -0.624  0.00  0.00    -0.081 HD
BRANCH  20  22
ATOM     22  C   UNL     1      -1.355  -0.550  -0.191  0.00  0.00    -0.047 C 
BRANCH  22  24
ATOM     23  C   UNL     1      -1.935   1.679   0.779  0.00  0.00    +0.035 C 
ATOM     24  C   UNL     1      -2.067   0.165   0.959  0.00  0.00    +0.095 C 
BRANCH  24  25
ATOM     25  O   UNL     1      -3.450  -0.195   0.961  0.00  0.00    -0.394 OA
ATOM     26  H   UNL     1      -3.979   0.279   1.617  0.00  0.00    +0.210 HD
ENDBRANCH  24  25
ENDBRANCH  22  24
ENDBRANCH  20  22
BRANCH  20  27
ATOM     27  C   UNL     1      -0.733  -2.230   1.405  0.00  0.00    -0.078 C 
BRANCH  27  28
ATOM     28  C   UNL     1       0.722  -1.757   1.412  0.00  0.00    -0.016 C 
BRANCH  28  29
ATOM     29  C   UNL     1       1.368  -2.114   2.752  0.00  0.00    -0.019 C 
ATOM     30  C   UNL     1       1.437  -3.636   2.896  0.00  0.00    +0.007 C 
ATOM     31  C   UNL     1       2.782  -1.532   2.808  0.00  0.00    +0.007 C 
ENDBRANCH  28  29
ENDBRANCH  27  28
ENDBRANCH  20  27
ENDBRANCH  19  20
ENDBRANCH   1  19
TORSDOF 9
