REMARK  Name = ZINC39774324
REMARK  7 active torsions:
REMARK  status: ('A' for Active; 'I' for Inactive)
REMARK    1  A    between atoms: C_1  and  C_2
REMARK    2  A    between atoms: C_4  and  S_9
REMARK    3  A    between atoms: C_5  and  C_8
REMARK    4  A    between atoms: S_9  and  C_10
REMARK    5  A    between atoms: C_15  and  N_16
REMARK    6  A    between atoms: C_17  and  C_18
REMARK    7  A    between atoms: C_21  and  N_23
REMARK                            x       y       z     vdW  Elec       q    Type
REMARK                         _______ _______ _______ _____ _____    ______ ____
ROOT
ATOM      1  C   UNL     1      -4.116  -0.914  -0.213  0.00  0.00    +0.038 A 
ATOM      2  C   UNL     1      -3.876  -1.913   0.745  0.00  0.00    +0.017 A 
ATOM      3  C   UNL     1      -4.741  -2.953   0.874  0.00  0.00    +0.001 A 
ATOM      4  C   UNL     1      -5.884  -3.062   0.070  0.00  0.00    +0.002 A 
ATOM      5  C   UNL     1      -6.178  -2.135  -0.875  0.00  0.00    +0.029 A 
ATOM      6  C   UNL     1      -5.324  -1.022  -1.059  0.00  0.00    +0.078 A 
ENDROOT
BRANCH   6   7
ATOM      7  N   UNL     1      -5.598  -0.098  -1.976  0.00  0.00    -0.251 NA
ATOM      8  C   UNL     1      -6.820   0.417  -2.055  0.00  0.00    +0.157 C 
BRANCH   8   9
ATOM      9  C   UNL     1      -7.137   1.305  -3.083  0.00  0.00    +0.149 A 
ATOM     10  C   UNL     1      -8.382   1.928  -3.286  0.00  0.00    +0.053 A 
ATOM     11  C   UNL     1      -8.245   2.722  -4.415  0.00  0.00    +0.076 A 
ATOM     12  C   UNL     1      -6.952   2.571  -4.867  0.00  0.00    +0.280 A 
ATOM     13  O   UNL     1      -6.302   1.726  -4.058  0.00  0.00    -0.433 OA
BRANCH  12  14
ATOM     14  N   UNL     1      -6.372   3.240  -6.055  0.00  0.00    +0.093 N 
ATOM     15  O   UNL     1      -7.111   4.058  -6.775  0.00  0.00    -0.123 OA
ATOM     16  O   UNL     1      -5.119   3.016  -6.390  0.00  0.00    -0.123 OA
ENDBRANCH  12  14
ENDBRANCH   8   9
ENDBRANCH   6   7
BRANCH   1  17
ATOM     17  S   UNL     1      -3.071   0.364  -0.386  0.00  0.00    -0.089 S 
BRANCH  17  20
ATOM     18  C   UNL     1      -0.296  -1.302  -0.924  0.00  0.00    +0.031 C 
ATOM     19  C   UNL     1      -0.770  -1.193   0.526  0.00  0.00    +0.106 C 
ATOM     20  C   UNL     1      -1.731  -0.032   0.689  0.00  0.00    +0.025 C 
ATOM     21  C   UNL     1      -1.381   0.637   1.791  0.00  0.00    +0.009 C 
ATOM     22  N   UNL     1      -0.275   0.045   2.407  0.00  0.00    -0.356 NA
ATOM     23  N   UNL     1       0.360  -0.836   1.421  0.00  0.00    -0.252 NA
ATOM     24  C   UNL     1      -2.086   1.868   2.302  0.00  0.00    +0.061 C 
ATOM     25  H   UNL     1       0.376   0.757   2.701  0.00  0.00    +0.140 HD
ATOM     26  H   UNL     1       0.746  -1.657   1.861  0.00  0.00    +0.143 HD
ATOM     27  H   UNL     1      -0.576  -0.497   3.204  0.00  0.00    +0.140 HD
ENDBRANCH  17  20
ENDBRANCH   1  17
TORSDOF 5
