REMARK  Name = ZINC39668949
REMARK  8 active torsions:
REMARK  status: ('A' for Active; 'I' for Inactive)
REMARK    1  A    between atoms: C_1  and  O_2
REMARK    2  A    between atoms: O_2  and  C_3
REMARK    3  A    between atoms: C_6  and  C_11
REMARK    4  A    between atoms: C_7  and  O_9
REMARK    5  A    between atoms: O_9  and  C_10
REMARK    6  A    between atoms: C_15  and  C_24
REMARK    7  A    between atoms: N_26  and  C_27
REMARK    8  A    between atoms: C_27  and  C_28
REMARK                            x       y       z     vdW  Elec       q    Type
REMARK                         _______ _______ _______ _____ _____    ______ ____
ROOT
ATOM      1  C   UNL     1      -5.167  -2.822  -0.061  0.00  0.00    +0.250 C 
ATOM      2  O   UNL     1      -5.323  -4.022  -0.176  0.00  0.00    -0.270 OA
ATOM      3  N   UNL     1      -6.236  -2.014   0.085  0.00  0.00    -0.296 N 
ATOM      4  C   UNL     1      -6.255  -0.533   0.132  0.00  0.00    +0.121 C 
ATOM      5  C   UNL     1      -7.518  -0.134  -0.665  0.00  0.00    +0.100 C 
ATOM      6  C   UNL     1      -8.434  -1.367  -0.591  0.00  0.00    -0.004 C 
ATOM      7  C   UNL     1      -7.658  -2.406   0.231  0.00  0.00    +0.115 C 
ATOM      8  C   UNL     1      -8.708  -1.907  -1.991  0.00  0.00    -0.010 C 
ATOM      9  C   UNL     1      -9.667  -3.097  -1.896  0.00  0.00    -0.082 C 
ATOM     10  N   UNL     1     -10.919  -2.668  -1.262  0.00  0.00    +0.379 N 
ATOM     11  C   UNL     1     -10.661  -2.237   0.117  0.00  0.00    -0.082 C 
ATOM     12  C   UNL     1      -9.743  -1.011   0.107  0.00  0.00    -0.010 C 
ATOM     13  H   UNL     1     -11.314  -1.901  -1.784  0.00  0.00    -0.086 HD
ATOM     14  H   UNL     1     -11.572  -3.438  -1.255  0.00  0.00    -0.086 HD
ENDROOT
BRANCH   1  18
ATOM     15  C   UNL     1      -1.252  -1.174  -0.123  0.00  0.00    +0.124 A 
ATOM     16  C   UNL     1      -2.237  -0.601   0.676  0.00  0.00    +0.046 A 
ATOM     17  C   UNL     1      -3.506  -1.131   0.699  0.00  0.00    +0.020 A 
ATOM     18  C   UNL     1      -3.809  -2.250  -0.083  0.00  0.00    +0.079 A 
ATOM     19  C   UNL     1      -2.816  -2.827  -0.888  0.00  0.00    +0.136 A 
ATOM     20  C   UNL     1      -1.544  -2.281  -0.907  0.00  0.00    +0.092 A 
BRANCH  15  22
ATOM     21  C   UNL     1       0.230   0.495   0.691  0.00  0.00    +0.277 C 
ATOM     22  O   UNL     1      -0.003  -0.645  -0.140  0.00  0.00    -0.495 OA
ENDBRANCH  15  22
BRANCH  19  23
ATOM     23  O   UNL     1      -3.101  -3.913  -1.650  0.00  0.00    -0.494 OA
ATOM     24  C   UNL     1      -2.039  -4.446  -2.444  0.00  0.00    +0.277 C 
ENDBRANCH  19  23
ENDBRANCH   1  18
BRANCH   5  25
ATOM     25  C   UNL     1      -7.160   0.171  -2.097  0.00  0.00    +0.218 C 
ATOM     26  O   UNL     1      -6.221  -0.391  -2.620  0.00  0.00    -0.275 OA
ATOM     27  N   UNL     1      -7.882   1.069  -2.796  0.00  0.00    -0.312 N 
ATOM     28  H   UNL     1      -8.633   1.519  -2.377  0.00  0.00    +0.149 HD
BRANCH  27  29
ATOM     29  C   UNL     1      -7.535   1.365  -4.187  0.00  0.00    +0.140 C 
BRANCH  29  30
ATOM     30  C   UNL     1      -8.504   2.410  -4.744  0.00  0.00    +0.165 C 
ATOM     31  C   UNL     1      -8.227   2.616  -6.211  0.00  0.00    -0.014 A 
ATOM     32  C   UNL     1      -8.002   1.505  -7.009  0.00  0.00    +0.006 A 
ATOM     33  C   UNL     1      -7.749   1.657  -8.357  0.00  0.00    +0.000 A 
ATOM     34  C   UNL     1      -7.721   2.921  -8.916  0.00  0.00    +0.000 A 
ATOM     35  C   UNL     1      -7.944   4.028  -8.122  0.00  0.00    +0.004 A 
ATOM     36  C   UNL     1      -8.194   3.878  -6.767  0.00  0.00    -0.040 A 
ATOM     37  C   UNL     1      -8.419   5.111  -5.929  0.00  0.00    +0.063 C 
ATOM     38  C   UNL     1      -9.076   4.722  -4.604  0.00  0.00    +0.165 C 
ATOM     39  O   UNL     1      -8.336   3.637  -4.035  0.00  0.00    -0.370 OA
ENDBRANCH  29  30
ENDBRANCH  27  29
ENDBRANCH   5  25
TORSDOF 6
