REMARK  Name = ZINC35312480
REMARK  7 active torsions:
REMARK  status: ('A' for Active; 'I' for Inactive)
REMARK    1  A    between atoms: C_1  and  C_2
REMARK    2  A    between atoms: C_7  and  N_12
REMARK    3  A    between atoms: C_9  and  C_11
REMARK    4  A    between atoms: C_13  and  C_15
REMARK    5  A    between atoms: C_15  and  C_36
REMARK    6  A    between atoms: N_27  and  C_28
REMARK    7  A    between atoms: C_28  and  C_29
REMARK                            x       y       z     vdW  Elec       q    Type
REMARK                         _______ _______ _______ _____ _____    ______ ____
ROOT
ATOM      1  C   UNL     1       2.062  -4.070   4.170  0.00  0.00    +0.129 C 
ATOM      2  C   UNL     1       1.325  -5.307   4.685  0.00  0.00    +0.157 C 
ATOM      3  N   UNL     1       0.106  -4.884   5.378  0.00  0.00    -0.333 N 
ATOM      4  C   UNL     1      -1.090  -5.564   5.524  0.00  0.00    +0.057 A 
ATOM      5  C   UNL     1      -1.665  -6.785   5.143  0.00  0.00    +0.034 A 
ATOM      6  C   UNL     1      -2.928  -7.084   5.511  0.00  0.00    +0.048 A 
ATOM      7  S   UNL     1      -3.417  -5.642   6.442  0.00  0.00    -0.095 S 
ATOM      8  C   UNL     1      -1.910  -4.719   6.287  0.00  0.00    +0.038 A 
ATOM      9  C   UNL     1      -1.221  -3.550   6.589  0.00  0.00    +0.048 A 
ATOM     10  C   UNL     1       0.015  -3.655   6.022  0.00  0.00    +0.106 A 
ATOM     11  C   UNL     1       1.140  -2.712   6.003  0.00  0.00    +0.264 C 
ATOM     12  O   UNL     1       1.150  -1.710   6.694  0.00  0.00    -0.268 OA
ATOM     13  N   UNL     1       2.166  -3.019   5.175  0.00  0.00    -0.276 N 
ATOM     14  C   UNL     1       3.470  -4.481   3.737  0.00  0.00    +0.043 C 
ENDROOT
BRANCH   1  16
ATOM     15  N   UNL     1       1.477  -2.238   2.615  0.00  0.00    -0.310 N 
ATOM     16  C   UNL     1       1.324  -3.528   2.973  0.00  0.00    +0.238 C 
ATOM     17  O   UNL     1       0.593  -4.253   2.332  0.00  0.00    -0.273 OA
ATOM     18  H   UNL     1       2.003  -1.640   3.168  0.00  0.00    +0.149 HD
BRANCH  15  24
ATOM     19  C   UNL     1      -0.256   1.801   0.349  0.00  0.00    +0.008 C 
ATOM     20  C   UNL     1      -0.032   0.292   0.229  0.00  0.00    -0.009 C 
ATOM     21  C   UNL     1       0.880   0.005  -0.965  0.00  0.00    +0.003 C 
ATOM     22  C   UNL     1       1.104  -1.504  -1.085  0.00  0.00    +0.002 C 
ATOM     23  C   UNL     1       1.760  -2.026   0.195  0.00  0.00    +0.022 C 
ATOM     24  C   UNL     1       0.848  -1.739   1.389  0.00  0.00    +0.076 C 
ATOM     25  C   UNL     1       0.625  -0.230   1.509  0.00  0.00    +0.009 C 
ATOM     26  C   UNL     1      -0.287   0.057   2.704  0.00  0.00    +0.009 C 
ENDBRANCH  15  24
ENDBRANCH   1  16
BRANCH  13  27
ATOM     27  C   UNL     1       3.420  -2.271   5.292  0.00  0.00    +0.144 C 
BRANCH  27  28
ATOM     28  C   UNL     1       4.267  -2.878   6.381  0.00  0.00    -0.030 A 
ATOM     29  C   UNL     1       4.046  -2.534   7.701  0.00  0.00    +0.006 A 
ATOM     30  C   UNL     1       4.822  -3.091   8.700  0.00  0.00    +0.020 A 
ATOM     31  C   UNL     1       5.821  -3.992   8.378  0.00  0.00    +0.041 A 
ATOM     32  C   UNL     1       6.042  -4.336   7.056  0.00  0.00    +0.020 A 
ATOM     33  C   UNL     1       5.261  -3.783   6.059  0.00  0.00    +0.006 A 
ATOM     34 CL   UNL     1       6.797  -4.691   9.632  0.00  0.00    -0.084 Cl
ENDBRANCH  27  28
ENDBRANCH  13  27
TORSDOF 4
