REMARK  Name = ZINC20348529
REMARK  10 active torsions:
REMARK  status: ('A' for Active; 'I' for Inactive)
REMARK    1  A    between atoms: C_1  and  C_2
REMARK    2  A    between atoms: C_5  and  C_8
REMARK    3  A    between atoms: C_9  and  C_34
REMARK    4  A    between atoms: C_10  and  N_33
REMARK    5  A    between atoms: C_12  and  S_16
REMARK    6  A    between atoms: C_13  and  C_14
REMARK    7  A    between atoms: S_16  and  C_17
REMARK    8  A    between atoms: C_17  and  C_18
REMARK    9  A    between atoms: N_20  and  C_21
REMARK   10  A    between atoms: N_20  and  C_27
REMARK                            x       y       z     vdW  Elec       q    Type
REMARK                         _______ _______ _______ _____ _____    ______ ____
ROOT
ATOM      1  C   UNL     1      -6.423   1.455  -1.237  0.00  0.00    +0.023 A 
ATOM      2  C   UNL     1      -6.277   2.851  -1.365  0.00  0.00    +0.100 A 
ATOM      3  C   UNL     1      -4.997   3.418  -1.225  0.00  0.00    +0.136 A 
ATOM      4  N   UNL     1      -3.941   2.660  -0.976  0.00  0.00    -0.224 NA
ATOM      5  C   UNL     1      -4.031   1.345  -0.848  0.00  0.00    +0.117 A 
ATOM      6  C   UNL     1      -5.270   0.689  -0.978  0.00  0.00    +0.093 A 
ENDROOT
BRANCH   1  11
ATOM      7  C   UNL     1     -11.579  -1.045  -1.781  0.00  0.00    +0.044 C 
ATOM      8  C   UNL     1     -10.229  -0.390  -1.639  0.00  0.00    -0.050 A 
ATOM      9  C   UNL     1      -9.655   0.247  -2.724  0.00  0.00    +0.004 A 
ATOM     10  C   UNL     1      -8.419   0.848  -2.601  0.00  0.00    +0.009 A 
ATOM     11  C   UNL     1      -7.748   0.813  -1.377  0.00  0.00    -0.015 A 
ATOM     12  C   UNL     1      -8.331   0.164  -0.288  0.00  0.00    +0.009 A 
ATOM     13  C   UNL     1      -9.569  -0.429  -0.423  0.00  0.00    +0.004 A 
ENDBRANCH   1  11
BRANCH   3  14
ATOM     14  N   UNL     1      -4.840   4.784  -1.348  0.00  0.00    -0.342 N 
ATOM     15  H   UNL     1      -3.843   5.236  -1.239  0.00  0.00    +0.144 HD
ATOM     16  H   UNL     1      -5.713   5.421  -1.555  0.00  0.00    +0.144 HD
ENDBRANCH   3  14
BRANCH   6  17
ATOM     17  C   UNL     1      -5.357  -0.734  -0.844  0.00  0.00    +0.102 C 
ATOM     18  N   UNL     1      -5.426  -1.863  -0.737  0.00  0.00    -0.191 NA
ENDBRANCH   6  17
BRANCH   2  19
ATOM     19  C   UNL     1      -7.414   3.679  -1.634  0.00  0.00    +0.103 C 
ATOM     20  N   UNL     1      -8.315   4.337  -1.848  0.00  0.00    -0.191 NA
ENDBRANCH   2  19
BRANCH   5  21
ATOM     21  S   UNL     1      -2.579   0.403  -0.518  0.00  0.00    -0.095 S 
BRANCH  21  22
ATOM     22  C   UNL     1      -1.348   1.729  -0.468  0.00  0.00    +0.172 C 
BRANCH  22  23
ATOM     23  C   UNL     1       0.012   1.141  -0.190  0.00  0.00    +0.234 C 
ATOM     24  O   UNL     1       0.141  -0.059  -0.071  0.00  0.00    -0.274 OA
ATOM     25  N   UNL     1       1.085   1.949  -0.081  0.00  0.00    -0.240 N 
BRANCH  25  26
ATOM     26  C   UNL     1       2.329   1.416   0.279  0.00  0.00    +0.041 A 
ATOM     27  C   UNL     1       2.898   1.741   1.503  0.00  0.00    +0.024 A 
ATOM     28  C   UNL     1       4.122   1.209   1.857  0.00  0.00    +0.002 A 
ATOM     29  C   UNL     1       4.786   0.362   0.989  0.00  0.00    +0.000 A 
ATOM     30  C   UNL     1       4.225   0.041  -0.233  0.00  0.00    +0.002 A 
ATOM     31  C   UNL     1       2.998   0.565  -0.590  0.00  0.00    +0.024 A 
ENDBRANCH  25  26
BRANCH  25  32
ATOM     32  C   UNL     1       0.956   3.322  -0.326  0.00  0.00    +0.041 A 
ATOM     33  C   UNL     1       1.574   3.892  -1.431  0.00  0.00    +0.024 A 
ATOM     34  C   UNL     1       1.440   5.245  -1.674  0.00  0.00    +0.002 A 
ATOM     35  C   UNL     1       0.701   6.034  -0.811  0.00  0.00    +0.000 A 
ATOM     36  C   UNL     1       0.090   5.470   0.294  0.00  0.00    +0.002 A 
ATOM     37  C   UNL     1       0.215   4.117   0.539  0.00  0.00    +0.024 A 
ENDBRANCH  25  32
ENDBRANCH  22  23
ENDBRANCH  21  22
ENDBRANCH   5  21
TORSDOF 9
