REMARK  Name = ZINC09209749
REMARK  8 active torsions:
REMARK  status: ('A' for Active; 'I' for Inactive)
REMARK    1  A    between atoms: C_1  and  C_2
REMARK    2  A    between atoms: C_2  and  C_3
REMARK    3  A    between atoms: C_6  and  N_9
REMARK    4  A    between atoms: C_10  and  C_34
REMARK    5  A    between atoms: C_12  and  C_15
REMARK    6  A    between atoms: C_13  and  C_14
REMARK    7  A    between atoms: C_25  and  C_27
REMARK    8  A    between atoms: C_31  and  C_33
REMARK                            x       y       z     vdW  Elec       q    Type
REMARK                         _______ _______ _______ _____ _____    ______ ____
ROOT
ATOM      1  C   UNL     1       4.033  -1.559   7.998  0.00  0.00    +0.026 C 
ATOM      2  C   UNL     1       5.120  -2.196   8.561  0.00  0.00    +0.081 C 
ATOM      3  C   UNL     1       5.986  -3.115   7.773  0.00  0.00    +0.153 C 
ATOM      4  N   UNL     1       6.234  -2.951   6.499  0.00  0.00    -0.283 NA
ATOM      5  N   UNL     1       6.514  -4.179   8.535  0.00  0.00    -0.152 N 
ATOM      6  C   UNL     1       6.610  -3.999   9.899  0.00  0.00    +0.181 C 
ATOM      7  N   UNL     1       6.177  -2.982  10.601  0.00  0.00    -0.152 NA
ATOM      8  C   UNL     1       5.490  -1.997   9.983  0.00  0.00    +0.273 C 
ATOM      9  O   UNL     1       5.180  -0.976  10.576  0.00  0.00    -0.268 OA
ATOM     10  S   UNL     1       7.431  -5.483  10.416  0.00  0.00    -0.033 S 
ATOM     11  C   UNL     1       7.502  -6.283   8.819  0.00  0.00    +0.130 C 
ATOM     12  N   UNL     1       6.956  -5.385   8.035  0.00  0.00    -0.164 NA
ATOM     13  H   UNL     1       6.780  -3.597   6.025  0.00  0.00    +0.188 HD
ENDROOT
BRANCH   1  17
ATOM     14  N   UNL     1       2.577  -1.920   4.736  0.00  0.00    -0.317 N 
ATOM     15  C   UNL     1       3.241  -3.113   4.815  0.00  0.00    +0.022 A 
ATOM     16  C   UNL     1       3.876  -3.188   5.996  0.00  0.00    +0.031 A 
ATOM     17  C   UNL     1       3.580  -1.936   6.708  0.00  0.00    -0.003 A 
ATOM     18  C   UNL     1       2.772  -1.199   5.858  0.00  0.00    +0.028 A 
ATOM     19  C   UNL     1       2.207   0.170   6.139  0.00  0.00    +0.064 C 
ATOM     20  C   UNL     1       3.258  -4.175   3.746  0.00  0.00    +0.064 C 
BRANCH  14  24
ATOM     21  C   UNL     1       0.289  -0.683   1.479  0.00  0.00    -0.047 A 
ATOM     22  C   UNL     1       1.652  -0.868   1.334  0.00  0.00    +0.005 A 
ATOM     23  C   UNL     1       2.413  -1.277   2.412  0.00  0.00    +0.026 A 
ATOM     24  C   UNL     1       1.808  -1.504   3.641  0.00  0.00    +0.047 A 
ATOM     25  C   UNL     1       0.439  -1.318   3.783  0.00  0.00    +0.026 A 
ATOM     26  C   UNL     1      -0.315  -0.903   2.703  0.00  0.00    +0.005 A 
BRANCH  21  28
ATOM     27  C   UNL     1      -0.588   1.292   0.264  0.00  0.00    +0.009 C 
ATOM     28  C   UNL     1      -0.538  -0.236   0.301  0.00  0.00    +0.032 C 
ENDBRANCH  21  28
ENDBRANCH  14  24
ENDBRANCH   1  17
BRANCH  11  29
ATOM     29  C   UNL     1       8.040  -7.617   8.472  0.00  0.00    +0.009 A 
ATOM     30  C   UNL     1       8.008  -8.062   7.150  0.00  0.00    +0.010 A 
ATOM     31  C   UNL     1       8.512  -9.306   6.832  0.00  0.00    +0.001 A 
ATOM     32  C   UNL     1       9.047 -10.112   7.821  0.00  0.00    +0.003 A 
ATOM     33  C   UNL     1       9.081  -9.677   9.133  0.00  0.00    -0.050 A 
ATOM     34  C   UNL     1       8.586  -8.431   9.463  0.00  0.00    +0.014 A 
ATOM     35  C   UNL     1       9.666 -10.561  10.204  0.00  0.00    +0.044 C 
ENDBRANCH  11  29
TORSDOF 4
