REMARK  Name = ZINC04738416
REMARK  4 active torsions:
REMARK  status: ('A' for Active; 'I' for Inactive)
REMARK    1  A    between atoms: C_1  and  C_2
REMARK    2  A    between atoms: N_14  and  N_15
REMARK    3  A    between atoms: C_16  and  C_17
REMARK    4  A    between atoms: C_22  and  O_23
REMARK                            x       y       z     vdW  Elec       q    Type
REMARK                         _______ _______ _______ _____ _____    ______ ____
ROOT
ATOM      1  C   UNL     1      -0.018   1.503   0.010  0.00  0.00    +0.088 C 
ATOM      2  C   UNL     1       0.002  -0.004   0.002  0.00  0.00    +0.129 A 
ATOM      3  N   UNL     1       0.005  -0.643  -1.154  0.00  0.00    -0.216 NA
ATOM      4  C   UNL     1       0.022  -1.965  -1.229  0.00  0.00    +0.150 A 
ATOM      5  C   UNL     1       0.038  -2.723  -0.025  0.00  0.00    +0.052 A 
ATOM      6  C   UNL     1       0.058  -4.186   0.135  0.00  0.00    -0.025 A 
ATOM      7  C   UNL     1       0.070  -4.659   1.391  0.00  0.00    -0.004 A 
ATOM      8  S   UNL     1       0.059  -3.215   2.430  0.00  0.00    -0.073 S 
ATOM      9  C   UNL     1       0.035  -1.974   1.165  0.00  0.00    +0.114 A 
ATOM     10  N   UNL     1       0.022  -0.654   1.150  0.00  0.00    -0.225 NA
ATOM     11  C   UNL     1       0.084  -6.163   1.432  0.00  0.00    +0.043 C 
ATOM     12  C   UNL     1      -0.356  -6.594   0.016  0.00  0.00    +0.010 C 
ATOM     13  C   UNL     1       0.071  -5.377  -0.828  0.00  0.00    +0.037 C 
ATOM     14  N   UNL     1       0.024  -2.599  -2.458  0.00  0.00    -0.220 N 
ATOM     15  H   UNL     1       0.037  -3.567  -2.504  0.00  0.00    +0.176 HD
ENDROOT
BRANCH  14  16
ATOM     16  N   UNL     1       0.008  -1.841  -3.636  0.00  0.00    -0.189 NA
ATOM     17  C   UNL     1       0.010  -2.437  -4.790  0.00  0.00    +0.141 C 
BRANCH  17  18
ATOM     18  C   UNL     1      -0.007  -1.640  -6.030  0.00  0.00    +0.036 A 
ATOM     19  C   UNL     1      -0.011  -2.276  -7.274  0.00  0.00    +0.013 A 
ATOM     20  C   UNL     1      -0.027  -1.525  -8.430  0.00  0.00    +0.001 A 
ATOM     21  C   UNL     1      -0.039  -0.142  -8.364  0.00  0.00    +0.004 A 
ATOM     22  C   UNL     1      -0.035   0.499  -7.140  0.00  0.00    +0.046 A 
ATOM     23  C   UNL     1      -0.025  -0.240  -5.968  0.00  0.00    +0.125 A 
BRANCH  23  24
ATOM     24  O   UNL     1      -0.026   0.389  -4.765  0.00  0.00    -0.506 OA
ATOM     25  H   UNL     1       0.856   0.583  -4.421  0.00  0.00    +0.292 HD
ENDBRANCH  23  24
ENDBRANCH  17  18
ENDBRANCH  14  16
TORSDOF 3
