REMARK  Name = ZINC09087609
REMARK  8 active torsions:
REMARK  status: ('A' for Active; 'I' for Inactive)
REMARK    1  A    between atoms: C_6  and  C_7
REMARK    2  A    between atoms: C_11  and  C_12
REMARK    3  A    between atoms: N_13  and  C_14
REMARK    4  A    between atoms: C_14  and  C_15
REMARK    5  A    between atoms: C_15  and  N_63
REMARK    6  A    between atoms: N_18  and  C_21
REMARK    7  A    between atoms: C_21  and  N_23
REMARK    8  A    between atoms: N_23  and  C_24
REMARK                            x       y       z     vdW  Elec       q    Type
REMARK                         _______ _______ _______ _____ _____    ______ ____
ROOT
ATOM      1  C   UNL     1      -3.349  -6.073  -2.571  0.00  0.00    -0.055 C 
ENDROOT
BRANCH   1   7
ATOM      2  C   UNL     1      -3.375  -8.435  -2.037  0.00  0.00    -0.059 C 
ATOM      3  C   UNL     1      -4.291  -9.657  -1.906  0.00  0.00    +0.088 C 
ATOM      4  N   UNL     1      -4.917  -9.913  -3.212  0.00  0.00    -0.316 N 
ATOM      5  C   UNL     1      -5.588  -8.795  -3.893  0.00  0.00    +0.088 C 
ATOM      6  C   UNL     1      -4.621  -7.607  -3.946  0.00  0.00    -0.059 C 
ATOM      7  N   UNL     1      -4.166  -7.305  -2.571  0.00  0.00    +0.383 N 
ATOM      8  H   UNL     1      -4.987  -7.160  -1.973  0.00  0.00    -0.082 HD
BRANCH   4   9
ATOM      9  C   UNL     1      -4.879 -11.140  -3.769  0.00  0.00    +0.137 C 
ATOM     10  S   UNL     1      -5.723 -11.445  -5.226  0.00  0.00    -0.018 S 
BRANCH   9  11
ATOM     11  N   UNL     1      -4.175 -12.126  -3.178  0.00  0.00    -0.297 N 
ATOM     12  H   UNL     1      -3.296 -12.362  -3.513  0.00  0.00    +0.154 HD
BRANCH  11  13
ATOM     13  C   UNL     1      -4.713 -12.810  -2.082  0.00  0.00    +0.033 A 
ATOM     14  C   UNL     1      -6.010 -12.542  -1.663  0.00  0.00    +0.026 A 
ATOM     15  C   UNL     1      -6.541 -13.222  -0.584  0.00  0.00    +0.040 A 
ATOM     16  C   UNL     1      -5.777 -14.162   0.087  0.00  0.00    +0.124 A 
ATOM     17  C   UNL     1      -4.481 -14.427  -0.325  0.00  0.00    +0.040 A 
ATOM     18  C   UNL     1      -3.949 -13.753  -1.407  0.00  0.00    +0.026 A 
ATOM     19  F   UNL     1      -6.296 -14.822   1.145  0.00  0.00    -0.205 F 
ENDBRANCH  11  13
ENDBRANCH   9  11
ENDBRANCH   4   9
ENDBRANCH   1   7
BRANCH   1  20
ATOM     20  C   UNL     1      -3.079  -5.662  -1.122  0.00  0.00    +0.122 C 
BRANCH  20  22
ATOM     21  C   UNL     1      -1.930  -3.878   0.070  0.00  0.00    +0.096 C 
ATOM     22  N   UNL     1      -2.289  -4.429  -1.103  0.00  0.00    -0.297 NA
BRANCH  21  27
ATOM     23  C   UNL     1      -0.089  -0.006   0.126  0.00  0.00    +0.033 C 
ATOM     24  C   UNL     1      -0.791  -0.511  -1.137  0.00  0.00    +0.084 C 
ATOM     25  C   UNL     1      -0.748  -2.026  -1.149  0.00  0.00    +0.149 C 
ATOM     26  O   UNL     1      -0.377  -2.647  -2.124  0.00  0.00    -0.296 OA
ATOM     27  C   UNL     1      -1.181  -2.709   0.088  0.00  0.00    +0.162 C 
ATOM     28  C   UNL     1      -0.758  -2.058   1.345  0.00  0.00    +0.149 C 
ATOM     29  O   UNL     1      -0.395  -2.703   2.307  0.00  0.00    -0.296 OA
ATOM     30  C   UNL     1      -0.801  -0.543   1.371  0.00  0.00    +0.084 C 
BRANCH  23  36
ATOM     31  C   UNL     1      -1.328   2.169   0.149  0.00  0.00    +0.007 A 
ATOM     32  C   UNL     1      -1.355   3.550   0.171  0.00  0.00    +0.038 A 
ATOM     33  C   UNL     1      -0.170   4.265   0.179  0.00  0.00    +0.123 A 
ATOM     34  C   UNL     1       1.042   3.595   0.170  0.00  0.00    +0.038 A 
ATOM     35  C   UNL     1       1.067   2.214   0.153  0.00  0.00    +0.007 A 
ATOM     36  C   UNL     1      -0.118   1.501   0.145  0.00  0.00    -0.043 A 
ATOM     37  F   UNL     1      -0.195   5.616   0.197  0.00  0.00    -0.205 F 
ENDBRANCH  23  36
ENDBRANCH  21  27
ENDBRANCH  20  22
ENDBRANCH   1  20
TORSDOF 8
