REMARK  Name = ZINC09463912
REMARK  10 active torsions:
REMARK  status: ('A' for Active; 'I' for Inactive)
REMARK    1  A    between atoms: C_1  and  C_2
REMARK    2  A    between atoms: C_2  and  O_3
REMARK    3  A    between atoms: O_3  and  C_4
REMARK    4  A    between atoms: C_7  and  C_10
REMARK    5  A    between atoms: N_11  and  N_12
REMARK    6  A    between atoms: C_13  and  N_36
REMARK    7  A    between atoms: C_14  and  C_25
REMARK    8  A    between atoms: N_27  and  C_28
REMARK    9  A    between atoms: C_28  and  C_29
REMARK   10  A    between atoms: C_29  and  C_30
REMARK                            x       y       z     vdW  Elec       q    Type
REMARK                         _______ _______ _______ _____ _____    ______ ____
ROOT
ATOM      1  N   UNL     1      -4.837   0.931   0.031  0.00  0.00    -0.198 N 
ATOM      2  C   UNL     1      -5.512   0.547  -1.089  0.00  0.00    +0.134 A 
ATOM      3  C   UNL     1      -6.668  -0.146  -0.745  0.00  0.00    +0.105 A 
ATOM      4  C   UNL     1      -6.711  -0.184   0.726  0.00  0.00    +0.124 A 
ATOM      5  C   UNL     1      -5.507   0.525   1.169  0.00  0.00    +0.183 A 
ATOM      6  N   UNL     1      -5.270   0.655   2.457  0.00  0.00    -0.224 NA
ATOM      7  C   UNL     1      -6.127   0.141   3.348  0.00  0.00    +0.092 A 
ATOM      8  C   UNL     1      -5.881   0.276   4.727  0.00  0.00    +0.030 A 
ATOM      9  C   UNL     1      -6.756  -0.250   5.626  0.00  0.00    +0.002 A 
ATOM     10  C   UNL     1      -7.901  -0.924   5.202  0.00  0.00    +0.002 A 
ATOM     11  C   UNL     1      -8.172  -1.074   3.878  0.00  0.00    +0.030 A 
ATOM     12  C   UNL     1      -7.290  -0.544   2.918  0.00  0.00    +0.090 A 
ATOM     13  N   UNL     1      -7.548  -0.686   1.612  0.00  0.00    -0.241 NA
ENDROOT
BRANCH   3  14
ATOM     14  C   UNL     1      -7.620  -0.703  -1.637  0.00  0.00    +0.250 C 
ATOM     15  O   UNL     1      -8.567  -0.034  -2.012  0.00  0.00    -0.270 OA
ATOM     16  N   UNL     1      -7.479  -1.972  -2.068  0.00  0.00    -0.311 N 
ATOM     17  H   UNL     1      -6.725  -2.504  -1.770  0.00  0.00    +0.149 HD
BRANCH  16  18
ATOM     18  C   UNL     1      -8.462  -2.546  -2.989  0.00  0.00    +0.109 C 
BRANCH  18  19
ATOM     19  C   UNL     1      -8.070  -3.988  -3.320  0.00  0.00    +0.049 C 
BRANCH  19  20
ATOM     20  C   UNL     1      -9.082  -4.579  -4.267  0.00  0.00    -0.072 C 
ATOM     21  C   UNL     1      -8.826  -4.533  -5.535  0.00  0.00    -0.028 C 
ATOM     22  C   UNL     1      -9.740  -5.070  -6.598  0.00  0.00    +0.027 C 
ATOM     23  C   UNL     1     -10.762  -6.027  -5.979  0.00  0.00    +0.004 C 
ATOM     24  C   UNL     1     -11.395  -5.340  -4.763  0.00  0.00    +0.005 C 
ATOM     25  C   UNL     1     -10.321  -5.191  -3.681  0.00  0.00    +0.030 C 
ENDBRANCH  19  20
ENDBRANCH  18  19
ENDBRANCH  16  18
ENDBRANCH   3  14
BRANCH   2  26
ATOM     26  N   UNL     1      -5.107   0.804  -2.374  0.00  0.00    -0.342 N 
ATOM     27  H   UNL     1      -4.284   1.293  -2.534  0.00  0.00    +0.144 HD
ATOM     28  H   UNL     1      -5.643   0.498  -3.122  0.00  0.00    +0.144 HD
ENDBRANCH   2  26
BRANCH   1  30
ATOM     29  C   UNL     1      -2.500   1.008   0.020  0.00  0.00    +0.141 C 
ATOM     30  N   UNL     1      -3.631   1.645   0.029  0.00  0.00    -0.171 NA
BRANCH  29  34
ATOM     31  C   UNL     1       1.153   3.171   0.008  0.00  0.00    +0.121 A 
ATOM     32  C   UNL     1       1.171   1.782   0.001  0.00  0.00    +0.046 A 
ATOM     33  C   UNL     1      -0.013   1.076   0.008  0.00  0.00    +0.013 A 
ATOM     34  C   UNL     1      -1.232   1.759   0.017  0.00  0.00    -0.005 A 
ATOM     35  C   UNL     1      -1.244   3.156   0.030  0.00  0.00    +0.013 A 
ATOM     36  C   UNL     1      -0.056   3.854   0.022  0.00  0.00    +0.046 A 
BRANCH  31  37
ATOM     37  O   UNL     1       2.322   3.863  -0.000  0.00  0.00    -0.492 OA
BRANCH  37  39
ATOM     38  C   UNL     1       3.639   5.889  -0.003  0.00  0.00    +0.048 C 
ATOM     39  C   UNL     1       2.231   5.289   0.008  0.00  0.00    +0.225 C 
ENDBRANCH  37  39
ENDBRANCH  31  37
ENDBRANCH  29  34
ENDBRANCH   1  30
TORSDOF 9
