REMARK  Name = ZINC17185802
REMARK  7 active torsions:
REMARK  status: ('A' for Active; 'I' for Inactive)
REMARK    1  A    between atoms: C_12  and  C_14
REMARK    2  A    between atoms: C_14  and  S_15
REMARK    3  A    between atoms: S_15  and  C_16
REMARK    4  A    between atoms: C_16  and  C_17
REMARK    5  A    between atoms: N_19  and  N_20
REMARK    6  A    between atoms: C_21  and  C_23
REMARK    7  A    between atoms: C_23  and  C_24
REMARK                            x       y       z     vdW  Elec       q    Type
REMARK                         _______ _______ _______ _____ _____    ______ ____
ROOT
ATOM      1  C   UNL     1      -2.605   3.984  -9.867  0.00  0.00    +0.239 C 
ATOM      2  O   UNL     1      -3.594   4.215  -9.204  0.00  0.00    -0.273 OA
ATOM      3  N   UNL     1      -2.605   4.245 -11.189  0.00  0.00    -0.234 N 
ATOM      4  H   UNL     1      -1.814   4.060 -11.720  0.00  0.00    +0.173 HD
ENDROOT
BRANCH   3   5
ATOM      5  N   UNL     1      -3.747   4.781 -11.798  0.00  0.00    -0.234 N 
ATOM      6  C   UNL     1      -3.747   5.042 -13.120  0.00  0.00    +0.230 C 
ATOM      7  O   UNL     1      -2.758   4.811 -13.783  0.00  0.00    -0.274 OA
ATOM      8  H   UNL     1      -4.538   4.966 -11.267  0.00  0.00    +0.173 HD
BRANCH   6   9
ATOM      9  C   UNL     1      -4.975   5.619 -13.774  0.00  0.00    +0.104 C 
BRANCH   9  10
ATOM     10  C   UNL     1      -4.712   5.817 -15.269  0.00  0.00    -0.020 C 
ATOM     11  C   UNL     1      -3.535   6.777 -15.456  0.00  0.00    +0.011 C 
ATOM     12  C   UNL     1      -3.272   6.975 -16.950  0.00  0.00    -0.010 C 
ATOM     13  C   UNL     1      -4.519   7.561 -17.615  0.00  0.00    +0.007 C 
ATOM     14  C   UNL     1      -5.696   6.602 -17.427  0.00  0.00    -0.010 C 
ATOM     15  C   UNL     1      -5.959   6.404 -15.933  0.00  0.00    +0.011 C 
ATOM     16  C   UNL     1      -5.362   5.254 -18.069  0.00  0.00    +0.007 C 
ATOM     17  C   UNL     1      -4.114   4.667 -17.405  0.00  0.00    -0.010 C 
ATOM     18  C   UNL     1      -2.938   5.627 -17.592  0.00  0.00    +0.007 C 
ATOM     19  C   UNL     1      -4.378   4.469 -15.911  0.00  0.00    +0.011 C 
ENDBRANCH   9  10
ENDBRANCH   6   9
ENDBRANCH   3   5
BRANCH   1  20
ATOM     20  C   UNL     1      -1.377   3.407  -9.213  0.00  0.00    +0.166 C 
BRANCH  20  21
ATOM     21  S   UNL     1      -1.689   3.172  -7.441  0.00  0.00    -0.144 S 
BRANCH  21  22
ATOM     22  C   UNL     1      -0.135   2.480  -6.809  0.00  0.00    +0.143 C 
BRANCH  22  34
ATOM     23  C   UNL     1      -0.772   1.602   1.246  0.00  0.00    +0.010 C 
ATOM     24  C   UNL     1      -0.013   1.086   0.008  0.00  0.00    +0.037 C 
ATOM     25  C   UNL     1      -0.791   1.612  -1.202  0.00  0.00    -0.023 A 
ATOM     26  C   UNL     1      -2.016   1.978  -0.788  0.00  0.00    -0.004 A 
ATOM     27  S   UNL     1      -2.837   2.567  -2.251  0.00  0.00    -0.073 S 
ATOM     28  C   UNL     1      -1.523   2.318  -3.416  0.00  0.00    +0.116 A 
ATOM     29  C   UNL     1      -0.492   1.786  -2.631  0.00  0.00    +0.075 A 
ATOM     30  C   UNL     1       0.724   1.479  -3.323  0.00  0.00    +0.260 A 
ATOM     31  O   UNL     1       1.678   1.012  -2.725  0.00  0.00    -0.267 OA
ATOM     32  N   UNL     1       0.793   1.715  -4.647  0.00  0.00    -0.310 N 
ATOM     33  H   UNL     1       1.613   1.509  -5.125  0.00  0.00    +0.170 HD
ATOM     34  C   UNL     1      -0.261   2.234  -5.328  0.00  0.00    +0.121 A 
ATOM     35  N   UNL     1      -1.381   2.524  -4.723  0.00  0.00    -0.226 NA
ATOM     36  C   UNL     1      -2.207   1.760   0.689  0.00  0.00    +0.043 C 
ENDBRANCH  22  34
ENDBRANCH  21  22
ENDBRANCH  20  21
ENDBRANCH   1  20
TORSDOF 7
