REMARK  Name = ZINC20057696
REMARK  6 active torsions:
REMARK  status: ('A' for Active; 'I' for Inactive)
REMARK    1  A    between atoms: C_1  and  C_2
REMARK    2  A    between atoms: C_2  and  C_17
REMARK    3  A    between atoms: N_3  and  N_4
REMARK    4  A    between atoms: N_4  and  C_5
REMARK    5  A    between atoms: C_10  and  C_13
REMARK    6  A    between atoms: N_15  and  C_16
REMARK                            x       y       z     vdW  Elec       q    Type
REMARK                         _______ _______ _______ _____ _____    ______ ____
ROOT
ATOM      1  C   UNL     1       0.044  -0.655   3.519  0.00  0.00    +0.191 C 
ATOM      2  N   UNL     1       0.068  -1.976   3.516  0.00  0.00    -0.156 NA
ATOM      3  C   UNL     1       0.091  -2.756   4.565  0.00  0.00    +0.240 C 
ATOM      4  O   UNL     1       0.078  -3.954   4.355  0.00  0.00    -0.274 OA
ATOM      5  C   UNL     1       0.133  -2.327   5.998  0.00  0.00    +0.122 C 
ATOM      6  C   UNL     1      -0.654  -1.025   6.196  0.00  0.00    +0.148 C 
ATOM      7  S   UNL     1       0.047   0.215   5.057  0.00  0.00    -0.076 S 
ENDROOT
BRANCH   6   8
ATOM      8  C   UNL     1      -0.509  -0.552   7.620  0.00  0.00    +0.227 C 
ATOM      9  O   UNL     1       0.535  -0.723   8.212  0.00  0.00    -0.275 OA
ATOM     10  N   UNL     1      -1.540   0.060   8.235  0.00  0.00    -0.317 N 
ATOM     11  C   UNL     1      -1.400   0.520   9.618  0.00  0.00    +0.128 C 
ATOM     12  H   UNL     1      -2.376   0.197   7.761  0.00  0.00    +0.148 HD
ENDBRANCH   6   8
BRANCH   1  13
ATOM     13  N   UNL     1       0.024   0.034   2.342  0.00  0.00    -0.094 NA
BRANCH  13  16
ATOM     14  C   UNL     1      -0.018   1.503   0.010  0.00  0.00    +0.068 C 
ATOM     15  C   UNL     1       0.002  -0.004   0.002  0.00  0.00    +0.072 C 
ATOM     16  N   UNL     1       0.022  -0.660   1.125  0.00  0.00    -0.162 NA
BRANCH  15  17
ATOM     17  C   UNL     1      -0.000  -0.730  -1.272  0.00  0.00    +0.035 A 
ATOM     18  C   UNL     1       0.011  -2.096  -1.498  0.00  0.00    +0.017 A 
ATOM     19  C   UNL     1       0.005  -2.543  -2.799  0.00  0.00    +0.008 A 
ATOM     20  C   UNL     1      -0.011  -1.639  -3.813  0.00  0.00    +0.046 A 
ATOM     21  S   UNL     1      -0.025  -0.084  -2.936  0.00  0.00    -0.095 S 
ENDBRANCH  15  17
ENDBRANCH  13  16
ENDBRANCH   1  13
TORSDOF 4
