REMARK  Name = ZINC39544281
REMARK  6 active torsions:
REMARK  status: ('A' for Active; 'I' for Inactive)
REMARK    1  A    between atoms: C_1  and  C_2
REMARK    2  A    between atoms: C_2  and  C_3
REMARK    3  A    between atoms: C_3  and  N_4
REMARK    4  A    between atoms: N_4  and  C_5
REMARK    5  A    between atoms: C_10  and  O_11
REMARK    6  A    between atoms: C_12  and  C_14
REMARK                            x       y       z     vdW  Elec       q    Type
REMARK                         _______ _______ _______ _____ _____    ______ ____
ROOT
ATOM      1  C   UNL     1      -1.489  -1.831  -2.418  0.00  0.00    +0.030 C 
ATOM      2  C   UNL     1      -2.669  -0.833  -2.442  0.00  0.00    +0.068 C 
ATOM      3  C   UNL     1      -3.174  -0.849  -3.878  0.00  0.00    +0.136 C 
ATOM      4  C   UNL     1      -2.256  -1.808  -4.598  0.00  0.00    +0.085 C 
ATOM      5  N   UNL     1      -2.892  -2.486  -5.709  0.00  0.00    -0.350 N 
ATOM      6  C   UNL     1      -3.660  -3.634  -5.494  0.00  0.00    +0.027 A 
ATOM      7  C   UNL     1      -4.409  -4.181  -6.525  0.00  0.00    +0.023 A 
ATOM      8  C   UNL     1      -5.152  -5.325  -6.301  0.00  0.00    +0.002 A 
ATOM      9  C   UNL     1      -5.142  -5.919  -5.053  0.00  0.00    +0.000 A 
ATOM     10  C   UNL     1      -4.401  -5.370  -4.024  0.00  0.00    +0.003 A 
ATOM     11  C   UNL     1      -3.660  -4.220  -4.237  0.00  0.00    -0.043 A 
ATOM     12  C   UNL     1      -2.889  -3.611  -3.104  0.00  0.00    -0.037 C 
ATOM     13  N   UNL     1      -1.784  -2.755  -3.561  0.00  0.00    +0.407 N 
ATOM     14  O   UNL     1      -4.104  -0.232  -4.340  0.00  0.00    -0.298 OA
ATOM     15  H   UNL     1      -2.785  -2.141  -6.609  0.00  0.00    +0.145 HD
ATOM     16  H   UNL     1      -0.974  -3.278  -3.856  0.00  0.00    -0.077 HD
ENDROOT
BRANCH   1  18
ATOM     17  N   UNL     1      -0.438  -2.417  -0.257  0.00  0.00    -0.270 N 
ATOM     18  C   UNL     1      -1.462  -2.590  -1.116  0.00  0.00    +0.207 C 
ATOM     19  O   UNL     1      -2.361  -3.356  -0.842  0.00  0.00    -0.277 OA
BRANCH  17  20
ATOM     20  C   UNL     1      -0.358  -3.199   0.903  0.00  0.00    +0.078 A 
ATOM     21  C   UNL     1      -0.963  -2.768   2.075  0.00  0.00    +0.027 A 
ATOM     22  C   UNL     1      -0.882  -3.540   3.218  0.00  0.00    +0.002 A 
ATOM     23  C   UNL     1      -0.199  -4.743   3.198  0.00  0.00    +0.004 A 
ATOM     24  C   UNL     1       0.406  -5.178   2.034  0.00  0.00    +0.047 A 
ATOM     25  C   UNL     1       0.325  -4.412   0.882  0.00  0.00    +0.138 A 
BRANCH  25  26
ATOM     26  O   UNL     1       0.915  -4.842  -0.265  0.00  0.00    -0.505 OA
ATOM     27  H   UNL     1       1.831  -4.551  -0.369  0.00  0.00    +0.292 HD
ENDBRANCH  25  26
ENDBRANCH  17  20
BRANCH  17  28
ATOM     28  C   UNL     1       0.591  -1.412  -0.536  0.00  0.00    +0.113 C 
BRANCH  28  30
ATOM     29  C   UNL     1       2.727  -0.963  -1.751  0.00  0.00    +0.005 C 
ATOM     30  C   UNL     1       1.653  -2.012  -1.459  0.00  0.00    +0.016 C 
ENDBRANCH  28  30
ENDBRANCH  17  28
ENDBRANCH   1  18
TORSDOF 5
