REMARK  Name = ZINC43087381
REMARK  8 active torsions:
REMARK  status: ('A' for Active; 'I' for Inactive)
REMARK    1  A    between atoms: C_1  and  C_2
REMARK    2  A    between atoms: C_2  and  C_3
REMARK    3  A    between atoms: C_3  and  C_5
REMARK    4  A    between atoms: C_3  and  N_23
REMARK    5  A    between atoms: C_5  and  C_7
REMARK    6  A    between atoms: C_5  and  O_14
REMARK    7  A    between atoms: O_14  and  C_15
REMARK    8  A    between atoms: C_20  and  C_21
REMARK                            x       y       z     vdW  Elec       q    Type
REMARK                         _______ _______ _______ _____ _____    ______ ____
ROOT
ATOM      1  C   UNL     1       0.541  -2.014   1.355  0.00  0.00    +0.191 C 
ENDROOT
BRANCH   1   2
ATOM      2  C   UNL     1       0.997  -2.635   2.651  0.00  0.00    +0.009 A 
ATOM      3  C   UNL     1       2.220  -3.277   2.717  0.00  0.00    +0.008 A 
ATOM      4  C   UNL     1       2.638  -3.846   3.904  0.00  0.00    +0.000 A 
ATOM      5  C   UNL     1       1.835  -3.774   5.027  0.00  0.00    +0.001 A 
ATOM      6  C   UNL     1       0.613  -3.133   4.963  0.00  0.00    +0.020 A 
ATOM      7  C   UNL     1       0.196  -2.557   3.775  0.00  0.00    +0.048 A 
ATOM      8 CL   UNL     1      -1.337  -1.745   3.695  0.00  0.00    -0.083 Cl
ENDBRANCH   1   2
BRANCH   1   9
ATOM      9  C   UNL     1       0.916  -0.530   1.341  0.00  0.00    -0.029 C 
BRANCH   9  10
ATOM     10  N   UNL     1       2.364  -0.390   1.547  0.00  0.00    +0.383 N 
ATOM     11  H   UNL     1       2.857  -0.868   0.808  0.00  0.00    -0.089 HD
ATOM     12  H   UNL     1       2.611   0.589   1.537  0.00  0.00    -0.089 HD
ATOM     13  H   UNL     1       2.618  -0.792   2.436  0.00  0.00    -0.089 HD
ENDBRANCH   9  10
BRANCH   9  15
ATOM     14  C   UNL     1       0.784   1.589   0.024  0.00  0.00    +0.002 C 
ATOM     15  C   UNL     1       0.531   0.080  -0.008  0.00  0.00    -0.016 C 
ENDBRANCH   9  15
ENDBRANCH   1   9
BRANCH   1  16
ATOM     16  O   UNL     1       1.176  -2.676   0.260  0.00  0.00    -0.485 OA
BRANCH  16  17
ATOM     17  C   UNL     1       0.570  -3.792  -0.220  0.00  0.00    +0.139 A 
ATOM     18  C   UNL     1      -0.547  -4.307   0.419  0.00  0.00    +0.047 A 
ATOM     19  C   UNL     1      -1.163  -5.442  -0.071  0.00  0.00    +0.004 A 
ATOM     20  C   UNL     1      -0.671  -6.074  -1.202  0.00  0.00    +0.001 A 
ATOM     21  C   UNL     1       0.438  -5.574  -1.850  0.00  0.00    +0.022 A 
ATOM     22  C   UNL     1       1.067  -4.424  -1.368  0.00  0.00    +0.093 A 
BRANCH  22  23
ATOM     23  C   UNL     1       2.217  -3.897  -2.040  0.00  0.00    +0.103 C 
ATOM     24  N   UNL     1       3.129  -3.479  -2.573  0.00  0.00    -0.191 NA
ENDBRANCH  22  23
ENDBRANCH  16  17
ENDBRANCH   1  16
TORSDOF 7
