REMARK  Name = ZINC12602973
REMARK  7 active torsions:
REMARK  status: ('A' for Active; 'I' for Inactive)
REMARK    1  A    between atoms: C_1  and  O_2
REMARK    2  A    between atoms: O_2  and  C_3
REMARK    3  A    between atoms: C_3  and  C_5
REMARK    4  A    between atoms: C_21  and  C_34
REMARK    5  A    between atoms: C_24  and  N_27
REMARK    6  A    between atoms: N_27  and  C_28
REMARK    7  A    between atoms: C_28  and  C_29
REMARK                            x       y       z     vdW  Elec       q    Type
REMARK                         _______ _______ _______ _____ _____    ______ ____
ROOT
ATOM      1  C   UNL     1       8.547  -3.373  -2.641  0.00  0.00    +0.171 C 
ATOM      2  C   UNL     1       7.946  -4.774  -2.816  0.00  0.00    +0.068 C 
ATOM      3  C   UNL     1       6.899  -4.973  -1.749  0.00  0.00    -0.016 A 
ATOM      4  C   UNL     1       6.275  -6.196  -1.295  0.00  0.00    +0.003 A 
ATOM      5  C   UNL     1       6.421  -7.535  -1.672  0.00  0.00    +0.010 A 
ATOM      6  C   UNL     1       5.649  -8.455  -1.009  0.00  0.00    +0.001 A 
ATOM      7  C   UNL     1       4.761  -8.088  -0.011  0.00  0.00    +0.002 A 
ATOM      8  C   UNL     1       4.595  -6.771   0.382  0.00  0.00    +0.026 A 
ATOM      9  C   UNL     1       5.366  -5.814  -0.274  0.00  0.00    +0.047 A 
ATOM     10  N   UNL     1       5.451  -4.458  -0.139  0.00  0.00    -0.356 N 
ATOM     11  H   UNL     1       4.827  -3.939   0.604  0.00  0.00    +0.166 HD
ATOM     12  C   UNL     1       6.370  -3.961  -1.022  0.00  0.00    +0.038 A 
ATOM     13  C   UNL     1       6.777  -2.521  -1.209  0.00  0.00    +0.103 C 
ATOM     14  N   UNL     1       7.472  -2.384  -2.497  0.00  0.00    -0.278 NA
ATOM     15  C   UNL     1       7.952  -1.011  -2.692  0.00  0.00    +0.060 C 
ATOM     16  C   UNL     1       6.755  -0.057  -2.728  0.00  0.00    +0.003 C 
ATOM     17  C   UNL     1       5.973  -0.170  -1.416  0.00  0.00    -0.068 C 
ATOM     18  C   UNL     1       5.537  -1.624  -1.208  0.00  0.00    +0.009 C 
ENDROOT
BRANCH  15  19
ATOM     19  C   UNL     1       8.878  -0.625  -1.536  0.00  0.00    +0.006 C 
ATOM     20  C   UNL     1       8.977   0.899  -1.449  0.00  0.00    +0.005 C 
ATOM     21  C   UNL     1       9.903   1.285  -0.294  0.00  0.00    +0.000 C 
ATOM     22  C   UNL     1      11.294   0.697  -0.537  0.00  0.00    +0.000 C 
ATOM     23  C   UNL     1      11.195  -0.827  -0.624  0.00  0.00    +0.000 C 
ATOM     24  C   UNL     1      10.269  -1.213  -1.779  0.00  0.00    +0.005 C 
ENDBRANCH  15  19
BRANCH  17  25
ATOM     25  N   UNL     1       4.785   0.693  -1.478  0.00  0.00    +0.384 N 
ATOM     26  H   UNL     1       5.023   1.603  -2.049  0.00  0.00    -0.085 HD
ATOM     27  H   UNL     1       3.965   0.153  -1.973  0.00  0.00    -0.085 HD
BRANCH  25  28
ATOM     28  C   UNL     1       4.348   1.083  -0.131  0.00  0.00    -0.039 C 
BRANCH  28  29
ATOM     29  C   UNL     1       3.131   1.966  -0.234  0.00  0.00    -0.027 A 
ATOM     30  C   UNL     1       1.821   1.616  -0.248  0.00  0.00    +0.009 A 
ATOM     31  C   UNL     1       0.864   2.607  -0.351  0.00  0.00    +0.008 A 
ATOM     32  C   UNL     1       1.262   3.900  -0.435  0.00  0.00    +0.045 A 
ATOM     33  S   UNL     1       3.039   3.744  -0.370  0.00  0.00    -0.104 S 
ENDBRANCH  28  29
ENDBRANCH  25  28
ENDBRANCH  17  25
BRANCH   1  34
ATOM     34  C   UNL     1       9.383  -3.031  -3.847  0.00  0.00    +0.325 C 
ATOM     35  O   UNL     1       8.868  -2.525  -4.816  0.00  0.00    -0.249 OA
BRANCH  34  37
ATOM     36  C   UNL     1      11.444  -2.932  -5.041  0.00  0.00    +0.280 C 
ATOM     37  O   UNL     1      10.701  -3.288  -3.845  0.00  0.00    -0.467 OA
ENDBRANCH  34  37
ENDBRANCH   1  34
TORSDOF 6
