REMARK  Name = ZINC13979858
REMARK  13 active torsions:
REMARK  status: ('A' for Active; 'I' for Inactive)
REMARK    1  A    between atoms: C_1  and  C_2
REMARK    2  A    between atoms: C_4  and  O_10
REMARK    3  A    between atoms: C_6  and  C_9
REMARK    4  A    between atoms: O_10  and  C_11
REMARK    5  A    between atoms: C_11  and  C_12
REMARK    6  A    between atoms: N_14  and  N_15
REMARK    7  A    between atoms: N_15  and  C_16
REMARK    8  A    between atoms: C_16  and  N_18
REMARK    9  A    between atoms: C_19  and  C_21
REMARK   10  A    between atoms: C_21  and  C_22
REMARK   11  A    between atoms: C_22  and  C_23
REMARK   12  A    between atoms: C_23  and  O_24
REMARK   13  A    between atoms: O_24  and  C_25
REMARK                            x       y       z     vdW  Elec       q    Type
REMARK                         _______ _______ _______ _____ _____    ______ ____
ROOT
ATOM      1  C   UNL     1      -4.235   7.220   0.061  0.00  0.00    +0.153 C 
ATOM      2  S   UNL     1      -5.825   7.854   0.072  0.00  0.00    -0.017 S 
ENDROOT
BRANCH   1   3
ATOM      3  N   UNL     1      -3.176   8.054   0.061  0.00  0.00    -0.267 N 
ATOM      4  C   UNL     1      -3.370   9.388   0.069  0.00  0.00    +0.219 C 
ATOM      5  O   UNL     1      -4.496   9.837   0.077  0.00  0.00    -0.275 OA
ATOM      6  H   UNL     1      -2.275   7.695   0.055  0.00  0.00    +0.157 HD
BRANCH   4   7
ATOM      7  C   UNL     1      -2.187  10.321   0.069  0.00  0.00    +0.099 C 
BRANCH   7   8
ATOM      8  C   UNL     1      -2.680  11.770   0.079  0.00  0.00    +0.050 C 
BRANCH   8   9
ATOM      9  C   UNL     1      -1.478  12.717   0.078  0.00  0.00    +0.229 C 
BRANCH   9  10
ATOM     10  O   UNL     1      -1.939  14.070   0.088  0.00  0.00    -0.490 OA
BRANCH  10  11
ATOM     11  C   UNL     1      -0.991  15.044   0.088  0.00  0.00    +0.139 A 
ATOM     12  C   UNL     1       0.354  14.705   0.080  0.00  0.00    +0.048 A 
ATOM     13  C   UNL     1       1.316  15.697   0.081  0.00  0.00    +0.023 A 
ATOM     14  C   UNL     1       0.939  17.028   0.090  0.00  0.00    +0.043 A 
ATOM     15  C   UNL     1      -0.402  17.370   0.099  0.00  0.00    +0.043 A 
ATOM     16  C   UNL     1      -1.368  16.381   0.092  0.00  0.00    +0.084 A 
ATOM     17 CL   UNL     1      -3.050  16.809   0.094  0.00  0.00    -0.080 Cl
ATOM     18 CL   UNL     1       2.150  18.272   0.091  0.00  0.00    -0.083 Cl
ENDBRANCH  10  11
ENDBRANCH   9  10
ENDBRANCH   8   9
ENDBRANCH   7   8
ENDBRANCH   4   7
ENDBRANCH   1   3
BRANCH   1  19
ATOM     19  N   UNL     1      -4.041   5.886   0.053  0.00  0.00    -0.245 N 
ATOM     20  H   UNL     1      -4.803   5.285   0.053  0.00  0.00    +0.172 HD
BRANCH  19  23
ATOM     21  C   UNL     1      -2.546   4.033   0.036  0.00  0.00    +0.267 C 
ATOM     22  O   UNL     1      -3.498   3.282   0.036  0.00  0.00    -0.271 OA
ATOM     23  N   UNL     1      -2.740   5.367   0.044  0.00  0.00    -0.232 N 
ATOM     24  H   UNL     1      -1.978   5.968   0.044  0.00  0.00    +0.173 HD
BRANCH  21  25
ATOM     25  C   UNL     1      -1.146   3.475   0.026  0.00  0.00    +0.326 C 
BRANCH  25  26
ATOM     26  O   UNL     1      -1.202   2.047   0.019  0.00  0.00    -0.483 OA
BRANCH  26  30
ATOM     27  C   UNL     1       1.229  -2.184  -0.021  0.00  0.00    +0.045 C 
ATOM     28  C   UNL     1       1.208  -0.677  -0.013  0.00  0.00    -0.028 A 
ATOM     29  C   UNL     1       0.002  -0.004   0.002  0.00  0.00    +0.050 A 
ATOM     30  C   UNL     1      -0.017   1.383   0.010  0.00  0.00    +0.122 A 
ATOM     31  C   UNL     1       1.176   2.091   0.002  0.00  0.00    +0.050 A 
ATOM     32  C   UNL     1       2.380   1.414  -0.013  0.00  0.00    -0.028 A 
ATOM     33  C   UNL     1       2.397   0.030  -0.021  0.00  0.00    +0.047 A 
ATOM     34 CL   UNL     1       3.911  -0.818  -0.041  0.00  0.00    -0.083 Cl
ATOM     35  C   UNL     1       3.676   2.183  -0.022  0.00  0.00    +0.045 C 
ENDBRANCH  26  30
ENDBRANCH  25  26
ENDBRANCH  21  25
ENDBRANCH  19  23
ENDBRANCH   1  19
TORSDOF 11
