REMARK  Name = ZINC36083235
REMARK  11 active torsions:
REMARK  status: ('A' for Active; 'I' for Inactive)
REMARK    1  A    between atoms: C_1  and  C_2
REMARK    2  A    between atoms: C_2  and  N_3
REMARK    3  A    between atoms: N_3  and  C_4
REMARK    4  A    between atoms: N_3  and  C_6
REMARK    5  A    between atoms: C_4  and  C_5
REMARK    6  A    between atoms: C_6  and  C_7
REMARK    7  A    between atoms: C_7  and  N_8
REMARK    8  A    between atoms: N_8  and  C_9
REMARK    9  A    between atoms: C_9  and  C_10
REMARK   10  A    between atoms: C_22  and  C_25
REMARK   11  A    between atoms: C_32  and  C_34
REMARK                            x       y       z     vdW  Elec       q    Type
REMARK                         _______ _______ _______ _____ _____    ______ ____
ROOT
ATOM      1  C   UNL     1       1.931  -4.612  -3.063  0.00  0.00    +0.233 C 
ATOM      2  O   UNL     1       2.934  -3.988  -3.338  0.00  0.00    -0.274 OA
ATOM      3  N   UNL     1       1.252  -5.257  -4.032  0.00  0.00    -0.299 N 
ATOM      4  C   UNL     1       1.772  -5.178  -5.397  0.00  0.00    +0.109 C 
ATOM      5  C   UNL     1       2.579  -6.432  -5.665  0.00  0.00    +0.038 C 
ATOM      6  C   UNL     1       1.668  -7.555  -6.167  0.00  0.00    +0.108 C 
ATOM      7  N   UNL     1       0.390  -7.612  -5.441  0.00  0.00    -0.312 N 
ATOM      8  C   UNL     1       0.285  -7.470  -3.999  0.00  0.00    +0.125 C 
ATOM      9  C   UNL     1       0.083  -5.973  -3.656  0.00  0.00    +0.126 C 
ATOM     10  C   UNL     1      -0.776  -7.810  -6.172  0.00  0.00    +0.144 A 
ATOM     11  C   UNL     1      -0.705  -8.182  -7.515  0.00  0.00    +0.047 A 
ATOM     12  C   UNL     1      -1.891  -8.368  -8.202  0.00  0.00    +0.033 A 
ATOM     13  C   UNL     1      -3.089  -8.172  -7.506  0.00  0.00    +0.093 A 
ATOM     14  N   UNL     1      -3.059  -7.819  -6.228  0.00  0.00    -0.147 NA
ATOM     15  N   UNL     1      -1.957  -7.652  -5.592  0.00  0.00    -0.134 NA
ENDROOT
BRANCH  13  16
ATOM     16  C   UNL     1      -4.388  -8.359  -8.196  0.00  0.00    +0.002 A 
ATOM     17  C   UNL     1      -4.420  -8.735  -9.538  0.00  0.00    +0.013 A 
ATOM     18  C   UNL     1      -5.631  -8.907 -10.176  0.00  0.00    +0.039 A 
ATOM     19  C   UNL     1      -6.815  -8.707  -9.485  0.00  0.00    +0.123 A 
ATOM     20  C   UNL     1      -6.788  -8.333  -8.151  0.00  0.00    +0.039 A 
ATOM     21  C   UNL     1      -5.582  -8.164  -7.503  0.00  0.00    +0.013 A 
ATOM     22  F   UNL     1      -7.999  -8.876 -10.114  0.00  0.00    -0.205 F 
ENDBRANCH  13  16
BRANCH   1  23
ATOM     23  C   UNL     1       1.444  -4.665  -1.638  0.00  0.00    +0.204 C 
BRANCH  23  24
ATOM     24  N   UNL     1       2.347  -3.890  -0.784  0.00  0.00    -0.288 N 
ATOM     25  C   UNL     1       3.408  -4.489  -0.206  0.00  0.00    +0.282 C 
ATOM     26  O   UNL     1       3.668  -5.649  -0.467  0.00  0.00    -0.267 OA
BRANCH  25  27
ATOM     27  C   UNL     1       4.248  -3.743   0.736  0.00  0.00    +0.189 A 
ATOM     28  C   UNL     1       5.408  -4.188   1.302  0.00  0.00    +0.054 A 
ATOM     29  C   UNL     1       5.873  -3.155   2.132  0.00  0.00    +0.042 A 
ATOM     30  C   UNL     1       4.988  -2.139   2.037  0.00  0.00    +0.196 A 
ATOM     31  O   UNL     1       4.013  -2.495   1.191  0.00  0.00    -0.458 OA
ENDBRANCH  25  27
BRANCH  24  32
ATOM     32  C   UNL     1       2.099  -2.464  -0.558  0.00  0.00    +0.090 C 
BRANCH  32  33
ATOM     33  C   UNL     1       1.268  -2.287   0.715  0.00  0.00    -0.060 C 
BRANCH  33  34
ATOM     34  N   UNL     1       1.019  -0.857   0.942  0.00  0.00    +0.380 N 
ATOM     35  H   UNL     1       1.898  -0.361   0.962  0.00  0.00    -0.082 HD
BRANCH  34  37
ATOM     36  C   UNL     1       0.041   1.187   0.014  0.00  0.00    -0.017 C 
ATOM     37  C   UNL     1       0.183  -0.328  -0.144  0.00  0.00    -0.082 C 
ENDBRANCH  34  37
BRANCH  34  38
ATOM     38  C   UNL     1       0.326  -0.679   2.225  0.00  0.00    -0.082 C 
ATOM     39  C   UNL     1       1.254  -1.097   3.368  0.00  0.00    -0.017 C 
ENDBRANCH  34  38
ENDBRANCH  33  34
ENDBRANCH  32  33
ENDBRANCH  24  32
ENDBRANCH  23  24
ENDBRANCH   1  23
TORSDOF 9
