REMARK  Name = ZINC15717533
REMARK  1 active torsions:
REMARK  status: ('A' for Active; 'I' for Inactive)
REMARK    1  A    between atoms: C_8  and  C_11
REMARK                            x       y       z     vdW  Elec       q    Type
REMARK                         _______ _______ _______ _____ _____    ______ ____
ROOT
ATOM      1  C   UNL     1      -3.663   6.019  -0.264  0.00  0.00    +0.251 C 
ATOM      2  O   UNL     1      -4.737   5.492  -0.036  0.00  0.00    -0.270 OA
ATOM      3  N   UNL     1      -3.598   7.345  -0.492  0.00  0.00    -0.257 N 
ATOM      4  C   UNL     1      -2.330   7.990  -0.862  0.00  0.00    +0.210 C 
ATOM      5  C   UNL     1      -2.200   9.291  -0.119  0.00  0.00    +0.235 C 
ATOM      6  O   UNL     1      -1.098   9.717   0.154  0.00  0.00    -0.274 OA
ATOM      7  N   UNL     1      -3.292   9.987   0.251  0.00  0.00    -0.283 N 
ATOM      8  C   UNL     1      -4.575   9.493  -0.008  0.00  0.00    +0.055 A 
ATOM      9  C   UNL     1      -4.738   8.156  -0.378  0.00  0.00    +0.058 A 
ATOM     10  C   UNL     1      -6.001   7.651  -0.625  0.00  0.00    +0.025 A 
ATOM     11  C   UNL     1      -7.105   8.477  -0.508  0.00  0.00    +0.002 A 
ATOM     12  C   UNL     1      -6.947   9.802  -0.147  0.00  0.00    +0.002 A 
ATOM     13  C   UNL     1      -5.686  10.313   0.104  0.00  0.00    +0.025 A 
ATOM     14  H   UNL     1      -3.188  10.839   0.701  0.00  0.00    +0.155 HD
ENDROOT
BRANCH   1  22
ATOM     15  C   UNL     1       1.225   3.031  -2.503  0.00  0.00    +0.001 A 
ATOM     16  C   UNL     1       1.574   2.419  -1.310  0.00  0.00    +0.004 A 
ATOM     17  C   UNL     1       0.796   2.584  -0.179  0.00  0.00    +0.046 A 
ATOM     18  C   UNL     1      -0.343   3.367  -0.235  0.00  0.00    +0.128 A 
ATOM     19  C   UNL     1      -0.700   3.989  -1.444  0.00  0.00    +0.017 A 
ATOM     20  C   UNL     1       0.096   3.820  -2.577  0.00  0.00    +0.011 A 
ATOM     21  C   UNL     1      -1.916   4.816  -1.476  0.00  0.00    +0.023 C 
ATOM     22  C   UNL     1      -2.445   5.212  -0.291  0.00  0.00    +0.052 C 
ATOM     23  C   UNL     1      -1.770   4.816   0.996  0.00  0.00    +0.269 C 
ATOM     24  O   UNL     1      -1.128   3.549   0.855  0.00  0.00    -0.487 OA
ENDBRANCH   1  22
TORSDOF 1
