REMARK  Name = ZINC52394626
REMARK  4 active torsions:
REMARK  status: ('A' for Active; 'I' for Inactive)
REMARK    1  A    between atoms: C_3  and  C_6
REMARK    2  A    between atoms: C_8  and  C_9
REMARK    3  A    between atoms: C_8  and  S_11
REMARK    4  A    between atoms: S_11  and  C_14
REMARK                            x       y       z     vdW  Elec       q    Type
REMARK                         _______ _______ _______ _____ _____    ______ ____
ROOT
ATOM      1  S   UNL     1       6.404   1.228  -0.054  0.00  0.00    +0.040 S 
ATOM      2  O   UNL     1       7.038   0.489  -1.089  0.00  0.00    -0.163 OA
ATOM      3  O   UNL     1       6.408   2.648  -0.020  0.00  0.00    -0.163 OA
ENDROOT
BRANCH   1   4
ATOM      4  C   UNL     1       7.121   0.686   1.462  0.00  0.00    +0.114 A 
ATOM      5  C   UNL     1       8.124  -0.265   1.451  0.00  0.00    +0.049 A 
ATOM      6  C   UNL     1       8.687  -0.690   2.642  0.00  0.00    +0.043 A 
ATOM      7  C   UNL     1       8.245  -0.164   3.843  0.00  0.00    +0.021 A 
ATOM      8  C   UNL     1       7.241   0.786   3.853  0.00  0.00    +0.023 A 
ATOM      9  C   UNL     1       6.683   1.216   2.662  0.00  0.00    +0.066 A 
ATOM     10 CL   UNL     1       5.428   2.415   2.675  0.00  0.00    -0.082 Cl
ATOM     11 CL   UNL     1       9.946  -1.884   2.628  0.00  0.00    -0.083 Cl
ENDBRANCH   1   4
BRANCH   1  14
ATOM     12  C   UNL     1       3.725   1.667  -0.025  0.00  0.00    +0.228 C 
ATOM     13  O   UNL     1       4.042   2.984  -0.022  0.00  0.00    -0.284 OA
ATOM     14  C   UNL     1       4.715   0.728  -0.040  0.00  0.00    +0.217 C 
BRANCH  12  17
ATOM     15  C   UNL     1      -0.016   1.351   0.009  0.00  0.00    +0.008 A 
ATOM     16  C   UNL     1       1.177   2.036   0.002  0.00  0.00    +0.019 A 
ATOM     17  C   UNL     1       2.321   1.251  -0.013  0.00  0.00    +0.061 A 
ATOM     18  S   UNL     1       1.636  -0.395  -0.016  0.00  0.00    -0.093 S 
ATOM     19  C   UNL     1       0.002  -0.004   0.002  0.00  0.00    +0.046 A 
ENDBRANCH  12  17
BRANCH  14  20
ATOM     20  C   UNL     1       4.380  -0.665  -0.043  0.00  0.00    +0.123 C 
ATOM     21  N   UNL     1       4.114  -1.769  -0.046  0.00  0.00    -0.189 NA
ENDBRANCH  14  20
ENDBRANCH   1  14
TORSDOF 4
