REMARK  Name = ZINC25611428
REMARK  6 active torsions:
REMARK  status: ('A' for Active; 'I' for Inactive)
REMARK    1  A    between atoms: C_1  and  C_2
REMARK    2  A    between atoms: C_2  and  C_3
REMARK    3  A    between atoms: C_2  and  C_4
REMARK    4  A    between atoms: C_4  and  C_6
REMARK    5  A    between atoms: C_4  and  N_13
REMARK    6  A    between atoms: C_14  and  C_16
REMARK                            x       y       z     vdW  Elec       q    Type
REMARK                         _______ _______ _______ _____ _____    ______ ____
ROOT
ATOM      1  N   UNL     1      -1.191   1.870   0.018  0.00  0.00    -0.303 N 
ATOM      2  C   UNL     1      -0.014   1.212   0.009  0.00  0.00    +0.261 C 
ATOM      3  O   UNL     1       0.002  -0.004   0.002  0.00  0.00    -0.269 OA
ATOM      4  H   UNL     1      -1.206   2.970   0.024  0.00  0.00    +0.150 HD
ENDROOT
BRANCH   2   5
ATOM      5  C   UNL     1       1.252   1.966   0.001  0.00  0.00    +0.105 A 
ATOM      6  C   UNL     1       2.424   1.283  -0.009  0.00  0.00    +0.039 A 
ATOM      7  C   UNL     1       3.686   2.022  -0.021  0.00  0.00    -0.011 A 
ATOM      8  C   UNL     1       4.920   1.370  -0.035  0.00  0.00    +0.009 A 
ATOM      9  C   UNL     1       6.081   2.112  -0.041  0.00  0.00    +0.001 A 
ATOM     10  C   UNL     1       6.035   3.499  -0.034  0.00  0.00    +0.001 A 
ATOM     11  C   UNL     1       4.828   4.165  -0.020  0.00  0.00    +0.014 A 
ATOM     12  C   UNL     1       3.641   3.436  -0.013  0.00  0.00    +0.046 A 
ATOM     13  C   UNL     1       2.327   4.095   0.002  0.00  0.00    +0.257 A 
ATOM     14  O   UNL     1       2.251   5.310   0.009  0.00  0.00    -0.267 OA
ATOM     15  N   UNL     1       1.209   3.344   0.009  0.00  0.00    -0.318 N 
ATOM     16  H   UNL     1       0.240   3.864   0.020  0.00  0.00    +0.169 HD
ENDBRANCH   2   5
BRANCH   1  17
ATOM     17  C   UNL     1      -2.449   1.120   0.020  0.00  0.00    +0.106 C 
BRANCH  17  18
ATOM     18  C   UNL     1      -3.537   1.966   0.630  0.00  0.00    -0.027 A 
ATOM     19  C   UNL     1      -3.600   3.318   0.349  0.00  0.00    +0.007 A 
ATOM     20  C   UNL     1      -4.601   4.093   0.904  0.00  0.00    +0.020 A 
ATOM     21  C   UNL     1      -5.533   3.518   1.750  0.00  0.00    +0.041 A 
ATOM     22  C   UNL     1      -5.465   2.166   2.035  0.00  0.00    +0.020 A 
ATOM     23  C   UNL     1      -4.468   1.391   1.475  0.00  0.00    +0.007 A 
ATOM     24 CL   UNL     1      -6.786   4.493   2.452  0.00  0.00    -0.084 Cl
ENDBRANCH  17  18
BRANCH  17  26
ATOM     25  C   UNL     1      -1.726  -0.100  -2.037  0.00  0.00    +0.009 C 
ATOM     26  C   UNL     1      -2.830   0.759  -1.417  0.00  0.00    +0.008 C 
ATOM     27  C   UNL     1      -4.144  -0.024  -1.415  0.00  0.00    +0.009 C 
ENDBRANCH  17  26
ENDBRANCH   1  17
TORSDOF 4
