REMARK  Name = ZINC08975932
REMARK  3 active torsions:
REMARK  status: ('A' for Active; 'I' for Inactive)
REMARK    1  A    between atoms: C_5  and  N_7
REMARK    2  A    between atoms: N_19  and  S_20
REMARK    3  A    between atoms: S_20  and  C_23
REMARK                            x       y       z     vdW  Elec       q    Type
REMARK                         _______ _______ _______ _____ _____    ______ ____
ROOT
ATOM      1  N   UNL     1       8.338  -1.672  -5.343  0.00  0.00    -0.325 N 
ATOM      2  C   UNL     1       7.717  -0.483  -4.743  0.00  0.00    +0.124 C 
ATOM      3  C   UNL     1       6.535  -0.913  -3.871  0.00  0.00    +0.125 C 
ATOM      4  N   UNL     1       5.566  -1.652  -4.694  0.00  0.00    -0.311 N 
ATOM      5  C   UNL     1       6.187  -2.841  -5.293  0.00  0.00    +0.125 C 
ATOM      6  C   UNL     1       7.370  -2.411  -6.165  0.00  0.00    +0.124 C 
ATOM      7  C   UNL     1       4.440  -1.998  -3.949  0.00  0.00    +0.144 A 
ATOM      8  C   UNL     1       3.397  -2.707  -4.547  0.00  0.00    +0.049 A 
ATOM      9  C   UNL     1       2.303  -3.033  -3.765  0.00  0.00    +0.050 A 
ATOM     10  C   UNL     1       2.305  -2.623  -2.431  0.00  0.00    +0.160 A 
ATOM     11  N   UNL     1       3.340  -1.954  -1.950  0.00  0.00    -0.131 NA
ATOM     12  N   UNL     1       4.358  -1.656  -2.674  0.00  0.00    -0.132 NA
ATOM     13  N   UNL     1       1.223  -2.923  -1.606  0.00  0.00    -0.198 N 
ATOM     14  H   UNL     1       0.465  -3.413  -1.960  0.00  0.00    +0.175 HD
ENDROOT
BRANCH   1  19
ATOM     15  C   UNL     1      11.653  -0.345  -6.218  0.00  0.00    +0.002 A 
ATOM     16  C   UNL     1      11.704  -0.635  -7.569  0.00  0.00    +0.003 A 
ATOM     17  C   UNL     1      10.640  -1.269  -8.184  0.00  0.00    +0.040 A 
ATOM     18  C   UNL     1       9.521  -1.615  -7.449  0.00  0.00    +0.144 A 
ATOM     19  C   UNL     1       9.468  -1.325  -6.090  0.00  0.00    +0.065 A 
ATOM     20  C   UNL     1      10.537  -0.684  -5.478  0.00  0.00    +0.026 A 
ATOM     21  F   UNL     1       8.481  -2.233  -8.050  0.00  0.00    -0.204 F 
ENDBRANCH   1  19
BRANCH  13  22
ATOM     22  S   UNL     1       1.231  -2.441  -0.022  0.00  0.00    +0.074 S 
ATOM     23  O   UNL     1       2.487  -2.833   0.515  0.00  0.00    -0.150 OA
ATOM     24  O   UNL     1      -0.003  -2.866   0.538  0.00  0.00    -0.150 OA
BRANCH  22  25
ATOM     25  C   UNL     1       1.208  -0.679  -0.013  0.00  0.00    +0.109 A 
ATOM     26  C   UNL     1       0.002  -0.004   0.002  0.00  0.00    +0.030 A 
ATOM     27  C   UNL     1      -0.017   1.378   0.010  0.00  0.00    +0.022 A 
ATOM     28  C   UNL     1       1.172   2.086   0.002  0.00  0.00    +0.041 A 
ATOM     29  C   UNL     1       2.379   1.409  -0.013  0.00  0.00    +0.022 A 
ATOM     30  C   UNL     1       2.397   0.027  -0.021  0.00  0.00    +0.030 A 
ATOM     31 CL   UNL     1       1.149   3.821   0.011  0.00  0.00    -0.084 Cl
ENDBRANCH  22  25
ENDBRANCH  13  22
TORSDOF 3
