REMARK  Name = ZINC45023776
REMARK  4 active torsions:
REMARK  status: ('A' for Active; 'I' for Inactive)
REMARK    1  A    between atoms: C_2  and  C_3
REMARK    2  A    between atoms: C_3  and  N_4
REMARK    3  A    between atoms: C_14  and  S_15
REMARK    4  A    between atoms: S_15  and  C_16
REMARK                            x       y       z     vdW  Elec       q    Type
REMARK                         _______ _______ _______ _____ _____    ______ ____
ROOT
ATOM      1  N   UNL     1      -1.318  -1.700  -1.126  0.00  0.00    -0.283 N 
ATOM      2  C   UNL     1      -1.823  -1.291  -2.313  0.00  0.00    +0.263 A 
ATOM      3  O   UNL     1      -2.260  -0.164  -2.458  0.00  0.00    -0.267 OA
ATOM      4  C   UNL     1      -1.825  -2.256  -3.420  0.00  0.00    +0.065 A 
ATOM      5  C   UNL     1      -2.323  -1.929  -4.680  0.00  0.00    +0.017 A 
ATOM      6  C   UNL     1      -2.303  -2.862  -5.679  0.00  0.00    +0.021 A 
ATOM      7  C   UNL     1      -1.790  -4.135  -5.452  0.00  0.00    +0.043 A 
ATOM      8  C   UNL     1      -1.291  -4.484  -4.216  0.00  0.00    +0.048 A 
ATOM      9  C   UNL     1      -1.301  -3.547  -3.179  0.00  0.00    +0.080 A 
ATOM     10  N   UNL     1      -0.821  -3.846  -1.949  0.00  0.00    -0.223 NA
ATOM     11  C   UNL     1      -0.826  -2.965  -0.980  0.00  0.00    +0.179 A 
ATOM     12 CL   UNL     1      -1.778  -5.297  -6.742  0.00  0.00    -0.083 Cl
ENDROOT
BRANCH   1  13
ATOM     13  C   UNL     1      -1.293  -0.775   0.010  0.00  0.00    +0.154 C 
BRANCH  13  15
ATOM     14  C   UNL     1      -0.016   1.306   0.009  0.00  0.00    +0.005 C 
ATOM     15  C   UNL     1       0.002  -0.004   0.002  0.00  0.00    -0.013 C 
ENDBRANCH  13  15
ENDBRANCH   1  13
BRANCH  11  16
ATOM     16  S   UNL     1      -0.174  -3.437   0.587  0.00  0.00    -0.032 S 
BRANCH  16  17
ATOM     17  C   UNL     1       0.342  -5.105   0.349  0.00  0.00    +0.111 A 
ATOM     18  C   UNL     1       0.914  -5.826   1.399  0.00  0.00    +0.075 A 
ATOM     19  C   UNL     1       1.303  -7.133   1.166  0.00  0.00    +0.135 A 
ATOM     20  N   UNL     1       1.122  -7.658  -0.038  0.00  0.00    -0.203 NA
ATOM     21  C   UNL     1       0.576  -6.950  -1.015  0.00  0.00    +0.215 A 
ATOM     22  N   UNL     1       0.186  -5.698  -0.831  0.00  0.00    -0.208 NA
ATOM     23  N   UNL     1       0.404  -7.534  -2.257  0.00  0.00    -0.327 N 
ATOM     24 CL   UNL     1       2.021  -8.073   2.436  0.00  0.00    -0.062 Cl
ATOM     25  H   UNL     1       0.682  -8.452  -2.404  0.00  0.00    +0.145 HD
ATOM     26  H   UNL     1       0.005  -7.027  -2.981  0.00  0.00    +0.145 HD
ENDBRANCH  16  17
ENDBRANCH  11  16
TORSDOF 4
