REMARK  Name = ZINC39324505
REMARK  11 active torsions:
REMARK  status: ('A' for Active; 'I' for Inactive)
REMARK    1  A    between atoms: C_1  and  C_2
REMARK    2  A    between atoms: C_2  and  O_3
REMARK    3  A    between atoms: O_3  and  C_4
REMARK    4  A    between atoms: C_7  and  C_10
REMARK    5  A    between atoms: C_13  and  C_35
REMARK    6  A    between atoms: C_19  and  N_34
REMARK    7  A    between atoms: C_20  and  C_32
REMARK    8  A    between atoms: C_21  and  C_23
REMARK    9  A    between atoms: C_26  and  O_29
REMARK   10  A    between atoms: O_29  and  C_30
REMARK   11  A    between atoms: C_30  and  C_31
REMARK                            x       y       z     vdW  Elec       q    Type
REMARK                         _______ _______ _______ _____ _____    ______ ____
ROOT
ATOM      1  C   UNL     1       1.106  -6.010  -1.844  0.00  0.00    +0.015 C 
ATOM      2  C   UNL     1       1.639  -6.511  -2.973  0.00  0.00    -0.004 C 
ATOM      3  C   UNL     1       2.233  -5.599  -4.023  0.00  0.00    +0.042 C 
ATOM      4  C   UNL     1       3.525  -6.268  -4.517  0.00  0.00    -0.006 C 
ATOM      5  C   UNL     1       3.169  -7.604  -5.161  0.00  0.00    +0.039 C 
ATOM      6  C   UNL     1       2.368  -8.475  -4.227  0.00  0.00    -0.014 C 
ATOM      7  C   UNL     1       1.663  -7.967  -3.218  0.00  0.00    +0.133 C 
ATOM      8  O   UNL     1       0.942  -8.761  -2.385  0.00  0.00    -0.441 OA
ATOM      9  C   UNL     1       0.578  -9.994  -2.776  0.00  0.00    +0.199 C 
ATOM     10  C   UNL     1       1.244 -10.630  -3.772  0.00  0.00    +0.098 C 
ATOM     11  C   UNL     1       2.392  -9.967  -4.466  0.00  0.00    +0.094 C 
ATOM     12  C   UNL     1       4.209  -5.365  -5.545  0.00  0.00    +0.008 C 
ENDROOT
BRANCH   1  16
ATOM     13  C   UNL     1       0.618  -1.817  -1.407  0.00  0.00    +0.121 A 
ATOM     14  C   UNL     1       0.494  -2.401  -2.662  0.00  0.00    +0.046 A 
ATOM     15  C   UNL     1       0.652  -3.762  -2.808  0.00  0.00    +0.011 A 
ATOM     16  C   UNL     1       0.937  -4.555  -1.692  0.00  0.00    -0.024 A 
ATOM     17  C   UNL     1       1.060  -3.962  -0.432  0.00  0.00    +0.011 A 
ATOM     18  C   UNL     1       0.905  -2.600  -0.296  0.00  0.00    +0.046 A 
BRANCH  13  19
ATOM     19  O   UNL     1       0.461  -0.475  -1.268  0.00  0.00    -0.492 OA
BRANCH  19  21
ATOM     20  C   UNL     1       0.027   1.753  -2.098  0.00  0.00    +0.048 C 
ATOM     21  C   UNL     1       0.167   0.271  -2.451  0.00  0.00    +0.225 C 
ENDBRANCH  19  21
ENDBRANCH  13  19
ENDBRANCH   1  16
BRANCH  11  22
ATOM     22  C   UNL     1       3.678 -10.538  -3.926  0.00  0.00    -0.035 A 
ATOM     23  C   UNL     1       3.979 -10.411  -2.582  0.00  0.00    +0.008 A 
ATOM     24  C   UNL     1       5.157 -10.933  -2.085  0.00  0.00    +0.046 A 
ATOM     25  C   UNL     1       6.039 -11.585  -2.935  0.00  0.00    +0.121 A 
ATOM     26  C   UNL     1       5.734 -11.712  -4.282  0.00  0.00    +0.046 A 
ATOM     27  C   UNL     1       4.552 -11.192  -4.774  0.00  0.00    +0.008 A 
BRANCH  25  28
ATOM     28  O   UNL     1       7.199 -12.100  -2.448  0.00  0.00    -0.492 OA
BRANCH  28  29
ATOM     29  C   UNL     1       8.058 -12.758  -3.381  0.00  0.00    +0.225 C 
ATOM     30  C   UNL     1       9.305 -13.266  -2.654  0.00  0.00    +0.048 C 
ENDBRANCH  28  29
ENDBRANCH  25  28
ENDBRANCH  11  22
BRANCH   9  31
ATOM     31  N   UNL     1      -0.479 -10.617  -2.160  0.00  0.00    -0.328 N 
ATOM     32  H   UNL     1      -0.958 -10.168  -1.446  0.00  0.00    +0.145 HD
ATOM     33  H   UNL     1      -0.746 -11.507  -2.438  0.00  0.00    +0.145 HD
ENDBRANCH   9  31
BRANCH  10  34
ATOM     34  C   UNL     1       0.839 -11.944  -4.171  0.00  0.00    +0.101 C 
ATOM     35  N   UNL     1       0.517 -12.987  -4.487  0.00  0.00    -0.191 NA
ENDBRANCH  10  34
TORSDOF 8
