REMARK  Name = ZINC06244852
REMARK  8 active torsions:
REMARK  status: ('A' for Active; 'I' for Inactive)
REMARK    1  A    between atoms: C_1  and  C_2
REMARK    2  A    between atoms: C_5  and  C_40
REMARK    3  A    between atoms: C_9  and  C_14
REMARK    4  A    between atoms: C_14  and  C_16
REMARK    5  A    between atoms: C_14  and  N_69
REMARK    6  A    between atoms: N_20  and  C_21
REMARK    7  A    between atoms: C_21  and  C_22
REMARK    8  A    between atoms: N_30  and  C_33
REMARK                            x       y       z     vdW  Elec       q    Type
REMARK                         _______ _______ _______ _____ _____    ______ ____
ROOT
ATOM      1  C   UNL     1       0.990   3.539  -0.135  0.00  0.00    +0.039 C 
ENDROOT
BRANCH   1  10
ATOM      2  C   UNL     1      -1.037   0.340  -3.709  0.00  0.00    +0.044 C 
ATOM      3  C   UNL     1      -0.653  -0.502  -2.520  0.00  0.00    -0.041 A 
ATOM      4  C   UNL     1      -0.868  -1.852  -2.538  0.00  0.00    +0.004 A 
ATOM      5  C   UNL     1      -0.519  -2.637  -1.447  0.00  0.00    +0.005 A 
ATOM      6  C   UNL     1       0.050  -2.071  -0.326  0.00  0.00    -0.026 A 
ATOM      7  C   UNL     1       0.278  -0.699  -0.286  0.00  0.00    +0.052 A 
ATOM      8  C   UNL     1      -0.077   0.093  -1.393  0.00  0.00    +0.002 A 
ATOM      9  C   UNL     1       0.166   1.536  -1.341  0.00  0.00    +0.018 A 
ATOM     10  C   UNL     1       0.727   2.058  -0.222  0.00  0.00    +0.011 A 
ATOM     11  C   UNL     1       1.064   1.219   0.862  0.00  0.00    +0.251 A 
ATOM     12  O   UNL     1       1.563   1.709   1.860  0.00  0.00    -0.268 OA
ATOM     13  N   UNL     1       0.845  -0.107   0.823  0.00  0.00    -0.322 N 
ATOM     14  H   UNL     1       1.089  -0.655   1.585  0.00  0.00    +0.169 HD
ATOM     15  C   UNL     1       0.424  -2.935   0.850  0.00  0.00    +0.046 C 
ENDBRANCH   1  10
BRANCH   1  21
ATOM     16  C   UNL     1      -1.201   3.814   0.860  0.00  0.00    -0.058 C 
ATOM     17  C   UNL     1      -1.942   4.351   2.087  0.00  0.00    +0.086 C 
ATOM     18  N   UNL     1      -1.709   5.797   2.203  0.00  0.00    -0.331 N 
ATOM     19  C   UNL     1      -0.275   6.088   2.333  0.00  0.00    +0.086 C 
ATOM     20  C   UNL     1       0.466   5.552   1.106  0.00  0.00    -0.058 C 
ATOM     21  N   UNL     1       0.242   4.094   1.014  0.00  0.00    +0.391 N 
ATOM     22  H   UNL     1       0.577   3.650   1.877  0.00  0.00    -0.080 HD
BRANCH  18  23
ATOM     23  C   UNL     1      -2.429   6.337   3.273  0.00  0.00    +0.065 A 
ATOM     24  C   UNL     1      -2.405   7.704   3.510  0.00  0.00    +0.026 A 
ATOM     25  C   UNL     1      -3.120   8.235   4.566  0.00  0.00    +0.002 A 
ATOM     26  C   UNL     1      -3.854   7.404   5.393  0.00  0.00    +0.003 A 
ATOM     27  C   UNL     1      -3.878   6.041   5.165  0.00  0.00    +0.040 A 
ATOM     28  C   UNL     1      -3.168   5.503   4.107  0.00  0.00    +0.144 A 
ATOM     29  F   UNL     1      -3.190   4.171   3.884  0.00  0.00    -0.204 F 
ENDBRANCH  18  23
ENDBRANCH   1  21
BRANCH   1  30
ATOM     30  C   UNL     1       0.556   4.203  -1.416  0.00  0.00    +0.143 A 
ATOM     31  N   UNL     1      -0.675   4.371  -1.833  0.00  0.00    -0.115 NA
ATOM     32  N   UNL     1      -0.631   4.979  -2.968  0.00  0.00    -0.023 NA
ATOM     33  N   UNL     1       0.596   5.197  -3.290  0.00  0.00    -0.044 NA
ATOM     34  N   UNL     1       1.359   4.732  -2.358  0.00  0.00    -0.226 N 
BRANCH  34  35
ATOM     35  C   UNL     1       2.823   4.774  -2.331  0.00  0.00    +0.182 C 
BRANCH  35  36
ATOM     36  C   UNL     1       3.373   3.589  -3.084  0.00  0.00    -0.026 A 
ATOM     37  C   UNL     1       3.580   2.390  -2.429  0.00  0.00    +0.005 A 
ATOM     38  C   UNL     1       4.080   1.302  -3.121  0.00  0.00    +0.000 A 
ATOM     39  C   UNL     1       4.382   1.417  -4.465  0.00  0.00    +0.000 A 
ATOM     40  C   UNL     1       4.180   2.618  -5.118  0.00  0.00    +0.000 A 
ATOM     41  C   UNL     1       3.675   3.704  -4.428  0.00  0.00    +0.005 A 
ENDBRANCH  35  36
ENDBRANCH  34  35
ENDBRANCH   1  30
TORSDOF 6
