REMARK  Name = ZINC36565190
REMARK  15 active torsions:
REMARK  status: ('A' for Active; 'I' for Inactive)
REMARK    1  A    between atoms: C_1  and  C_2
REMARK    2  A    between atoms: C_2  and  C_3
REMARK    3  A    between atoms: C_3  and  N_4
REMARK    4  A    between atoms: N_4  and  C_5
REMARK    5  A    between atoms: C_5  and  C_7
REMARK    6  A    between atoms: C_5  and  C_14
REMARK    7  A    between atoms: C_11  and  O_13
REMARK    8  A    between atoms: N_16  and  C_17
REMARK    9  A    between atoms: C_17  and  S_18
REMARK   10  A    between atoms: S_18  and  C_21
REMARK   11  A    between atoms: C_24  and  C_27
REMARK   12  A    between atoms: C_28  and  C_30
REMARK   13  A    between atoms: C_30  and  C_32
REMARK   14  A    between atoms: C_30  and  C_34
REMARK   15  A    between atoms: C_32  and  C_33
REMARK                            x       y       z     vdW  Elec       q    Type
REMARK                         _______ _______ _______ _____ _____    ______ ____
ROOT
ATOM      1  C   UNL     1      -1.916  -2.207   0.943  0.00  0.00    +0.192 C 
ENDROOT
BRANCH   1   2
ATOM      2  C   UNL     1      -3.291  -2.029   1.534  0.00  0.00    -0.015 A 
ATOM      3  C   UNL     1      -4.021  -0.889   1.252  0.00  0.00    +0.006 A 
ATOM      4  C   UNL     1      -5.283  -0.723   1.793  0.00  0.00    +0.004 A 
ATOM      5  C   UNL     1      -5.816  -1.696   2.616  0.00  0.00    +0.045 A 
ATOM      6  C   UNL     1      -5.086  -2.841   2.900  0.00  0.00    +0.117 A 
ATOM      7  C   UNL     1      -3.822  -3.008   2.351  0.00  0.00    +0.051 A 
BRANCH   6   8
ATOM      8  O   UNL     1      -5.609  -3.799   3.709  0.00  0.00    -0.507 OA
ATOM      9  H   UNL     1      -6.114  -4.477   3.240  0.00  0.00    +0.292 HD
ENDBRANCH   6   8
ENDBRANCH   1   2
BRANCH   1  10
ATOM     10  C   UNL     1      -0.924  -1.379   1.718  0.00  0.00    +0.239 C 
ATOM     11  O   UNL     1      -0.327  -0.477   1.170  0.00  0.00    -0.273 OA
ATOM     12  N   UNL     1      -0.702  -1.640   3.022  0.00  0.00    -0.294 N 
ATOM     13  H   UNL     1      -1.180  -2.361   3.460  0.00  0.00    +0.150 HD
BRANCH  12  14
ATOM     14  C   UNL     1       0.262  -0.835   3.776  0.00  0.00    +0.278 C 
BRANCH  14  15
ATOM     15  S   UNL     1      -0.611   0.501   4.639  0.00  0.00    +0.013 S 
ATOM     16  O   UNL     1       0.302   1.254   5.426  0.00  0.00    -0.168 OA
ATOM     17  O   UNL     1      -1.510   1.152   3.751  0.00  0.00    -0.168 OA
BRANCH  15  18
ATOM     18  C   UNL     1      -1.646  -0.315   5.808  0.00  0.00    +0.090 A 
ATOM     19  C   UNL     1      -2.928  -0.689   5.453  0.00  0.00    +0.027 A 
ATOM     20  C   UNL     1      -3.740  -1.330   6.370  0.00  0.00    +0.005 A 
ATOM     21  C   UNL     1      -3.270  -1.596   7.643  0.00  0.00    -0.050 A 
ATOM     22  C   UNL     1      -1.987  -1.222   7.997  0.00  0.00    +0.005 A 
ATOM     23  C   UNL     1      -1.174  -0.586   7.079  0.00  0.00    +0.027 A 
ATOM     24  C   UNL     1      -4.155  -2.293   8.643  0.00  0.00    +0.044 C 
ENDBRANCH  15  18
ENDBRANCH  14  15
ENDBRANCH  12  14
ENDBRANCH   1  10
BRANCH   1  25
ATOM     25  N   UNL     1      -1.926  -1.773  -0.457  0.00  0.00    -0.285 N 
ATOM     26  C   UNL     1      -2.354  -2.613  -1.420  0.00  0.00    +0.224 C 
ATOM     27  O   UNL     1      -2.719  -3.732  -1.130  0.00  0.00    -0.275 OA
BRANCH  25  28
ATOM     28  C   UNL     1      -1.470  -0.426  -0.809  0.00  0.00    +0.108 C 
BRANCH  28  30
ATOM     29  C   UNL     1       0.514   0.938  -1.474  0.00  0.00    +0.005 C 
ATOM     30  C   UNL     1      -0.009  -0.483  -1.259  0.00  0.00    +0.016 C 
ENDBRANCH  28  30
ENDBRANCH  25  28
BRANCH  26  31
ATOM     31  C   UNL     1      -2.380  -2.161  -2.857  0.00  0.00    +0.105 C 
BRANCH  31  32
ATOM     32  C   UNL     1      -1.102  -2.580  -3.538  0.00  0.00    -0.036 A 
ATOM     33  C   UNL     1      -0.770  -3.919  -3.620  0.00  0.00    +0.004 A 
ATOM     34  C   UNL     1       0.402  -4.304  -4.245  0.00  0.00    +0.000 A 
ATOM     35  C   UNL     1       1.241  -3.349  -4.788  0.00  0.00    +0.000 A 
ATOM     36  C   UNL     1       0.908  -2.010  -4.707  0.00  0.00    +0.000 A 
ATOM     37  C   UNL     1      -0.266  -1.626  -4.086  0.00  0.00    +0.004 A 
ENDBRANCH  31  32
BRANCH  31  38
ATOM     38  C   UNL     1      -3.572  -2.800  -3.572  0.00  0.00    +0.014 C 
ATOM     39  C   UNL     1      -4.870  -2.354  -2.896  0.00  0.00    +0.005 C 
ENDBRANCH  31  38
ENDBRANCH  26  31
ENDBRANCH   1  25
TORSDOF 12
