REMARK  Name = ZINC37858231
REMARK  11 active torsions:
REMARK  status: ('A' for Active; 'I' for Inactive)
REMARK    1  A    between atoms: C_1  and  N_2
REMARK    2  A    between atoms: N_2  and  C_3
REMARK    3  A    between atoms: N_2  and  C_4
REMARK    4  A    between atoms: C_4  and  C_5
REMARK    5  A    between atoms: C_9  and  C_11
REMARK    6  A    between atoms: C_12  and  C_13
REMARK    7  A    between atoms: C_21  and  C_34
REMARK    8  A    between atoms: C_22  and  N_23
REMARK    9  A    between atoms: N_23  and  C_24
REMARK   10  A    between atoms: C_26  and  O_32
REMARK   11  A    between atoms: O_32  and  C_33
REMARK                            x       y       z     vdW  Elec       q    Type
REMARK                         _______ _______ _______ _____ _____    ______ ____
ROOT
ATOM      1  C   UNL     1      -0.779   5.481   5.230  0.00  0.00    +0.027 A 
ATOM      2  C   UNL     1      -1.334   5.860   6.466  0.00  0.00    +0.017 A 
ATOM      3  C   UNL     1      -0.922   6.994   7.091  0.00  0.00    +0.013 A 
ATOM      4  C   UNL     1       0.065   7.801   6.503  0.00  0.00    +0.023 A 
ATOM      5  C   UNL     1       0.635   7.434   5.259  0.00  0.00    +0.074 A 
ATOM      6  C   UNL     1       0.203   6.258   4.631  0.00  0.00    +0.045 A 
ATOM      7  N   UNL     1       1.579   8.201   4.695  0.00  0.00    -0.254 NA
ATOM      8  C   UNL     1       2.006   9.302   5.259  0.00  0.00    +0.132 A 
ATOM      9  C   UNL     1       1.499   9.742   6.492  0.00  0.00    +0.091 A 
ATOM     10  C   UNL     1       0.508   8.985   7.137  0.00  0.00    +0.060 A 
ENDROOT
BRANCH   1  12
ATOM     11  C   UNL     1      -1.595   3.299   4.061  0.00  0.00    -0.041 C 
ATOM     12  C   UNL     1      -1.227   4.282   4.588  0.00  0.00    -0.059 C 
BRANCH  11  17
ATOM     13  C   UNL     1      -1.900   0.644   1.631  0.00  0.00    +0.026 A 
ATOM     14  C   UNL     1      -2.875  -0.175   2.172  0.00  0.00    +0.021 A 
ATOM     15  C   UNL     1      -3.453   0.163   3.388  0.00  0.00    +0.004 A 
ATOM     16  C   UNL     1      -3.031   1.319   4.022  0.00  0.00    +0.037 A 
ATOM     17  C   UNL     1      -2.042   2.100   3.419  0.00  0.00    +0.114 A 
ATOM     18  N   UNL     1      -1.511   1.736   2.256  0.00  0.00    -0.245 NA
BRANCH  13  19
ATOM     19  C   UNL     1      -1.271   0.279   0.312  0.00  0.00    -0.023 C 
BRANCH  19  21
ATOM     20  C   UNL     1      -1.758   2.430  -0.631  0.00  0.00    -0.096 C 
ATOM     21  N   UNL     1      -1.966   0.983  -0.774  0.00  0.00    +0.380 N 
ATOM     22  C   UNL     1      -1.433   0.537  -2.068  0.00  0.00    -0.096 C 
ATOM     23  H   UNL     1      -2.954   0.780  -0.729  0.00  0.00    -0.082 HD
ENDBRANCH  19  21
ENDBRANCH  13  19
ENDBRANCH  11  17
ENDBRANCH   1  12
BRANCH  10  24
ATOM     24  N   UNL     1      -0.017   9.384   8.349  0.00  0.00    -0.312 N 
ATOM     25  H   UNL     1      -0.436   8.733   8.934  0.00  0.00    +0.152 HD
BRANCH  24  26
ATOM     26  C   UNL     1       0.055  10.726   8.734  0.00  0.00    +0.053 A 
ATOM     27  C   UNL     1       0.849  11.099   9.810  0.00  0.00    +0.071 A 
ATOM     28  C   UNL     1       0.918  12.430  10.190  0.00  0.00    +0.140 A 
ATOM     29  C   UNL     1       0.193  13.389   9.493  0.00  0.00    +0.084 A 
ATOM     30  C   UNL     1      -0.598  13.016   8.422  0.00  0.00    +0.045 A 
ATOM     31  C   UNL     1      -0.665  11.690   8.037  0.00  0.00    +0.064 A 
ATOM     32 CL   UNL     1      -1.652  11.227   6.686  0.00  0.00    -0.082 Cl
ATOM     33 CL   UNL     1       0.279  15.056   9.969  0.00  0.00    -0.080 Cl
BRANCH  28  34
ATOM     34  O   UNL     1       1.694  12.798  11.243  0.00  0.00    -0.494 OA
ATOM     35  C   UNL     1       2.501  11.780  11.840  0.00  0.00    +0.277 C 
ENDBRANCH  28  34
ENDBRANCH  24  26
ENDBRANCH  10  24
BRANCH   9  36
ATOM     36  C   UNL     1       1.987  10.951   7.085  0.00  0.00    +0.103 C 
ATOM     37  N   UNL     1       2.374  11.909   7.556  0.00  0.00    -0.191 NA
ENDBRANCH   9  36
TORSDOF 8
