REMARK  Name = ZINC12864147
REMARK  6 active torsions:
REMARK  status: ('A' for Active; 'I' for Inactive)
REMARK    1  A    between atoms: C_1  and  C_2
REMARK    2  A    between atoms: C_9  and  C_11
REMARK    3  A    between atoms: C_14  and  S_16
REMARK    4  A    between atoms: S_16  and  C_17
REMARK    5  A    between atoms: C_17  and  C_18
REMARK    6  A    between atoms: N_24  and  C_25
REMARK                            x       y       z     vdW  Elec       q    Type
REMARK                         _______ _______ _______ _____ _____    ______ ____
ROOT
ATOM      1  C   UNL     1       0.784   3.022  11.170  0.00  0.00    +0.146 A 
ATOM      2  N   UNL     1       0.512   2.081  12.057  0.00  0.00    -0.199 NA
ATOM      3  C   UNL     1       0.377   2.395  13.343  0.00  0.00    +0.217 A 
ATOM      4  N   UNL     1       0.515   3.657  13.735  0.00  0.00    -0.181 NA
ATOM      5  C   UNL     1       0.789   4.600  12.840  0.00  0.00    +0.224 A 
ATOM      6  N   UNL     1       0.928   4.277  11.556  0.00  0.00    -0.198 NA
ATOM      7  N   UNL     1       0.933   5.914  13.242  0.00  0.00    -0.284 N 
ATOM      8  N   UNL     1       0.092   1.412  14.269  0.00  0.00    -0.327 N 
ATOM      9  H   UNL     1       1.211   6.589  12.603  0.00  0.00    +0.155 HD
ATOM     10  H   UNL     1      -0.009   0.491  13.982  0.00  0.00    +0.145 HD
ATOM     11  H   UNL     1      -0.006   1.642  15.206  0.00  0.00    +0.145 HD
ENDROOT
BRANCH   7  12
ATOM     12  C   UNL     1       0.679   6.271  14.571  0.00  0.00    +0.034 A 
ATOM     13  C   UNL     1      -0.307   5.611  15.292  0.00  0.00    +0.026 A 
ATOM     14  C   UNL     1      -0.553   5.962  16.605  0.00  0.00    +0.040 A 
ATOM     15  C   UNL     1       0.176   6.978  17.199  0.00  0.00    +0.124 A 
ATOM     16  C   UNL     1       1.157   7.641  16.481  0.00  0.00    +0.040 A 
ATOM     17  C   UNL     1       1.409   7.290  15.169  0.00  0.00    +0.026 A 
ATOM     18  F   UNL     1      -0.069   7.322  18.482  0.00  0.00    -0.205 F 
ENDBRANCH   7  12
BRANCH   1  19
ATOM     19  C   UNL     1       0.936   2.661   9.714  0.00  0.00    +0.155 C 
BRANCH  19  20
ATOM     20  S   UNL     1      -0.673   2.775   8.893  0.00  0.00    -0.058 S 
BRANCH  20  24
ATOM     21  C   UNL     1      -0.267   1.844   5.148  0.00  0.00    +0.256 A 
ATOM     22  N   UNL     1       0.961   1.711   5.594  0.00  0.00    -0.106 NA
ATOM     23  N   UNL     1       0.993   1.997   6.848  0.00  0.00    -0.101 NA
ATOM     24  C   UNL     1      -0.214   2.315   7.255  0.00  0.00    +0.278 A 
ATOM     25  O   UNL     1      -1.037   2.226   6.192  0.00  0.00    -0.410 OA
BRANCH  21  33
ATOM     26  C   UNL     1      -0.128   0.437  -2.307  0.00  0.00    +0.008 C 
ATOM     27  C   UNL     1      -0.764   1.010  -1.038  0.00  0.00    -0.009 C 
ATOM     28  C   UNL     1      -2.174   0.437  -0.873  0.00  0.00    +0.009 C 
ATOM     29  C   UNL     1      -2.894   1.213   0.240  0.00  0.00    +0.043 C 
ATOM     30  C   UNL     1      -1.975   1.311   1.416  0.00  0.00    -0.006 A 
ATOM     31  C   UNL     1      -0.631   1.067   1.444  0.00  0.00    -0.036 A 
ATOM     32  C   UNL     1       0.008   1.227   2.664  0.00  0.00    +0.024 A 
ATOM     33  C   UNL     1      -0.722   1.615   3.768  0.00  0.00    +0.076 A 
ATOM     34  S   UNL     1      -2.366   1.765   3.084  0.00  0.00    -0.088 S 
ATOM     35  C   UNL     1       0.097   0.642   0.171  0.00  0.00    +0.039 C 
ENDBRANCH  21  33
ENDBRANCH  20  24
ENDBRANCH  19  20
ENDBRANCH   1  19
TORSDOF 5
