REMARK  Name = ZINC43978139
REMARK  7 active torsions:
REMARK  status: ('A' for Active; 'I' for Inactive)
REMARK    1  A    between atoms: C_1  and  C_2
REMARK    2  A    between atoms: C_2  and  C_3
REMARK    3  A    between atoms: C_2  and  C_4
REMARK    4  A    between atoms: C_2  and  N_5
REMARK    5  A    between atoms: C_11  and  C_14
REMARK    6  A    between atoms: C_14  and  N_15
REMARK    7  A    between atoms: C_16  and  C_18
REMARK                            x       y       z     vdW  Elec       q    Type
REMARK                         _______ _______ _______ _____ _____    ______ ____
ROOT
ATOM      1  N   UNL     1       0.688  -0.477  -1.203  0.00  0.00    -0.294 N 
ATOM      2  C   UNL     1       1.972  -0.132  -1.427  0.00  0.00    +0.303 C 
ATOM      3  O   UNL     1       2.532   0.644  -0.678  0.00  0.00    -0.253 OA
ATOM      4  N   UNL     1       2.633  -0.647  -2.482  0.00  0.00    -0.286 N 
ATOM      5  C   UNL     1       1.938  -1.494  -3.461  0.00  0.00    +0.109 C 
ATOM      6  C   UNL     1       2.703  -2.813  -3.604  0.00  0.00    +0.024 C 
ATOM      7  C   UNL     1       4.163  -2.516  -3.954  0.00  0.00    +0.009 C 
ATOM      8  C   UNL     1       4.805  -1.705  -2.827  0.00  0.00    +0.024 C 
ATOM      9  C   UNL     1       4.063  -0.369  -2.678  0.00  0.00    +0.109 C 
ATOM     10  H   UNL     1       0.218  -1.038  -1.839  0.00  0.00    +0.151 HD
ENDROOT
BRANCH   1  12
ATOM     11  C   UNL     1      -0.019   1.525   0.011  0.00  0.00    +0.031 C 
ATOM     12  C   UNL     1       0.003  -0.005   0.003  0.00  0.00    +0.028 C 
ATOM     13  C   UNL     1       0.743  -0.511   1.242  0.00  0.00    +0.031 C 
ATOM     14  C   UNL     1      -1.433  -0.535   0.014  0.00  0.00    +0.031 C 
ENDBRANCH   1  12
BRANCH   7  15
ATOM     15  C   UNL     1       4.922  -3.833  -4.132  0.00  0.00    +0.108 C 
BRANCH  15  16
ATOM     16  N   UNL     1       6.288  -3.552  -4.583  0.00  0.00    -0.311 N 
ATOM     17  C   UNL     1       7.146  -4.567  -4.807  0.00  0.00    +0.244 C 
ATOM     18  O   UNL     1       6.786  -5.715  -4.635  0.00  0.00    -0.270 OA
ATOM     19  H   UNL     1       6.574  -2.635  -4.721  0.00  0.00    +0.149 HD
BRANCH  17  20
ATOM     20  C   UNL     1       8.522  -4.284  -5.262  0.00  0.00    +0.037 A 
ATOM     21  C   UNL     1       8.939  -2.965  -5.456  0.00  0.00    +0.016 A 
ATOM     22  C   UNL     1      10.224  -2.706  -5.880  0.00  0.00    +0.039 A 
ATOM     23  C   UNL     1      11.103  -3.752  -6.116  0.00  0.00    +0.123 A 
ATOM     24  C   UNL     1      10.694  -5.064  -5.926  0.00  0.00    +0.039 A 
ATOM     25  C   UNL     1       9.413  -5.333  -5.495  0.00  0.00    +0.016 A 
ATOM     26  F   UNL     1      12.362  -3.494  -6.533  0.00  0.00    -0.205 F 
ENDBRANCH  17  20
ENDBRANCH  15  16
ENDBRANCH   7  15
TORSDOF 4
