REMARK  Name = ZINC01178696
REMARK  6 active torsions:
REMARK  status: ('A' for Active; 'I' for Inactive)
REMARK    1  A    between atoms: C_8  and  C_10
REMARK    2  A    between atoms: N_12  and  C_13
REMARK    3  A    between atoms: C_13  and  N_15
REMARK    4  A    between atoms: N_15  and  C_16
REMARK    5  A    between atoms: C_19  and  N_22
REMARK    6  A    between atoms: C_23  and  C_25
REMARK                            x       y       z     vdW  Elec       q    Type
REMARK                         _______ _______ _______ _____ _____    ______ ____
ROOT
ATOM      1  N   UNL     1       7.219  -4.255  -0.049  0.00  0.00    -0.297 N 
ATOM      2  H   UNL     1       6.420  -4.228  -0.598  0.00  0.00    +0.154 HD
ENDROOT
BRANCH   1   3
ATOM      3  C   UNL     1       8.087  -5.352  -0.129  0.00  0.00    +0.033 A 
ATOM      4  C   UNL     1       7.572  -6.639  -0.222  0.00  0.00    +0.025 A 
ATOM      5  C   UNL     1       8.427  -7.720  -0.301  0.00  0.00    +0.025 A 
ATOM      6  C   UNL     1       9.802  -7.520  -0.286  0.00  0.00    +0.034 A 
ATOM      7  C   UNL     1      10.316  -6.234  -0.193  0.00  0.00    +0.025 A 
ATOM      8  C   UNL     1       9.461  -5.152  -0.120  0.00  0.00    +0.025 A 
BRANCH   6   9
ATOM      9  N   UNL     1      10.669  -8.617  -0.365  0.00  0.00    -0.281 N 
ATOM     10  C   UNL     1      10.333  -9.689  -1.109  0.00  0.00    +0.255 C 
ATOM     11  O   UNL     1       9.242  -9.739  -1.647  0.00  0.00    -0.269 OA
ATOM     12  H   UNL     1      11.512  -8.604   0.115  0.00  0.00    +0.155 HD
BRANCH  10  13
ATOM     13  C   UNL     1      11.281 -10.796  -1.270  0.00  0.00    +0.074 A 
ATOM     14  C   UNL     1      11.136 -11.973  -1.988  0.00  0.00    +0.021 A 
ATOM     15  C   UNL     1      12.210 -12.830  -1.951  0.00  0.00    +0.008 A 
ATOM     16  C   UNL     1      13.309 -12.480  -1.237  0.00  0.00    +0.046 A 
ATOM     17  S   UNL     1      12.923 -10.975  -0.599  0.00  0.00    -0.092 S 
ENDBRANCH  10  13
ENDBRANCH   6   9
ENDBRANCH   1   3
BRANCH   1  18
ATOM     18  C   UNL     1       7.495  -3.238   0.791  0.00  0.00    +0.141 C 
ATOM     19  S   UNL     1       8.824  -3.350   1.864  0.00  0.00    -0.018 S 
BRANCH  18  22
ATOM     20  C   UNL     1       6.999  -1.115   1.626  0.00  0.00    +0.285 C 
ATOM     21  O   UNL     1       7.943  -1.194   2.389  0.00  0.00    -0.266 OA
ATOM     22  N   UNL     1       6.723  -2.132   0.786  0.00  0.00    -0.261 N 
ATOM     23  H   UNL     1       5.970  -2.069   0.178  0.00  0.00    +0.157 HD
BRANCH  20  31
ATOM     24  C   UNL     1       3.843   4.024   1.971  0.00  0.00    +0.001 A 
ATOM     25  C   UNL     1       3.101   3.411   0.970  0.00  0.00    +0.004 A 
ATOM     26  C   UNL     1       3.437   2.155   0.513  0.00  0.00    +0.047 A 
ATOM     27  C   UNL     1       4.531   1.490   1.056  0.00  0.00    +0.136 A 
ATOM     28  C   UNL     1       5.279   2.117   2.070  0.00  0.00    +0.021 A 
ATOM     29  C   UNL     1       4.922   3.390   2.520  0.00  0.00    +0.011 A 
ATOM     30  C   UNL     1       6.340   1.173   2.420  0.00  0.00    +0.063 A 
ATOM     31  C   UNL     1       6.159   0.089   1.621  0.00  0.00    +0.191 A 
ATOM     32  O   UNL     1       5.089   0.287   0.822  0.00  0.00    -0.450 OA
ENDBRANCH  20  31
ENDBRANCH  18  22
ENDBRANCH   1  18
TORSDOF 6
