REMARK  Name = ZINC14548204
REMARK  7 active torsions:
REMARK  status: ('A' for Active; 'I' for Inactive)
REMARK    1  A    between atoms: C_4  and  O_7
REMARK    2  A    between atoms: O_7  and  C_8
REMARK    3  A    between atoms: C_8  and  C_9
REMARK    4  A    between atoms: C_9  and  O_10
REMARK    5  A    between atoms: O_10  and  C_11
REMARK    6  A    between atoms: C_18  and  C_27
REMARK    7  A    between atoms: C_36  and  O_37
REMARK                            x       y       z     vdW  Elec       q    Type
REMARK                         _______ _______ _______ _____ _____    ______ ____
ROOT
ATOM      1  C   UNL     1       7.118  -2.439  -1.469  0.00  0.00    +0.142 A 
ATOM      2  C   UNL     1       8.082  -2.588  -0.490  0.00  0.00    +0.047 A 
ATOM      3  C   UNL     1       9.120  -3.485  -0.668  0.00  0.00    +0.004 A 
ATOM      4  C   UNL     1       9.199  -4.216  -1.838  0.00  0.00    +0.006 A 
ATOM      5  C   UNL     1       8.250  -4.064  -2.827  0.00  0.00    -0.016 A 
ATOM      6  C   UNL     1       7.183  -3.180  -2.655  0.00  0.00    +0.074 A 
ATOM      7  N   UNL     1       6.157  -3.002  -3.585  0.00  0.00    -0.334 N 
ATOM      8  C   UNL     1       6.291  -3.705  -4.847  0.00  0.00    +0.109 C 
ATOM      9  C   UNL     1       6.868  -5.077  -4.565  0.00  0.00    +0.029 C 
ATOM     10  C   UNL     1       8.333  -4.803  -4.105  0.00  0.00    +0.049 C 
ATOM     11  C   UNL     1       8.977  -6.134  -4.221  0.00  0.00    -0.023 C 
ATOM     12  C   UNL     1       8.355  -6.823  -5.172  0.00  0.00    -0.030 C 
ATOM     13  C   UNL     1       7.203  -5.995  -5.746  0.00  0.00    +0.033 C 
ATOM     14  H   UNL     1       5.256  -3.184  -3.170  0.00  0.00    +0.147 HD
ENDROOT
BRANCH   8  15
ATOM     15  C   UNL     1       4.944  -3.841  -5.508  0.00  0.00    +0.022 A 
ATOM     16  C   UNL     1       4.783  -3.498  -6.861  0.00  0.00    -0.009 A 
ATOM     17  C   UNL     1       5.865  -3.036  -7.629  0.00  0.00    +0.009 A 
ATOM     18  C   UNL     1       5.674  -2.719  -8.939  0.00  0.00    +0.001 A 
ATOM     19  C   UNL     1       4.420  -2.849  -9.533  0.00  0.00    +0.001 A 
ATOM     20  C   UNL     1       3.351  -3.299  -8.822  0.00  0.00    +0.008 A 
ATOM     21  C   UNL     1       3.509  -3.636  -7.467  0.00  0.00    -0.017 A 
ATOM     22  C   UNL     1       2.426  -4.104  -6.701  0.00  0.00    +0.012 A 
ATOM     23  C   UNL     1       2.614  -4.422  -5.393  0.00  0.00    +0.046 A 
ATOM     24  C   UNL     1       3.871  -4.292  -4.794  0.00  0.00    +0.122 A 
BRANCH  24  25
ATOM     25  O   UNL     1       4.027  -4.619  -3.484  0.00  0.00    -0.506 OA
ATOM     26  H   UNL     1       3.785  -3.912  -2.870  0.00  0.00    +0.292 HD
ENDBRANCH  24  25
ENDBRANCH   8  15
BRANCH   1  27
ATOM     27  O   UNL     1       6.099  -1.559  -1.280  0.00  0.00    -0.487 OA
BRANCH  27  28
ATOM     28  C   UNL     1       6.088  -0.833  -0.050  0.00  0.00    +0.270 C 
BRANCH  28  29
ATOM     29  C   UNL     1       4.876   0.101  -0.019  0.00  0.00    +0.270 C 
BRANCH  29  30
ATOM     30  O   UNL     1       3.677  -0.676  -0.010  0.00  0.00    -0.489 OA
BRANCH  30  34
ATOM     31  C   UNL     1       0.107   1.391   0.072  0.00  0.00    +0.000 A 
ATOM     32  C   UNL     1       1.305   2.082   0.062  0.00  0.00    +0.004 A 
ATOM     33  C   UNL     1       2.502   1.392   0.035  0.00  0.00    +0.045 A 
ATOM     34  C   UNL     1       2.501   0.005   0.017  0.00  0.00    +0.121 A 
ATOM     35  C   UNL     1       1.298  -0.686   0.027  0.00  0.00    +0.045 A 
ATOM     36  C   UNL     1       0.104   0.009   0.054  0.00  0.00    +0.004 A 
ENDBRANCH  30  34
ENDBRANCH  29  30
ENDBRANCH  28  29
ENDBRANCH  27  28
ENDBRANCH   1  27
TORSDOF 7
