REMARK  Name = ZINC62843405
REMARK  5 active torsions:
REMARK  status: ('A' for Active; 'I' for Inactive)
REMARK    1  A    between atoms: C_1  and  C_2
REMARK    2  A    between atoms: C_2  and  N_3
REMARK    3  A    between atoms: N_3  and  C_4
REMARK    4  A    between atoms: C_15  and  C_18
REMARK    5  A    between atoms: C_15  and  C_19
REMARK                            x       y       z     vdW  Elec       q    Type
REMARK                         _______ _______ _______ _____ _____    ______ ____
ROOT
ATOM      1  N   UNL     1       0.906  -0.841   1.111  0.00  0.00    -0.283 N 
ATOM      2  C   UNL     1       1.881   0.076   0.952  0.00  0.00    +0.305 C 
ATOM      3  O   UNL     1       2.007   0.651  -0.113  0.00  0.00    -0.252 OA
ATOM      4  N   UNL     1       2.715   0.357   1.972  0.00  0.00    -0.285 N 
ATOM      5  C   UNL     1       2.303   0.123   3.363  0.00  0.00    +0.110 C 
ATOM      6  C   UNL     1       2.496   1.417   4.159  0.00  0.00    +0.037 C 
ATOM      7  C   UNL     1       3.941   1.896   4.004  0.00  0.00    +0.072 C 
ATOM      8  C   UNL     1       4.228   2.189   2.530  0.00  0.00    +0.037 C 
ATOM      9  C   UNL     1       4.057   0.898   1.715  0.00  0.00    +0.110 C 
ATOM     10  C   UNL     1       4.895   0.809   4.503  0.00  0.00    +0.023 C 
ENDROOT
BRANCH   1  11
ATOM     11  C   UNL     1       0.016  -0.770   2.272  0.00  0.00    +0.074 C 
ATOM     12  C   UNL     1      -0.012   0.664   2.809  0.00  0.00    +0.003 C 
ATOM     13  C   UNL     1      -0.880   0.715   4.067  0.00  0.00    -0.081 C 
ATOM     14  N   UNL     1      -0.322  -0.180   5.088  0.00  0.00    +0.379 N 
ATOM     15  C   UNL     1      -0.359  -1.567   4.608  0.00  0.00    -0.081 C 
ATOM     16  C   UNL     1       0.530  -1.706   3.370  0.00  0.00    +0.003 C 
ATOM     17  H   UNL     1       0.633   0.083   5.279  0.00  0.00    -0.086 HD
ATOM     18  H   UNL     1      -0.866  -0.104   5.935  0.00  0.00    -0.086 HD
ENDBRANCH   1  11
BRANCH   7  19
ATOM     19  C   UNL     1       4.143   3.151   4.814  0.00  0.00    +0.362 C 
ATOM     20  O   UNL     1       5.239   3.401   5.286  0.00  0.00    -0.246 OA
ATOM     21  O   UNL     1       3.212   3.916   4.996  0.00  0.00    -0.246 OA
ENDBRANCH   7  19
BRANCH   1  23
ATOM     22  C   UNL     1      -0.373  -1.529  -0.856  0.00  0.00    +0.024 C 
ATOM     23  C   UNL     1       0.738  -1.910   0.123  0.00  0.00    +0.106 C 
ENDBRANCH   1  23
TORSDOF 3
