REMARK  Name = ZINC41311038
REMARK  5 active torsions:
REMARK  status: ('A' for Active; 'I' for Inactive)
REMARK    1  A    between atoms: C_1  and  C_2
REMARK    2  A    between atoms: N_7  and  S_9
REMARK    3  A    between atoms: S_9  and  C_12
REMARK    4  A    between atoms: C_15  and  N_18
REMARK    5  A    between atoms: C_19  and  C_21
REMARK                            x       y       z     vdW  Elec       q    Type
REMARK                         _______ _______ _______ _____ _____    ______ ____
ROOT
ATOM      1  C   UNL     1       1.719  -3.144   3.483  0.00  0.00    +0.106 A 
ATOM      2  C   UNL     1       2.489  -4.290   3.403  0.00  0.00    +0.030 A 
ATOM      3  C   UNL     1       3.554  -4.469   4.263  0.00  0.00    +0.025 A 
ATOM      4  C   UNL     1       3.853  -3.496   5.208  0.00  0.00    +0.034 A 
ATOM      5  C   UNL     1       3.078  -2.346   5.285  0.00  0.00    +0.025 A 
ATOM      6  C   UNL     1       2.016  -2.171   4.419  0.00  0.00    +0.030 A 
ENDROOT
BRANCH   4   7
ATOM      7  N   UNL     1       4.931  -3.674   6.080  0.00  0.00    -0.279 N 
ATOM      8  C   UNL     1       4.870  -3.188   7.336  0.00  0.00    +0.284 C 
ATOM      9  O   UNL     1       3.842  -2.680   7.742  0.00  0.00    -0.266 OA
ATOM     10  H   UNL     1       5.724  -4.147   5.782  0.00  0.00    +0.155 HD
BRANCH   8  11
ATOM     11  C   UNL     1       6.045  -3.272   8.215  0.00  0.00    +0.191 A 
ATOM     12  C   UNL     1       6.096  -2.823   9.495  0.00  0.00    +0.063 A 
ATOM     13  C   UNL     1       7.447  -3.115   9.973  0.00  0.00    +0.022 A 
ATOM     14  C   UNL     1       8.120  -2.907  11.180  0.00  0.00    +0.031 A 
ATOM     15  C   UNL     1       9.420  -3.308  11.309  0.00  0.00    +0.042 A 
ATOM     16  C   UNL     1      10.076  -3.922  10.248  0.00  0.00    +0.023 A 
ATOM     17  C   UNL     1       9.429  -4.136   9.050  0.00  0.00    +0.048 A 
ATOM     18  C   UNL     1       8.107  -3.736   8.896  0.00  0.00    +0.136 A 
ATOM     19  O   UNL     1       7.233  -3.813   7.873  0.00  0.00    -0.450 OA
ATOM     20 CL   UNL     1      10.258  -3.050  12.807  0.00  0.00    -0.084 Cl
ENDBRANCH   8  11
ENDBRANCH   4   7
BRANCH   1  21
ATOM     21  S   UNL     1       0.360  -2.920   2.384  0.00  0.00    +0.061 S 
ATOM     22  O   UNL     1      -0.531  -2.013   3.019  0.00  0.00    -0.153 OA
ATOM     23  O   UNL     1      -0.044  -4.217   1.967  0.00  0.00    -0.153 OA
BRANCH  21  29
ATOM     24  C   UNL     1       0.360   1.270  -0.481  0.00  0.00    +0.009 C 
ATOM     25  C   UNL     1       0.237  -0.246  -0.317  0.00  0.00    +0.002 C 
ATOM     26  C   UNL     1       0.878  -0.943  -1.520  0.00  0.00    +0.006 C 
ATOM     27  C   UNL     1       0.726  -2.459  -1.373  0.00  0.00    +0.017 C 
ATOM     28  C   UNL     1       1.450  -2.920  -0.104  0.00  0.00    +0.109 C 
ATOM     29  N   UNL     1       0.941  -2.150   1.038  0.00  0.00    -0.176 NA
ATOM     30  C   UNL     1       0.955  -0.682   0.964  0.00  0.00    +0.112 C 
ENDBRANCH  21  29
ENDBRANCH   1  21
TORSDOF 4
