REMARK  Name = ZINC10043839
REMARK  9 active torsions:
REMARK  status: ('A' for Active; 'I' for Inactive)
REMARK    1  A    between atoms: C_1  and  C_2
REMARK    2  A    between atoms: C_2  and  N_3
REMARK    3  A    between atoms: N_3  and  C_4
REMARK    4  A    between atoms: N_3  and  C_15
REMARK    5  A    between atoms: C_4  and  C_5
REMARK    6  A    between atoms: N_7  and  C_8
REMARK    7  A    between atoms: C_16  and  N_31
REMARK    8  A    between atoms: N_17  and  C_24
REMARK    9  A    between atoms: C_24  and  C_25
REMARK                            x       y       z     vdW  Elec       q    Type
REMARK                         _______ _______ _______ _____ _____    ______ ____
ROOT
ATOM      1  C   UNL     1      -0.040   1.472  -0.003  0.00  0.00    +0.134 A 
ATOM      2  C   UNL     1       1.036   2.302  -0.166  0.00  0.00    +0.127 A 
ATOM      3  N   UNL     1       2.306   1.772  -0.144  0.00  0.00    -0.276 N 
ATOM      4  C   UNL     1       2.490   0.452   0.038  0.00  0.00    +0.331 A 
ATOM      5  O   UNL     1       3.619   0.001   0.054  0.00  0.00    -0.246 OA
ATOM      6  N   UNL     1       1.444  -0.378   0.200  0.00  0.00    -0.273 N 
ATOM      7  H   UNL     1       1.603  -1.357   0.334  0.00  0.00    +0.173 HD
ATOM      8  C   UNL     1       0.182   0.096   0.185  0.00  0.00    +0.277 A 
ATOM      9  O   UNL     1      -0.761  -0.663   0.334  0.00  0.00    -0.266 OA
ENDROOT
BRANCH   2  10
ATOM     10  N   UNL     1       0.850   3.652  -0.352  0.00  0.00    -0.343 N 
ATOM     11  H   UNL     1      -0.048   4.021  -0.368  0.00  0.00    +0.144 HD
ATOM     12  H   UNL     1       1.615   4.236  -0.468  0.00  0.00    +0.144 HD
ENDBRANCH   2  10
BRANCH   1  13
ATOM     13  N   UNL     1      -1.356   1.990  -0.028  0.00  0.00    -0.315 N 
BRANCH  13  15
ATOM     14  C   UNL     1      -1.718   1.998  -2.450  0.00  0.00    +0.024 C 
ATOM     15  C   UNL     1      -2.139   1.384  -1.113  0.00  0.00    +0.102 C 
ENDBRANCH  13  15
BRANCH  13  16
ATOM     16  C   UNL     1      -2.020   1.802   1.269  0.00  0.00    +0.201 C 
BRANCH  16  17
ATOM     17  C   UNL     1      -3.230   2.697   1.348  0.00  0.00    +0.235 C 
ATOM     18  O   UNL     1      -3.451   3.498   0.464  0.00  0.00    -0.274 OA
ATOM     19  N   UNL     1      -4.066   2.608   2.401  0.00  0.00    -0.283 N 
ATOM     20  H   UNL     1      -3.851   2.023   3.144  0.00  0.00    +0.155 HD
BRANCH  19  21
ATOM     21  C   UNL     1      -5.246   3.362   2.424  0.00  0.00    +0.047 A 
ATOM     22  C   UNL     1      -5.314   4.568   1.739  0.00  0.00    +0.024 A 
ATOM     23  C   UNL     1      -6.480   5.307   1.760  0.00  0.00    +0.002 A 
ATOM     24  C   UNL     1      -7.577   4.852   2.469  0.00  0.00    +0.001 A 
ATOM     25  C   UNL     1      -7.512   3.654   3.155  0.00  0.00    +0.017 A 
ATOM     26  C   UNL     1      -6.349   2.907   3.135  0.00  0.00    +0.039 A 
ATOM     27 BR   UNL     1      -6.259   1.269   4.075  0.00  0.00    -0.048 Br
ENDBRANCH  19  21
ENDBRANCH  16  17
ENDBRANCH  13  16
ENDBRANCH   1  13
BRANCH   3  28
ATOM     28  C   UNL     1       3.465   2.651  -0.319  0.00  0.00    +0.163 C 
BRANCH  28  29
ATOM     29  C   UNL     1       3.803   2.751  -1.785  0.00  0.00    -0.028 A 
ATOM     30  C   UNL     1       4.693   1.858  -2.351  0.00  0.00    +0.005 A 
ATOM     31  C   UNL     1       4.999   1.946  -3.696  0.00  0.00    +0.000 A 
ATOM     32  C   UNL     1       4.424   2.934  -4.472  0.00  0.00    +0.000 A 
ATOM     33  C   UNL     1       3.538   3.831  -3.905  0.00  0.00    +0.000 A 
ATOM     34  C   UNL     1       3.227   3.739  -2.561  0.00  0.00    +0.005 A 
ENDBRANCH  28  29
ENDBRANCH   3  28
TORSDOF 8
