REMARK  Name = ZINC06015011
REMARK  14 active torsions:
REMARK  status: ('A' for Active; 'I' for Inactive)
REMARK    1  A    between atoms: C_1  and  C_2
REMARK    2  A    between atoms: C_2  and  C_3
REMARK    3  A    between atoms: C_2  and  C_4
REMARK    4  A    between atoms: C_2  and  N_5
REMARK    5  A    between atoms: C_6  and  C_10
REMARK    6  A    between atoms: C_10  and  C_12
REMARK    7  A    between atoms: C_10  and  N_70
REMARK    8  A    between atoms: C_16  and  O_24
REMARK    9  A    between atoms: O_24  and  C_25
REMARK   10  A    between atoms: C_26  and  C_27
REMARK   11  A    between atoms: C_26  and  N_70
REMARK   12  A    between atoms: C_27  and  C_28
REMARK   13  A    between atoms: C_34  and  C_35
REMARK   14  A    between atoms: C_34  and  N_70
REMARK                            x       y       z     vdW  Elec       q    Type
REMARK                         _______ _______ _______ _____ _____    ______ ____
ROOT
ATOM      1  C   UNL     1      -0.222   1.211  -0.568  0.00  0.00    +0.039 C 
ENDROOT
BRANCH   1   2
ATOM      2  C   UNL     1      -0.312   2.668  -0.196  0.00  0.00    +0.011 A 
ATOM      3  C   UNL     1      -1.518   3.220   0.086  0.00  0.00    +0.017 A 
ATOM      4  C   UNL     1      -1.572   4.637   0.449  0.00  0.00    +0.002 A 
ATOM      5  C   UNL     1      -2.787   5.258   0.756  0.00  0.00    +0.055 A 
ATOM      6  C   UNL     1      -2.803   6.598   1.089  0.00  0.00    +0.121 A 
ATOM      7  C   UNL     1      -1.617   7.328   1.120  0.00  0.00    +0.047 A 
ATOM      8  C   UNL     1      -0.414   6.728   0.820  0.00  0.00    +0.030 A 
ATOM      9  C   UNL     1      -0.376   5.379   0.482  0.00  0.00    +0.049 A 
ATOM     10  N   UNL     1       0.819   4.759   0.179  0.00  0.00    -0.322 N 
ATOM     11  H   UNL     1       1.668   5.287   0.202  0.00  0.00    +0.169 HD
ATOM     12  C   UNL     1       0.858   3.456  -0.148  0.00  0.00    +0.251 A 
ATOM     13  O   UNL     1       1.932   2.941  -0.410  0.00  0.00    -0.268 OA
BRANCH   6  14
ATOM     14  O   UNL     1      -3.981   7.207   1.387  0.00  0.00    -0.495 OA
ATOM     15  C   UNL     1      -3.926   8.595   1.724  0.00  0.00    +0.277 C 
ENDBRANCH   6  14
ENDBRANCH   1   2
BRANCH   1  17
ATOM     16  N   UNL     1      -0.500   0.735  -3.059  0.00  0.00    -0.225 N 
ATOM     17  C   UNL     1       0.247   1.085  -1.995  0.00  0.00    +0.143 A 
ATOM     18  N   UNL     1       1.460   1.300  -2.442  0.00  0.00    -0.115 NA
ATOM     19  N   UNL     1       1.460   1.086  -3.713  0.00  0.00    -0.023 NA
ATOM     20  N   UNL     1       0.277   0.747  -4.089  0.00  0.00    -0.043 NA
BRANCH  16  22
ATOM     21  C   UNL     1      -2.717   1.564  -2.443  0.00  0.00    +0.036 C 
ATOM     22  C   UNL     1      -1.927   0.402  -3.048  0.00  0.00    +0.059 C 
ATOM     23  C   UNL     1      -2.403   0.152  -4.481  0.00  0.00    +0.036 C 
ATOM     24  C   UNL     1      -2.150  -0.858  -2.210  0.00  0.00    +0.036 C 
ENDBRANCH  16  22
ENDBRANCH   1  17
BRANCH   1  25
ATOM     25  N   UNL     1       0.759   0.547   0.317  0.00  0.00    +0.392 N 
ATOM     26  H   UNL     1       1.692   0.931   0.128  0.00  0.00    -0.080 HD
BRANCH  25  27
ATOM     27  C   UNL     1       0.776  -0.907   0.051  0.00  0.00    -0.072 C 
BRANCH  27  28
ATOM     28  C   UNL     1       1.643  -1.169  -1.182  0.00  0.00    +0.016 C 
BRANCH  28  29
ATOM     29  C   UNL     1       1.827  -2.654  -1.361  0.00  0.00    -0.049 A 
ATOM     30  C   UNL     1       2.897  -3.294  -0.765  0.00  0.00    +0.003 A 
ATOM     31  C   UNL     1       3.063  -4.657  -0.924  0.00  0.00    +0.000 A 
ATOM     32  C   UNL     1       2.165  -5.378  -1.688  0.00  0.00    +0.000 A 
ATOM     33  C   UNL     1       1.098  -4.737  -2.289  0.00  0.00    +0.000 A 
ATOM     34  C   UNL     1       0.929  -3.375  -2.125  0.00  0.00    +0.003 A 
ENDBRANCH  28  29
ENDBRANCH  27  28
ENDBRANCH  25  27
BRANCH  25  35
ATOM     35  C   UNL     1       0.413   0.798   1.732  0.00  0.00    -0.034 C 
BRANCH  35  36
ATOM     36  C   UNL     1       1.599   0.442   2.590  0.00  0.00    -0.027 A 
ATOM     37  C   UNL     1       2.601   1.239   3.036  0.00  0.00    +0.009 A 
ATOM     38  C   UNL     1       3.596   0.689   3.821  0.00  0.00    +0.008 A 
ATOM     39  C   UNL     1       3.541  -0.631   4.123  0.00  0.00    +0.045 A 
ATOM     40  S   UNL     1       2.045  -1.139   3.291  0.00  0.00    -0.103 S 
ENDBRANCH  35  36
ENDBRANCH  25  35
ENDBRANCH   1  25
TORSDOF 10
