REMARK  Name = ZINC08606553
REMARK  8 active torsions:
REMARK  status: ('A' for Active; 'I' for Inactive)
REMARK    1  A    between atoms: C_1  and  O_2
REMARK    2  A    between atoms: O_2  and  C_3
REMARK    3  A    between atoms: C_6  and  C_9
REMARK    4  A    between atoms: C_9  and  C_10
REMARK    5  A    between atoms: C_10  and  N_11
REMARK    6  A    between atoms: C_12  and  C_29
REMARK    7  A    between atoms: C_15  and  C_22
REMARK    8  A    between atoms: C_27  and  O_28
REMARK                            x       y       z     vdW  Elec       q    Type
REMARK                         _______ _______ _______ _____ _____    ______ ____
ROOT
ATOM      1  N   UNL     1       4.636  -3.373  -5.207  0.00  0.00    -0.285 N 
ATOM      2  C   UNL     1       4.757  -4.821  -5.417  0.00  0.00    +0.141 C 
ATOM      3  C   UNL     1       5.497  -4.993  -6.716  0.00  0.00    +0.035 A 
ATOM      4  C   UNL     1       6.035  -5.875  -7.659  0.00  0.00    +0.102 A 
ATOM      5  N   UNL     1       6.579  -5.148  -8.614  0.00  0.00    -0.173 NA
ATOM      6  N   UNL     1       6.438  -3.894  -8.368  0.00  0.00    -0.272 N 
ATOM      7  H   UNL     1       6.760  -3.175  -8.934  0.00  0.00    +0.189 HD
ATOM      8  C   UNL     1       5.767  -3.724  -7.190  0.00  0.00    +0.126 A 
ATOM      9  C   UNL     1       5.221  -2.745  -6.243  0.00  0.00    +0.265 C 
ATOM     10  O   UNL     1       5.289  -1.538  -6.375  0.00  0.00    -0.268 OA
ENDROOT
BRANCH   4  11
ATOM     11  C   UNL     1       6.001  -7.358  -7.595  0.00  0.00    +0.044 A 
ATOM     12  C   UNL     1       5.384  -7.997  -6.523  0.00  0.00    +0.014 A 
ATOM     13  C   UNL     1       5.354  -9.376  -6.468  0.00  0.00    +0.001 A 
ATOM     14  C   UNL     1       5.935 -10.126  -7.475  0.00  0.00    +0.004 A 
ATOM     15  C   UNL     1       6.550  -9.501  -8.544  0.00  0.00    +0.046 A 
ATOM     16  C   UNL     1       6.582  -8.118  -8.614  0.00  0.00    +0.126 A 
BRANCH  16  17
ATOM     17  O   UNL     1       7.181  -7.502  -9.666  0.00  0.00    -0.506 OA
ATOM     18  H   UNL     1       8.122  -7.323  -9.534  0.00  0.00    +0.292 HD
ENDBRANCH  16  17
ENDBRANCH   4  11
BRANCH   2  19
ATOM     19  C   UNL     1       5.536  -5.447  -4.288  0.00  0.00    -0.022 A 
ATOM     20  C   UNL     1       6.637  -4.795  -3.765  0.00  0.00    +0.006 A 
ATOM     21  C   UNL     1       7.351  -5.369  -2.729  0.00  0.00    +0.000 A 
ATOM     22  C   UNL     1       6.964  -6.593  -2.217  0.00  0.00    +0.000 A 
ATOM     23  C   UNL     1       5.862  -7.244  -2.741  0.00  0.00    +0.000 A 
ATOM     24  C   UNL     1       5.145  -6.668  -3.773  0.00  0.00    +0.006 A 
ENDBRANCH   2  19
BRANCH   1  25
ATOM     25  C   UNL     1       3.986  -2.723  -4.066  0.00  0.00    +0.114 C 
BRANCH  25  26
ATOM     26  C   UNL     1       2.505  -2.503  -4.381  0.00  0.00    +0.054 C 
BRANCH  26  30
ATOM     27  C   UNL     1       0.606  -0.607  -1.056  0.00  0.00    +0.120 A 
ATOM     28  C   UNL     1       1.173   0.161  -2.062  0.00  0.00    +0.046 A 
ATOM     29  C   UNL     1       1.786  -0.455  -3.136  0.00  0.00    +0.007 A 
ATOM     30  C   UNL     1       1.835  -1.835  -3.209  0.00  0.00    -0.046 A 
ATOM     31  C   UNL     1       1.270  -2.602  -2.207  0.00  0.00    +0.007 A 
ATOM     32  C   UNL     1       0.661  -1.992  -1.128  0.00  0.00    +0.046 A 
BRANCH  27  34
ATOM     33  C   UNL     1      -0.017   1.425   0.010  0.00  0.00    +0.277 C 
ATOM     34  O   UNL     1       0.002  -0.004   0.002  0.00  0.00    -0.495 OA
ENDBRANCH  27  34
ENDBRANCH  26  30
ENDBRANCH  25  26
ENDBRANCH   1  25
TORSDOF 7
