REMARK  Name = ZINC39481899
REMARK  8 active torsions:
REMARK  status: ('A' for Active; 'I' for Inactive)
REMARK    1  A    between atoms: C_4  and  C_7
REMARK    2  A    between atoms: C_7  and  C_8
REMARK    3  A    between atoms: N_11  and  C_15
REMARK    4  A    between atoms: C_17  and  C_32
REMARK    5  A    between atoms: C_20  and  N_21
REMARK    6  A    between atoms: N_21  and  S_22
REMARK    7  A    between atoms: S_22  and  C_25
REMARK    8  A    between atoms: C_30  and  O_31
REMARK                            x       y       z     vdW  Elec       q    Type
REMARK                         _______ _______ _______ _____ _____    ______ ____
ROOT
ATOM      1  C   UNL     1       6.847  -2.279   3.812  0.00  0.00    +0.053 A 
ATOM      2  C   UNL     1       6.779  -1.237   4.721  0.00  0.00    +0.033 A 
ATOM      3  C   UNL     1       7.937  -0.794   5.357  0.00  0.00    -0.016 A 
ATOM      4  C   UNL     1       9.160  -1.400   5.078  0.00  0.00    +0.010 A 
ATOM      5  C   UNL     1       9.226  -2.439   4.171  0.00  0.00    +0.027 A 
ATOM      6  C   UNL     1       8.074  -2.886   3.540  0.00  0.00    +0.069 A 
ENDROOT
BRANCH   1   9
ATOM      7  C   UNL     1       3.781  -1.750   2.004  0.00  0.00    -0.050 C 
ATOM      8  C   UNL     1       5.257  -2.147   1.889  0.00  0.00    +0.089 C 
ATOM      9  N   UNL     1       5.685  -2.727   3.171  0.00  0.00    -0.332 N 
ATOM     10  C   UNL     1       4.859  -3.792   3.761  0.00  0.00    +0.086 C 
ATOM     11  C   UNL     1       3.402  -3.317   3.788  0.00  0.00    -0.063 C 
ATOM     12  N   UNL     1       2.995  -2.912   2.436  0.00  0.00    +0.383 N 
ATOM     13  H   UNL     1       2.015  -2.672   2.439  0.00  0.00    -0.085 HD
ATOM     14  H   UNL     1       3.149  -3.678   1.796  0.00  0.00    -0.085 HD
BRANCH   7  15
ATOM     15  C   UNL     1       3.275  -1.268   0.643  0.00  0.00    +0.021 C 
BRANCH  15  19
ATOM     16  C   UNL     1      -0.731   0.162   1.037  0.00  0.00    +0.000 A 
ATOM     17  C   UNL     1       0.333   1.029   1.208  0.00  0.00    +0.000 A 
ATOM     18  C   UNL     1       1.629   0.566   1.081  0.00  0.00    +0.003 A 
ATOM     19  C   UNL     1       1.862  -0.764   0.783  0.00  0.00    -0.049 A 
ATOM     20  C   UNL     1       0.798  -1.631   0.613  0.00  0.00    +0.003 A 
ATOM     21  C   UNL     1      -0.498  -1.167   0.739  0.00  0.00    +0.000 A 
ENDBRANCH  15  19
ENDBRANCH   7  15
ENDBRANCH   1   9
BRANCH   3  22
ATOM     22  C   UNL     1       7.868   0.323   6.332  0.00  0.00    -0.018 A 
ATOM     23  C   UNL     1       6.645   0.927   6.617  0.00  0.00    +0.008 A 
ATOM     24  C   UNL     1       6.586   1.966   7.524  0.00  0.00    +0.001 A 
ATOM     25  C   UNL     1       7.739   2.407   8.149  0.00  0.00    +0.000 A 
ATOM     26  C   UNL     1       8.955   1.811   7.870  0.00  0.00    +0.001 A 
ATOM     27  C   UNL     1       9.024   0.768   6.969  0.00  0.00    +0.008 A 
ENDBRANCH   3  22
BRANCH   6  28
ATOM     28  N   UNL     1       8.143  -3.942   2.625  0.00  0.00    -0.214 N 
ATOM     29  H   UNL     1       7.565  -3.949   1.847  0.00  0.00    +0.174 HD
BRANCH  28  30
ATOM     30  S   UNL     1       9.212  -5.182   2.873  0.00  0.00    +0.076 S 
ATOM     31  O   UNL     1       9.090  -5.559   4.237  0.00  0.00    -0.150 OA
ATOM     32  O   UNL     1       9.019  -6.104   1.808  0.00  0.00    -0.150 OA
BRANCH  30  33
ATOM     33  C   UNL     1      10.833  -4.519   2.677  0.00  0.00    +0.150 A 
ATOM     34  C   UNL     1      11.709  -4.508   3.745  0.00  0.00    +0.032 A 
ATOM     35  C   UNL     1      12.981  -3.987   3.592  0.00  0.00    +0.002 A 
ATOM     36  C   UNL     1      13.379  -3.478   2.370  0.00  0.00    +0.004 A 
ATOM     37  C   UNL     1      12.508  -3.487   1.299  0.00  0.00    +0.047 A 
ATOM     38  C   UNL     1      11.233  -4.014   1.448  0.00  0.00    +0.143 A 
BRANCH  38  39
ATOM     39  O   UNL     1      10.375  -4.030   0.394  0.00  0.00    -0.505 OA
ATOM     40  H   UNL     1       9.843  -3.227   0.308  0.00  0.00    +0.292 HD
ENDBRANCH  38  39
ENDBRANCH  30  33
ENDBRANCH  28  30
ENDBRANCH   6  28
TORSDOF 8
