REMARK  Name = ZINC02281228
REMARK  9 active torsions:
REMARK  status: ('A' for Active; 'I' for Inactive)
REMARK    1  A    between atoms: C_1  and  O_2
REMARK    2  A    between atoms: O_2  and  C_3
REMARK    3  A    between atoms: C_8  and  C_9
REMARK    4  A    between atoms: C_9  and  C_10
REMARK    5  A    between atoms: C_10  and  N_11
REMARK    6  A    between atoms: C_12  and  C_14
REMARK    7  A    between atoms: N_25  and  C_28
REMARK    8  A    between atoms: C_26  and  N_27
REMARK    9  A    between atoms: C_28  and  C_29
REMARK                            x       y       z     vdW  Elec       q    Type
REMARK                         _______ _______ _______ _____ _____    ______ ____
ROOT
ATOM      1  C   UNL     1       0.002  -0.004   0.002  0.00  0.00    +0.103 A 
ATOM      2  C   UNL     1       1.419  -0.402  -0.014  0.00  0.00    +0.122 A 
ATOM      3  C   UNL     1       2.175   0.854  -0.014  0.00  0.00    +0.162 A 
ATOM      4  N   UNL     1       3.490   0.817  -0.026  0.00  0.00    -0.226 NA
ATOM      5  C   UNL     1       4.125  -0.362  -0.039  0.00  0.00    +0.092 A 
ATOM      6  C   UNL     1       5.531  -0.410  -0.053  0.00  0.00    +0.030 A 
ATOM      7  C   UNL     1       6.167  -1.613  -0.065  0.00  0.00    +0.002 A 
ATOM      8  C   UNL     1       5.446  -2.805  -0.065  0.00  0.00    +0.002 A 
ATOM      9  C   UNL     1       4.086  -2.799  -0.052  0.00  0.00    +0.030 A 
ATOM     10  C   UNL     1       3.392  -1.575  -0.039  0.00  0.00    +0.090 A 
ATOM     11  N   UNL     1       2.053  -1.557  -0.026  0.00  0.00    -0.241 NA
ATOM     12  N   UNL     1       1.252   1.879   0.000  0.00  0.00    -0.308 N 
ATOM     13  C   UNL     1      -0.017   1.387   0.010  0.00  0.00    +0.113 A 
ENDROOT
BRANCH   1  15
ATOM     14  N   UNL     1      -1.680  -1.312   1.178  0.00  0.00    -0.311 N 
ATOM     15  C   UNL     1      -1.157  -0.894   0.008  0.00  0.00    +0.250 C 
ATOM     16  O   UNL     1      -1.649  -1.260  -1.044  0.00  0.00    -0.270 OA
ATOM     17  H   UNL     1      -1.287  -1.020   2.016  0.00  0.00    +0.149 HD
BRANCH  14  18
ATOM     18  C   UNL     1      -2.841  -2.204   1.185  0.00  0.00    +0.109 C 
BRANCH  18  19
ATOM     19  C   UNL     1      -3.232  -2.523   2.629  0.00  0.00    +0.057 C 
BRANCH  19  25
ATOM     20  C   UNL     1      -4.249  -4.812   2.522  0.00  0.00    +0.123 A 
ATOM     21  C   UNL     1      -5.351  -5.655   2.529  0.00  0.00    +0.046 A 
ATOM     22  C   UNL     1      -6.622  -5.127   2.649  0.00  0.00    +0.004 A 
ATOM     23  C   UNL     1      -6.796  -3.760   2.762  0.00  0.00    +0.000 A 
ATOM     24  C   UNL     1      -5.700  -2.919   2.761  0.00  0.00    +0.007 A 
ATOM     25  C   UNL     1      -4.427  -3.441   2.636  0.00  0.00    -0.004 A 
BRANCH  20  27
ATOM     26  C   UNL     1      -2.890  -6.749   2.292  0.00  0.00    +0.277 C 
ATOM     27  O   UNL     1      -2.998  -5.329   2.405  0.00  0.00    -0.495 OA
ENDBRANCH  20  27
ENDBRANCH  19  25
ENDBRANCH  18  19
ENDBRANCH  14  18
ENDBRANCH   1  15
BRANCH  13  28
ATOM     28  N   UNL     1      -1.153   2.153   0.019  0.00  0.00    -0.344 N 
ATOM     29  H   UNL     1      -2.025   1.727   0.022  0.00  0.00    +0.144 HD
ATOM     30  H   UNL     1      -1.085   3.120   0.024  0.00  0.00    +0.144 HD
ENDBRANCH  13  28
BRANCH  12  31
ATOM     31  C   UNL     1       1.591   3.304   0.004  0.00  0.00    +0.160 C 
BRANCH  31  32
ATOM     32  C   UNL     1       1.721   3.786   1.426  0.00  0.00    -0.028 A 
ATOM     33  C   UNL     1       0.618   4.289   2.090  0.00  0.00    +0.005 A 
ATOM     34  C   UNL     1       0.736   4.726   3.396  0.00  0.00    +0.000 A 
ATOM     35  C   UNL     1       1.960   4.670   4.035  0.00  0.00    +0.000 A 
ATOM     36  C   UNL     1       3.065   4.171   3.370  0.00  0.00    +0.000 A 
ATOM     37  C   UNL     1       2.946   3.729   2.066  0.00  0.00    +0.005 A 
ENDBRANCH  31  32
ENDBRANCH  12  31
TORSDOF 8
