REMARK  Name = ZINC04247075
REMARK  3 active torsions:
REMARK  status: ('A' for Active; 'I' for Inactive)
REMARK    1  A    between atoms: C_10  and  C_11
REMARK    2  A    between atoms: C_11  and  C_12
REMARK    3  A    between atoms: C_17  and  O_18
REMARK                            x       y       z     vdW  Elec       q    Type
REMARK                         _______ _______ _______ _____ _____    ______ ____
ROOT
ATOM      1  C   UNL     1       5.238   0.720   1.374  0.00  0.00    +0.222 C 
ATOM      2  O   UNL     1       4.390   0.767   2.248  0.00  0.00    -0.275 OA
ATOM      3  N   UNL     1       6.445   1.202   1.600  0.00  0.00    -0.285 N 
ATOM      4  C   UNL     1       6.787   1.625   2.848  0.00  0.00    +0.037 C 
ATOM      5  C   UNL     1       7.912   2.436   3.027  0.00  0.00    +0.069 C 
ATOM      6  C   UNL     1       8.257   2.863   4.293  0.00  0.00    +0.128 C 
ATOM      7  C   UNL     1       7.472   2.477   5.397  0.00  0.00    +0.044 C 
ATOM      8  C   UNL     1       7.830   2.926   6.743  0.00  0.00    +0.081 C 
ATOM      9  N   UNL     1       8.864   3.708   7.104  0.00  0.00    -0.308 N 
ATOM     10  C   UNL     1       9.056   4.036   8.430  0.00  0.00    +0.046 A 
ATOM     11  C   UNL     1      10.056   4.827   9.014  0.00  0.00    +0.024 A 
ATOM     12  C   UNL     1      10.077   5.038  10.372  0.00  0.00    +0.002 A 
ATOM     13  C   UNL     1       9.117   4.481  11.200  0.00  0.00    +0.001 A 
ATOM     14  C   UNL     1       8.118   3.697  10.650  0.00  0.00    +0.017 A 
ATOM     15  C   UNL     1       8.096   3.484   9.292  0.00  0.00    +0.035 A 
ATOM     16  S   UNL     1       7.038   2.587   8.187  0.00  0.00    -0.072 S 
ATOM     17  C   UNL     1       6.345   1.663   5.204  0.00  0.00    +0.016 C 
ATOM     18  C   UNL     1       6.006   1.250   3.952  0.00  0.00    +0.024 C 
ATOM     19  H   UNL     1       7.088   1.256   0.876  0.00  0.00    +0.155 HD
ATOM     20  H   UNL     1       9.477   4.042   6.430  0.00  0.00    +0.153 HD
ENDROOT
BRANCH   6  21
ATOM     21  O   UNL     1       9.346   3.650   4.473  0.00  0.00    -0.506 OA
ATOM     22  H   UNL     1       9.819   3.860   3.656  0.00  0.00    +0.292 HD
ENDBRANCH   6  21
BRANCH   1  23
ATOM     23  C   UNL     1       4.909   0.110   0.036  0.00  0.00    +0.131 C 
BRANCH  23  33
ATOM     24  C   UNL     1       0.353   2.264  -0.862  0.00  0.00    +0.001 A 
ATOM     25  C   UNL     1       1.670   2.718  -0.867  0.00  0.00    +0.001 A 
ATOM     26  C   UNL     1       2.702   1.880  -0.578  0.00  0.00    +0.009 A 
ATOM     27  C   UNL     1       2.438   0.534  -0.267  0.00  0.00    -0.014 A 
ATOM     28  C   UNL     1       1.098   0.072  -0.261  0.00  0.00    -0.018 A 
ATOM     29  C   UNL     1       0.059   0.968  -0.566  0.00  0.00    +0.008 A 
ATOM     30  C   UNL     1       0.835  -1.272   0.050  0.00  0.00    +0.008 A 
ATOM     31  C   UNL     1       1.867  -2.111   0.341  0.00  0.00    +0.001 A 
ATOM     32  C   UNL     1       3.184  -1.657   0.335  0.00  0.00    +0.005 A 
ATOM     33  C   UNL     1       3.477  -0.361   0.038  0.00  0.00    -0.031 A 
ENDBRANCH  23  33
ENDBRANCH   1  23
TORSDOF 3
