REMARK  Name = ZINC39325929
REMARK  8 active torsions:
REMARK  status: ('A' for Active; 'I' for Inactive)
REMARK    1  A    between atoms: C_1  and  C_2
REMARK    2  A    between atoms: C_2  and  C_3
REMARK    3  A    between atoms: C_3  and  C_4
REMARK    4  A    between atoms: C_6  and  C_18
REMARK    5  A    between atoms: C_8  and  C_16
REMARK    6  A    between atoms: C_9  and  N_15
REMARK    7  A    between atoms: C_22  and  O_24
REMARK    8  A    between atoms: O_24  and  C_25
REMARK                            x       y       z     vdW  Elec       q    Type
REMARK                         _______ _______ _______ _____ _____    ______ ____
ROOT
ATOM      1  C   UNL     1       0.067  -1.955  -1.035  0.00  0.00    +0.069 C 
ATOM      2  C   UNL     1      -0.612  -2.785  -1.790  0.00  0.00    +0.030 C 
ATOM      3  C   UNL     1      -1.806  -2.627  -2.691  0.00  0.00    +0.098 C 
ATOM      4  C   UNL     1      -2.684  -3.835  -2.419  0.00  0.00    +0.097 C 
ATOM      5  C   UNL     1      -2.257  -4.864  -1.658  0.00  0.00    +0.195 C 
ATOM      6  O   UNL     1      -1.069  -4.965  -1.035  0.00  0.00    -0.448 OA
ATOM      7  C   UNL     1       0.005  -4.159  -1.526  0.00  0.00    +0.343 C 
ATOM      8  N   UNL     1       0.991  -3.855  -0.484  0.00  0.00    -0.138 NA
ATOM      9  N   UNL     1       0.982  -2.632  -0.296  0.00  0.00    -0.155 NA
ENDROOT
BRANCH   3  10
ATOM     10  C   UNL     1      -1.372  -2.609  -4.133  0.00  0.00    -0.031 A 
ATOM     11  C   UNL     1      -0.711  -3.699  -4.669  0.00  0.00    +0.005 A 
ATOM     12  C   UNL     1      -0.311  -3.686  -5.993  0.00  0.00    +0.004 A 
ATOM     13  C   UNL     1      -0.571  -2.583  -6.783  0.00  0.00    +0.045 A 
ATOM     14  C   UNL     1      -1.234  -1.488  -6.248  0.00  0.00    +0.121 A 
ATOM     15  C   UNL     1      -1.640  -1.506  -4.921  0.00  0.00    +0.050 A 
BRANCH  14  16
ATOM     16  O   UNL     1      -1.491  -0.402  -7.024  0.00  0.00    -0.489 OA
BRANCH  16  17
ATOM     17  C   UNL     1      -1.160  -0.502  -8.410  0.00  0.00    +0.173 C 
ATOM     18  C   UNL     1       0.312  -0.098  -8.632  0.00  0.00    +0.044 C 
ATOM     19  C   UNL     1       0.299   0.659  -9.983  0.00  0.00    +0.004 C 
ATOM     20  C   UNL     1      -1.031   1.450  -9.919  0.00  0.00    +0.004 C 
ATOM     21  C   UNL     1      -2.014   0.482  -9.228  0.00  0.00    +0.044 C 
ENDBRANCH  16  17
ENDBRANCH  14  16
ENDBRANCH   3  10
BRANCH   5  22
ATOM     22  N   UNL     1      -3.124  -5.917  -1.505  0.00  0.00    -0.329 N 
ATOM     23  H   UNL     1      -3.994  -5.895  -1.933  0.00  0.00    +0.145 HD
ATOM     24  H   UNL     1      -2.866  -6.683  -0.968  0.00  0.00    +0.145 HD
ENDBRANCH   5  22
BRANCH   4  25
ATOM     25  C   UNL     1      -3.999  -3.883  -2.983  0.00  0.00    +0.101 C 
ATOM     26  N   UNL     1      -5.042  -3.921  -3.431  0.00  0.00    -0.191 NA
ENDBRANCH   4  25
BRANCH   1  27
ATOM     27  C   UNL     1      -0.137  -0.462  -0.998  0.00  0.00    +0.057 C 
BRANCH  27  29
ATOM     28  C   UNL     1      -1.287   1.411   0.190  0.00  0.00    +0.004 C 
ATOM     29  C   UNL     1      -1.080  -0.104   0.152  0.00  0.00    +0.003 C 
ENDBRANCH  27  29
ENDBRANCH   1  27
TORSDOF 7
