REMARK  Name = ZINC63270318
REMARK  6 active torsions:
REMARK  status: ('A' for Active; 'I' for Inactive)
REMARK    1  A    between atoms: C_4  and  C_7
REMARK    2  A    between atoms: C_7  and  N_8
REMARK    3  A    between atoms: C_16  and  S_18
REMARK    4  A    between atoms: S_18  and  C_19
REMARK    5  A    between atoms: C_19  and  C_20
REMARK    6  A    between atoms: C_26  and  N_30
REMARK                            x       y       z     vdW  Elec       q    Type
REMARK                         _______ _______ _______ _____ _____    ______ ____
ROOT
ATOM      1  N   UNL     1       4.152  -0.952   1.338  0.00  0.00    -0.297 N 
ATOM      2  C   UNL     1       4.948  -0.103   2.119  0.00  0.00    +0.053 A 
ATOM      3  C   UNL     1       5.508   1.134   1.823  0.00  0.00    +0.025 A 
ATOM      4  C   UNL     1       6.269   1.795   2.768  0.00  0.00    +0.002 A 
ATOM      5  C   UNL     1       6.478   1.228   4.011  0.00  0.00    +0.002 A 
ATOM      6  C   UNL     1       5.925  -0.001   4.314  0.00  0.00    +0.025 A 
ATOM      7  C   UNL     1       5.157  -0.673   3.371  0.00  0.00    +0.050 A 
ATOM      8  N   UNL     1       4.504  -1.912   3.444  0.00  0.00    -0.316 N 
ATOM      9  C   UNL     1       3.836  -2.130   2.155  0.00  0.00    +0.220 C 
ATOM     10  H   UNL     1       4.493  -2.511   4.206  0.00  0.00    +0.149 HD
ENDROOT
BRANCH   1  11
ATOM     11  C   UNL     1       3.711  -0.707  -0.038  0.00  0.00    +0.143 C 
BRANCH  11  15
ATOM     12  C   UNL     1      -0.017   1.378   0.010  0.00  0.00    +0.000 A 
ATOM     13  C   UNL     1       1.171   2.086   0.002  0.00  0.00    +0.000 A 
ATOM     14  C   UNL     1       2.377   1.411  -0.013  0.00  0.00    +0.005 A 
ATOM     15  C   UNL     1       2.396   0.029  -0.020  0.00  0.00    -0.030 A 
ATOM     16  C   UNL     1       1.208  -0.679  -0.012  0.00  0.00    +0.005 A 
ATOM     17  C   UNL     1       0.002  -0.004   0.002  0.00  0.00    +0.000 A 
ENDBRANCH  11  15
ENDBRANCH   1  11
BRANCH   9  18
ATOM     18  S   UNL     1       4.481  -3.631   1.366  0.00  0.00    -0.115 S 
BRANCH  18  19
ATOM     19  C   UNL     1       6.269  -3.340   1.265  0.00  0.00    +0.119 C 
BRANCH  19  20
ATOM     20  C   UNL     1       6.945  -4.546   0.610  0.00  0.00    +0.184 C 
ATOM     21  N   UNL     1       6.375  -4.781  -0.723  0.00  0.00    -0.363 N 
ATOM     22  C   UNL     1       5.849  -5.972  -0.718  0.00  0.00    +0.060 A 
ATOM     23  C   UNL     1       5.143  -6.757  -1.740  0.00  0.00    +0.029 A 
ATOM     24  C   UNL     1       4.699  -7.994  -1.440  0.00  0.00    +0.035 A 
ATOM     25  C   UNL     1       4.883  -8.579  -0.174  0.00  0.00    +0.128 A 
ATOM     26  C   UNL     1       5.515  -7.946   0.834  0.00  0.00    +0.060 A 
ATOM     27  C   UNL     1       6.042  -6.591   0.622  0.00  0.00    +0.062 A 
ATOM     28  N   UNL     1       6.682  -5.759   1.394  0.00  0.00    -0.363 N 
ATOM     29  H   UNL     1       6.938  -5.912   2.317  0.00  0.00    +0.162 HD
ATOM     30  H   UNL     1       6.388  -4.163  -1.470  0.00  0.00    +0.162 HD
BRANCH  25  31
ATOM     31  N   UNL     1       4.359  -9.943   0.060  0.00  0.00    +0.056 N 
ATOM     32  O   UNL     1       3.788 -10.532  -0.827  0.00  0.00    -0.126 OA
ATOM     33  O   UNL     1       4.504 -10.469   1.139  0.00  0.00    -0.126 OA
ENDBRANCH  25  31
ENDBRANCH  19  20
ENDBRANCH  18  19
ENDBRANCH   9  18
TORSDOF 6
