REMARK  Name = ZINC09496684
REMARK  5 active torsions:
REMARK  status: ('A' for Active; 'I' for Inactive)
REMARK    1  A    between atoms: C_1  and  C_2
REMARK    2  A    between atoms: C_2  and  O_3
REMARK    3  A    between atoms: O_3  and  C_4
REMARK    4  A    between atoms: C_7  and  C_11
REMARK    5  A    between atoms: C_14  and  C_26
REMARK                            x       y       z     vdW  Elec       q    Type
REMARK                         _______ _______ _______ _____ _____    ______ ____
ROOT
ATOM      1  C   UNL     1       1.109  -6.041  -1.846  0.00  0.00    +0.106 C 
ATOM      2  C   UNL     1       2.509  -6.502  -1.427  0.00  0.00    +0.057 C 
ATOM      3  C   UNL     1       3.567  -5.741  -2.234  0.00  0.00    +0.125 C 
ATOM      4  N   UNL     1       3.220  -5.811  -3.656  0.00  0.00    -0.306 N 
ATOM      5  C   UNL     1       4.015  -5.601  -4.749  0.00  0.00    +0.069 A 
ATOM      6  C   UNL     1       5.354  -5.261  -4.891  0.00  0.00    +0.028 A 
ATOM      7  C   UNL     1       5.839  -5.128  -6.182  0.00  0.00    +0.002 A 
ATOM      8  C   UNL     1       5.034  -5.322  -7.291  0.00  0.00    +0.002 A 
ATOM      9  C   UNL     1       3.698  -5.662  -7.177  0.00  0.00    +0.028 A 
ATOM     10  C   UNL     1       3.187  -5.800  -5.882  0.00  0.00    +0.065 A 
ATOM     11  N   UNL     1       1.956  -6.112  -5.429  0.00  0.00    -0.327 N 
ATOM     12  C   UNL     1       1.963  -6.120  -4.123  0.00  0.00    +0.175 A 
ATOM     13  N   UNL     1       0.902  -6.387  -3.265  0.00  0.00    -0.309 N 
ATOM     14  H   UNL     1       0.072  -6.780  -3.579  0.00  0.00    +0.149 HD
ATOM     15  H   UNL     1       1.185  -6.302  -5.987  0.00  0.00    +0.169 HD
ENDROOT
BRANCH   1  19
ATOM     16  C   UNL     1       0.777  -1.810  -1.336  0.00  0.00    +0.139 A 
ATOM     17  C   UNL     1       0.243  -2.669  -0.387  0.00  0.00    +0.047 A 
ATOM     18  C   UNL     1       0.351  -4.036  -0.554  0.00  0.00    +0.009 A 
ATOM     19  C   UNL     1       0.992  -4.549  -1.667  0.00  0.00    -0.026 A 
ATOM     20  C   UNL     1       1.525  -3.696  -2.615  0.00  0.00    +0.029 A 
ATOM     21  C   UNL     1       1.414  -2.327  -2.455  0.00  0.00    +0.083 A 
ATOM     22 CL   UNL     1       2.078  -1.257  -3.650  0.00  0.00    -0.080 Cl
BRANCH  16  23
ATOM     23  O   UNL     1       0.671  -0.465  -1.174  0.00  0.00    -0.491 OA
BRANCH  23  25
ATOM     24  C   UNL     1      -0.019   1.526   0.010  0.00  0.00    +0.048 C 
ATOM     25  C   UNL     1       0.002  -0.004   0.002  0.00  0.00    +0.226 C 
ENDBRANCH  23  25
ENDBRANCH  16  23
ENDBRANCH   1  19
BRANCH   3  26
ATOM     26  C   UNL     1       4.919  -6.367  -2.010  0.00  0.00    +0.011 A 
ATOM     27  C   UNL     1       5.134  -7.689  -2.352  0.00  0.00    +0.008 A 
ATOM     28  C   UNL     1       6.374  -8.263  -2.147  0.00  0.00    +0.001 A 
ATOM     29  C   UNL     1       7.401  -7.517  -1.599  0.00  0.00    +0.003 A 
ATOM     30  C   UNL     1       7.189  -6.195  -1.257  0.00  0.00    +0.039 A 
ATOM     31  C   UNL     1       5.948  -5.617  -1.467  0.00  0.00    +0.129 A 
ATOM     32  F   UNL     1       5.741  -4.323  -1.138  0.00  0.00    -0.205 F 
ENDBRANCH   3  26
TORSDOF 4
