REMARK  Name = ZINC16007253
REMARK  7 active torsions:
REMARK  status: ('A' for Active; 'I' for Inactive)
REMARK    1  A    between atoms: C_1  and  C_2
REMARK    2  A    between atoms: C_2  and  C_3
REMARK    3  A    between atoms: C_3  and  C_4
REMARK    4  A    between atoms: C_4  and  O_5
REMARK    5  A    between atoms: O_5  and  C_6
REMARK    6  A    between atoms: C_6  and  C_8
REMARK    7  A    between atoms: C_9  and  N_33
REMARK                            x       y       z     vdW  Elec       q    Type
REMARK                         _______ _______ _______ _____ _____    ______ ____
ROOT
ATOM      1  C   UNL     1       0.087   1.028   4.805  0.00  0.00    +0.117 C 
ATOM      2  C   UNL     1      -0.367   1.468   6.008  0.00  0.00    +0.196 C 
ATOM      3  O   UNL     1       0.201   1.071   7.160  0.00  0.00    -0.440 OA
ATOM      4  C   UNL     1       0.973  -0.031   7.191  0.00  0.00    +0.152 A 
ATOM      5  C   UNL     1       1.255  -0.702   8.470  0.00  0.00    +0.060 A 
ATOM      6  C   UNL     1       0.735  -0.213   9.671  0.00  0.00    +0.015 A 
ATOM      7  C   UNL     1       1.019  -0.866  10.850  0.00  0.00    +0.001 A 
ATOM      8  C   UNL     1       1.815  -2.002  10.848  0.00  0.00    +0.004 A 
ATOM      9  C   UNL     1       2.335  -2.494   9.670  0.00  0.00    +0.047 A 
ATOM     10  C   UNL     1       2.062  -1.851   8.469  0.00  0.00    +0.143 A 
ATOM     11  O   UNL     1       2.563  -2.318   7.305  0.00  0.00    -0.422 OA
ATOM     12  C   UNL     1       2.311  -1.711   6.135  0.00  0.00    +0.346 A 
ATOM     13  O   UNL     1       2.789  -2.173   5.114  0.00  0.00    -0.245 OA
ATOM     14  C   UNL     1       1.512  -0.557   6.054  0.00  0.00    +0.104 A 
ATOM     15  C   UNL     1       1.255   0.088   4.722  0.00  0.00    +0.145 C 
ATOM     16  C   UNL     1       2.478   0.797   4.227  0.00  0.00    -0.001 A 
ATOM     17  C   UNL     1       3.195   1.851   4.751  0.00  0.00    +0.022 A 
ATOM     18  C   UNL     1       4.304   2.280   4.028  0.00  0.00    +0.018 A 
ATOM     19  C   UNL     1       4.666   1.674   2.841  0.00  0.00    +0.017 A 
ATOM     20  C   UNL     1       3.949   0.614   2.310  0.00  0.00    +0.025 A 
ATOM     21  C   UNL     1       2.834   0.174   3.026  0.00  0.00    +0.038 A 
ATOM     22  N   UNL     1       1.950  -0.850   2.734  0.00  0.00    -0.284 N 
ATOM     23  C   UNL     1       0.991  -0.974   3.675  0.00  0.00    +0.237 C 
ATOM     24  O   UNL     1       0.088  -1.784   3.681  0.00  0.00    -0.274 OA
ATOM     25 BR   UNL     1       5.337   3.722   4.684  0.00  0.00    -0.050 Br
ATOM     26  H   UNL     1       2.012  -1.412   1.946  0.00  0.00    +0.155 HD
ENDROOT
BRANCH   2  27
ATOM     27  N   UNL     1      -1.431   2.329   6.048  0.00  0.00    -0.329 N 
ATOM     28  H   UNL     1      -1.899   2.559   5.230  0.00  0.00    +0.145 HD
ATOM     29  H   UNL     1      -1.716   2.709   6.894  0.00  0.00    +0.145 HD
ENDBRANCH   2  27
BRANCH   1  30
ATOM     30  C   UNL     1      -0.538   1.463   3.626  0.00  0.00    +0.342 C 
ATOM     31  O   UNL     1      -0.032   2.345   2.957  0.00  0.00    -0.245 OA
BRANCH  30  32
ATOM     32  O   UNL     1      -1.703   0.902   3.234  0.00  0.00    -0.461 OA
BRANCH  32  33
ATOM     33  C   UNL     1      -2.284   1.393   2.024  0.00  0.00    +0.232 C 
BRANCH  33  34
ATOM     34  C   UNL     1      -3.588   0.643   1.745  0.00  0.00    +0.041 C 
BRANCH  34  36
ATOM     35  C   UNL     1      -5.515   0.420   0.170  0.00  0.00    +0.004 C 
ATOM     36  C   UNL     1      -4.211   1.169   0.449  0.00  0.00    -0.000 C 
ENDBRANCH  34  36
ENDBRANCH  33  34
ENDBRANCH  32  33
ENDBRANCH  30  32
ENDBRANCH   1  30
TORSDOF 6
