REMARK  Name = ZINC39354145
REMARK  4 active torsions:
REMARK  status: ('A' for Active; 'I' for Inactive)
REMARK    1  A    between atoms: C_1  and  N_2
REMARK    2  A    between atoms: C_3  and  S_8
REMARK    3  A    between atoms: S_8  and  C_9
REMARK    4  A    between atoms: C_11  and  C_22
REMARK                            x       y       z     vdW  Elec       q    Type
REMARK                         _______ _______ _______ _____ _____    ______ ____
ROOT
ATOM      1  C   UNL     1      -1.196  -0.991   2.888  0.00  0.00    +0.167 C 
ATOM      2  C   UNL     1      -1.889  -0.613   4.183  0.00  0.00    -0.010 C 
ATOM      3  C   UNL     1      -1.944  -1.589   5.181  0.00  0.00    +0.002 A 
ATOM      4  C   UNL     1      -2.571  -1.320   6.416  0.00  0.00    +0.011 A 
ATOM      5  C   UNL     1      -2.614  -2.284   7.374  0.00  0.00    +0.021 A 
ATOM      6  C   UNL     1      -2.049  -3.541   7.163  0.00  0.00    +0.043 A 
ATOM      7  C   UNL     1      -1.424  -3.861   5.982  0.00  0.00    +0.044 A 
ATOM      8  C   UNL     1      -1.347  -2.909   4.951  0.00  0.00    +0.042 A 
ATOM      9  N   UNL     1      -0.740  -3.222   3.801  0.00  0.00    -0.284 N 
ATOM     10  C   UNL     1      -0.626  -2.387   2.788  0.00  0.00    +0.235 C 
ATOM     11  O   UNL     1      -0.061  -2.741   1.770  0.00  0.00    -0.274 OA
ATOM     12 CL   UNL     1      -2.135  -4.730   8.424  0.00  0.00    -0.083 Cl
ATOM     13  H   UNL     1      -0.364  -4.112   3.707  0.00  0.00    +0.155 HD
ENDROOT
BRANCH   2  14
ATOM     14  C   UNL     1      -2.455   0.673   4.372  0.00  0.00    -0.020 A 
ATOM     15  C   UNL     1      -3.829   0.809   4.634  0.00  0.00    +0.008 A 
ATOM     16  C   UNL     1      -4.369   2.063   4.816  0.00  0.00    +0.001 A 
ATOM     17  C   UNL     1      -3.562   3.187   4.742  0.00  0.00    +0.000 A 
ATOM     18  C   UNL     1      -2.207   3.063   4.485  0.00  0.00    +0.001 A 
ATOM     19  C   UNL     1      -1.646   1.819   4.305  0.00  0.00    +0.008 A 
ENDBRANCH   2  14
BRANCH   1  20
ATOM     20  S   UNL     1      -2.388  -0.778   1.536  0.00  0.00    -0.099 S 
BRANCH  20  23
ATOM     21  C   UNL     1      -2.238  -3.878   0.226  0.00  0.00    +0.156 C 
ATOM     22  N   UNL     1      -2.861  -3.449   1.480  0.00  0.00    -0.208 N 
ATOM     23  C   UNL     1      -3.538  -2.165   1.743  0.00  0.00    +0.255 C 
ATOM     24  N   UNL     1      -3.957  -2.296   3.151  0.00  0.00    -0.218 N 
ATOM     25  N   UNL     1      -3.519  -3.559   3.565  0.00  0.00    -0.063 NA
ATOM     26  N   UNL     1      -2.940  -4.175   2.675  0.00  0.00    -0.061 NA
ATOM     27  H   UNL     1      -4.437  -1.641   3.682  0.00  0.00    +0.173 HD
ENDBRANCH  20  23
ENDBRANCH   1  20
TORSDOF 3
