REMARK  Name = ZINC38673035
REMARK  8 active torsions:
REMARK  status: ('A' for Active; 'I' for Inactive)
REMARK    1  A    between atoms: C_1  and  N_2
REMARK    2  A    between atoms: N_5  and  C_8
REMARK    3  A    between atoms: C_8  and  C_10
REMARK    4  A    between atoms: C_8  and  C_28
REMARK    5  A    between atoms: C_10  and  N_11
REMARK    6  A    between atoms: C_12  and  C_14
REMARK    7  A    between atoms: N_19  and  C_21
REMARK    8  A    between atoms: N_37  and  C_38
REMARK                            x       y       z     vdW  Elec       q    Type
REMARK                         _______ _______ _______ _____ _____    ______ ____
ROOT
ATOM      1  C   UNL     1      -0.624  -4.008   1.183  0.00  0.00    +0.104 C 
ENDROOT
BRANCH   1   2
ATOM      2  C   UNL     1       0.192  -4.378   2.394  0.00  0.00    -0.028 A 
ATOM      3  C   UNL     1       0.103  -3.615   3.545  0.00  0.00    +0.007 A 
ATOM      4  C   UNL     1       0.852  -3.953   4.654  0.00  0.00    +0.024 A 
ATOM      5  C   UNL     1       1.695  -5.059   4.615  0.00  0.00    +0.033 A 
ATOM      6  C   UNL     1       1.781  -5.824   3.462  0.00  0.00    -0.026 A 
ATOM      7  C   UNL     1       1.024  -5.480   2.355  0.00  0.00    +0.010 A 
ATOM      8  C   UNL     1       2.674  -7.034   3.387  0.00  0.00    +0.038 C 
ATOM      9  C   UNL     1       3.760  -6.966   4.460  0.00  0.00    +0.024 C 
ATOM     10  C   UNL     1       3.099  -6.697   5.818  0.00  0.00    +0.105 C 
ATOM     11  N   UNL     1       2.449  -5.381   5.748  0.00  0.00    -0.333 N 
ATOM     12  C   UNL     1       2.589  -4.422   6.847  0.00  0.00    +0.129 C 
ENDBRANCH   1   2
BRANCH   1  17
ATOM     13  C   UNL     1      -0.075   1.353  -0.461  0.00  0.00    -0.096 C 
ATOM     14  N   UNL     1      -0.044  -0.112  -0.349  0.00  0.00    +0.379 N 
ATOM     15  C   UNL     1      -1.418  -0.626  -0.272  0.00  0.00    -0.064 C 
ATOM     16  C   UNL     1      -1.386  -2.152  -0.174  0.00  0.00    +0.066 C 
ATOM     17  N   UNL     1      -0.629  -2.548   1.022  0.00  0.00    -0.297 NA
ATOM     18  C   UNL     1       0.741  -2.019   0.971  0.00  0.00    +0.066 C 
ATOM     19  C   UNL     1       0.692  -0.494   0.864  0.00  0.00    -0.064 C 
ATOM     20  H   UNL     1       0.416  -0.501  -1.158  0.00  0.00    -0.082 HD
ENDBRANCH   1  17
BRANCH   1  21
ATOM     21  C   UNL     1      -2.059  -4.506   1.364  0.00  0.00    +0.127 C 
BRANCH  21  22
ATOM     22  N   UNL     1      -2.066  -5.971   1.410  0.00  0.00    -0.313 N 
ATOM     23  C   UNL     1      -3.236  -6.638   1.468  0.00  0.00    +0.218 C 
ATOM     24  O   UNL     1      -4.283  -6.026   1.482  0.00  0.00    -0.275 OA
ATOM     25  H   UNL     1      -1.229  -6.460   1.398  0.00  0.00    +0.149 HD
BRANCH  23  26
ATOM     26  C   UNL     1      -3.243  -8.144   1.515  0.00  0.00    +0.101 C 
ATOM     27  C   UNL     1      -2.665  -8.741   0.211  0.00  0.00    +0.110 C 
ATOM     28  C   UNL     1      -3.510  -9.971  -0.040  0.00  0.00    +0.221 C 
ATOM     29  O   UNL     1      -3.217 -10.873  -0.796  0.00  0.00    -0.275 OA
ATOM     30  N   UNL     1      -4.632  -9.919   0.698  0.00  0.00    -0.271 N 
ATOM     31  C   UNL     1      -4.688  -8.691   1.500  0.00  0.00    +0.127 C 
BRANCH  30  32
ATOM     32  C   UNL     1      -5.622 -10.909   0.701  0.00  0.00    +0.036 A 
ATOM     33  C   UNL     1      -5.531 -11.986  -0.171  0.00  0.00    +0.025 A 
ATOM     34  C   UNL     1      -6.508 -12.962  -0.166  0.00  0.00    +0.022 A 
ATOM     35  C   UNL     1      -7.577 -12.867   0.708  0.00  0.00    +0.041 A 
ATOM     36  C   UNL     1      -7.670 -11.796   1.578  0.00  0.00    +0.022 A 
ATOM     37  C   UNL     1      -6.692 -10.820   1.581  0.00  0.00    +0.025 A 
ATOM     38 CL   UNL     1      -8.805 -14.095   0.712  0.00  0.00    -0.084 Cl
ENDBRANCH  30  32
ENDBRANCH  23  26
ENDBRANCH  21  22
ENDBRANCH   1  21
TORSDOF 6
