REMARK  Name = ZINC43548394
REMARK  7 active torsions:
REMARK  status: ('A' for Active; 'I' for Inactive)
REMARK    1  A    between atoms: C_1  and  C_2
REMARK    2  A    between atoms: N_9  and  C_10
REMARK    3  A    between atoms: C_17  and  C_37
REMARK    4  A    between atoms: C_20  and  O_36
REMARK    5  A    between atoms: C_22  and  C_26
REMARK    6  A    between atoms: C_26  and  C_28
REMARK    7  A    between atoms: C_26  and  C_29
REMARK                            x       y       z     vdW  Elec       q    Type
REMARK                         _______ _______ _______ _____ _____    ______ ____
ROOT
ATOM      1  C   UNL     1      -0.003   1.498  -0.287  0.00  0.00    +0.014 C 
ATOM      2  C   UNL     1       0.245  -0.012  -0.260  0.00  0.00    +0.042 C 
ATOM      3  C   UNL     1      -1.087  -0.745  -0.199  0.00  0.00    +0.057 A 
ATOM      4  C   UNL     1      -1.534  -1.261   0.973  0.00  0.00    +0.015 A 
ATOM      5  S   UNL     1      -3.082  -1.987   0.509  0.00  0.00    -0.057 S 
ATOM      6  C   UNL     1      -3.035  -1.579  -1.126  0.00  0.00    +0.163 A 
ATOM      7  N   UNL     1      -1.893  -0.936  -1.240  0.00  0.00    -0.229 NA
ATOM      8  N   UNL     1      -3.971  -1.855  -2.111  0.00  0.00    -0.294 N 
ATOM      9  C   UNL     1      -0.867  -1.214   2.304  0.00  0.00    +0.051 C 
ATOM     10  C   UNL     1       0.258  -0.164   2.256  0.00  0.00    -0.022 C 
ATOM     11  C   UNL     1       1.071  -0.371   0.971  0.00  0.00    +0.033 C 
ATOM     12  C   UNL     1       1.540  -1.824   0.900  0.00  0.00    +0.123 C 
ATOM     13  C   UNL     1       2.446  -2.115   2.100  0.00  0.00    +0.029 C 
ATOM     14  C   UNL     1       1.679  -1.869   3.400  0.00  0.00    +0.007 C 
ATOM     15  C   UNL     1       1.189  -0.417   3.452  0.00  0.00    +0.008 C 
ATOM     16  C   UNL     1      -0.324   1.250   2.317  0.00  0.00    +0.012 C 
ATOM     17  H   UNL     1      -3.781  -1.635  -3.036  0.00  0.00    +0.154 HD
ENDROOT
BRANCH   8  18
ATOM     18  C   UNL     1      -5.189  -2.451  -1.770  0.00  0.00    +0.033 A 
ATOM     19  C   UNL     1      -5.797  -3.342  -2.644  0.00  0.00    +0.023 A 
ATOM     20  C   UNL     1      -7.000  -3.929  -2.304  0.00  0.00    +0.002 A 
ATOM     21  C   UNL     1      -7.600  -3.629  -1.095  0.00  0.00    +0.000 A 
ATOM     22  C   UNL     1      -6.997  -2.742  -0.221  0.00  0.00    +0.002 A 
ATOM     23  C   UNL     1      -5.791  -2.157  -0.552  0.00  0.00    +0.023 A 
ENDBRANCH   8  18
BRANCH  13  24
ATOM     24  C   UNL     1       2.902  -3.575   2.050  0.00  0.00    +0.078 C 
ATOM     25  C   UNL     1       1.681  -4.494   2.120  0.00  0.00    +0.017 C 
BRANCH  24  26
ATOM     26  C   UNL     1       3.812  -3.857   3.218  0.00  0.00    +0.219 C 
ATOM     27  O   UNL     1       3.357  -4.324   4.241  0.00  0.00    -0.275 OA
ATOM     28  N   UNL     1       5.130  -3.591   3.126  0.00  0.00    -0.301 N 
ATOM     29  C   UNL     1       5.793  -2.927   1.994  0.00  0.00    +0.108 C 
ATOM     30  C   UNL     1       7.300  -2.863   2.319  0.00  0.00    +0.020 C 
ATOM     31  C   UNL     1       7.479  -3.999   3.360  0.00  0.00    +0.020 C 
ATOM     32  C   UNL     1       6.145  -3.913   4.146  0.00  0.00    +0.108 C 
ENDBRANCH  24  26
ENDBRANCH  13  24
BRANCH  12  33
ATOM     33  O   UNL     1       2.268  -2.033  -0.312  0.00  0.00    -0.391 OA
ATOM     34  H   UNL     1       2.522  -2.953  -0.464  0.00  0.00    +0.210 HD
ENDBRANCH  12  33
TORSDOF 4
