REMARK  Name = ZINC15906212
REMARK  15 active torsions:
REMARK  status: ('A' for Active; 'I' for Inactive)
REMARK    1  A    between atoms: C_1  and  C_2
REMARK    2  A    between atoms: C_3  and  C_14
REMARK    3  A    between atoms: C_4  and  N_13
REMARK    4  A    between atoms: N_5  and  C_7
REMARK    5  A    between atoms: C_14  and  C_15
REMARK    6  A    between atoms: C_14  and  C_27
REMARK    7  A    between atoms: C_17  and  O_25
REMARK    8  A    between atoms: C_18  and  O_23
REMARK    9  A    between atoms: C_19  and  O_21
REMARK   10  A    between atoms: O_21  and  C_22
REMARK   11  A    between atoms: O_23  and  C_24
REMARK   12  A    between atoms: O_25  and  C_26
REMARK   13  A    between atoms: C_28  and  C_39
REMARK   14  A    between atoms: N_30  and  C_33
REMARK   15  A    between atoms: C_31  and  N_32
REMARK                            x       y       z     vdW  Elec       q    Type
REMARK                         _______ _______ _______ _____ _____    ______ ____
ROOT
ATOM      1  C   UNL     1       2.623  -0.724   2.792  0.00  0.00    +0.089 C 
ENDROOT
BRANCH   1   4
ATOM      2  C   UNL     1       0.793  -2.898   1.398  0.00  0.00    +0.068 C 
ATOM      3  C   UNL     1       1.840  -3.168   2.447  0.00  0.00    +0.066 A 
ATOM      4  C   UNL     1       2.647  -2.207   3.062  0.00  0.00    +0.027 A 
ATOM      5  C   UNL     1       3.462  -2.848   3.945  0.00  0.00    +0.124 A 
ATOM      6  N   UNL     1       3.164  -4.174   3.886  0.00  0.00    -0.218 N 
ATOM      7  N   UNL     1       2.147  -4.342   2.937  0.00  0.00    -0.170 NA
BRANCH   6   8
ATOM      8  C   UNL     1       3.769  -5.191   4.636  0.00  0.00    +0.067 A 
ATOM      9  C   UNL     1       5.119  -5.114   4.951  0.00  0.00    +0.028 A 
ATOM     10  C   UNL     1       5.712  -6.115   5.695  0.00  0.00    +0.002 A 
ATOM     11  C   UNL     1       4.965  -7.200   6.117  0.00  0.00    +0.000 A 
ATOM     12  C   UNL     1       3.621  -7.282   5.801  0.00  0.00    +0.002 A 
ATOM     13  C   UNL     1       3.022  -6.281   5.061  0.00  0.00    +0.028 A 
ENDBRANCH   6   8
BRANCH   5  14
ATOM     14  N   UNL     1       4.423  -2.255   4.759  0.00  0.00    -0.343 N 
ATOM     15  H   UNL     1       4.559  -1.295   4.728  0.00  0.00    +0.144 HD
ATOM     16  H   UNL     1       4.956  -2.802   5.357  0.00  0.00    +0.144 HD
ENDBRANCH   5  14
ENDBRANCH   1   4
BRANCH   1  17
ATOM     17  C   UNL     1       1.593  -0.423   1.734  0.00  0.00    -0.028 A 
ATOM     18  C   UNL     1       0.357   0.076   2.098  0.00  0.00    +0.054 A 
ATOM     19  C   UNL     1      -0.594   0.354   1.127  0.00  0.00    +0.165 A 
ATOM     20  C   UNL     1      -0.301   0.131  -0.213  0.00  0.00    +0.204 A 
ATOM     21  C   UNL     1       0.943  -0.371  -0.575  0.00  0.00    +0.165 A 
ATOM     22  C   UNL     1       1.886  -0.651   0.402  0.00  0.00    +0.054 A 
BRANCH  21  23
ATOM     23  O   UNL     1       1.234  -0.591  -1.885  0.00  0.00    -0.491 OA
ATOM     24  C   UNL     1       2.499  -1.188  -2.177  0.00  0.00    +0.277 C 
ENDBRANCH  21  23
BRANCH  20  25
ATOM     25  O   UNL     1      -1.231   0.403  -1.169  0.00  0.00    -0.488 OA
ATOM     26  C   UNL     1      -2.124  -0.655  -1.526  0.00  0.00    +0.277 C 
ENDBRANCH  20  25
BRANCH  19  27
ATOM     27  O   UNL     1      -1.810   0.844   1.486  0.00  0.00    -0.491 OA
ATOM     28  C   UNL     1      -2.042   1.048   2.881  0.00  0.00    +0.277 C 
ENDBRANCH  19  27
ENDBRANCH   1  17
BRANCH   1  29
ATOM     29  C   UNL     1       3.981  -0.279   2.313  0.00  0.00    +0.027 A 
ATOM     30  C   UNL     1       4.693   0.831   2.774  0.00  0.00    +0.066 A 
ATOM     31  N   UNL     1       5.828   0.896   2.126  0.00  0.00    -0.170 NA
ATOM     32  N   UNL     1       5.883  -0.174   1.223  0.00  0.00    -0.218 N 
ATOM     33  C   UNL     1       4.734  -0.891   1.358  0.00  0.00    +0.124 A 
ATOM     34  C   UNL     1       4.232   1.793   3.839  0.00  0.00    +0.068 C 
BRANCH  32  35
ATOM     35  C   UNL     1       6.935  -0.458   0.342  0.00  0.00    +0.067 A 
ATOM     36  C   UNL     1       7.268  -1.776   0.057  0.00  0.00    +0.028 A 
ATOM     37  C   UNL     1       8.303  -2.052  -0.815  0.00  0.00    +0.002 A 
ATOM     38  C   UNL     1       9.014  -1.018  -1.396  0.00  0.00    +0.000 A 
ATOM     39  C   UNL     1       8.688   0.295  -1.111  0.00  0.00    +0.002 A 
ATOM     40  C   UNL     1       7.651   0.578  -0.244  0.00  0.00    +0.028 A 
ENDBRANCH  32  35
BRANCH  33  41
ATOM     41  N   UNL     1       4.392  -2.038   0.648  0.00  0.00    -0.343 N 
ATOM     42  H   UNL     1       3.572  -2.512   0.859  0.00  0.00    +0.144 HD
ATOM     43  H   UNL     1       4.973  -2.364  -0.057  0.00  0.00    +0.144 HD
ENDBRANCH  33  41
ENDBRANCH   1  29
TORSDOF 10
