REMARK  Name = ZINC35004537
REMARK  12 active torsions:
REMARK  status: ('A' for Active; 'I' for Inactive)
REMARK    1  A    between atoms: C_1  and  C_2
REMARK    2  A    between atoms: C_2  and  C_3
REMARK    3  A    between atoms: C_3  and  C_4
REMARK    4  A    between atoms: C_4  and  N_5
REMARK    5  A    between atoms: C_13  and  C_15
REMARK    6  A    between atoms: C_16  and  C_18
REMARK    7  A    between atoms: C_18  and  C_20
REMARK    8  A    between atoms: C_18  and  N_25
REMARK    9  A    between atoms: C_20  and  C_22
REMARK   10  A    between atoms: C_20  and  C_23
REMARK   11  A    between atoms: C_23  and  C_24
REMARK   12  A    between atoms: N_28  and  C_29
REMARK                            x       y       z     vdW  Elec       q    Type
REMARK                         _______ _______ _______ _____ _____    ______ ____
ROOT
ATOM      1  C   UNL     1       3.169  -4.397  -8.533  0.00  0.00    +0.163 C 
ENDROOT
BRANCH   1  12
ATOM      2  N   UNL     1      -0.032  -2.654  -2.966  0.00  0.00    -0.299 N 
ATOM      3  C   UNL     1       0.410  -3.924  -3.061  0.00  0.00    +0.303 C 
ATOM      4  O   UNL     1       0.078  -4.747  -2.231  0.00  0.00    -0.253 OA
ATOM      5  N   UNL     1       1.221  -4.281  -4.077  0.00  0.00    -0.280 N 
ATOM      6  C   UNL     1       1.737  -3.271  -5.013  0.00  0.00    +0.128 C 
ATOM      7  C   UNL     1       1.365  -3.691  -6.440  0.00  0.00    +0.127 C 
ATOM      8  N   UNL     1       1.750  -5.097  -6.631  0.00  0.00    -0.297 N 
ATOM      9  C   UNL     1       1.234  -6.106  -5.696  0.00  0.00    +0.130 C 
ATOM     10  C   UNL     1       1.611  -5.685  -4.265  0.00  0.00    +0.092 C 
ATOM     11  C   UNL     1       0.867  -6.564  -3.257  0.00  0.00    +0.030 C 
ATOM     12  C   UNL     1       2.561  -5.454  -7.647  0.00  0.00    +0.236 C 
ATOM     13  O   UNL     1       2.801  -6.625  -7.848  0.00  0.00    -0.274 OA
ATOM     14  H   UNL     1       0.291  -1.980  -3.585  0.00  0.00    +0.150 HD
BRANCH   2  15
ATOM     15  C   UNL     1      -1.000  -2.291  -1.928  0.00  0.00    +0.106 C 
BRANCH  15  16
ATOM     16  C   UNL     1      -1.333  -0.802  -2.039  0.00  0.00    +0.018 C 
BRANCH  16  18
ATOM     17  C   UNL     1      -2.677   1.066  -1.067  0.00  0.00    +0.004 C 
ATOM     18  C   UNL     1      -2.344  -0.423  -0.956  0.00  0.00    -0.002 C 
ENDBRANCH  16  18
ENDBRANCH  15  16
ENDBRANCH   2  15
ENDBRANCH   1  12
BRANCH   1  19
ATOM     19  N   UNL     1       3.494  -4.981  -9.837  0.00  0.00    -0.288 N 
ATOM     20  C   UNL     1       3.564  -4.194 -10.929  0.00  0.00    +0.301 C 
ATOM     21  O   UNL     1       3.357  -3.000 -10.832  0.00  0.00    -0.253 OA
ATOM     22  N   UNL     1       3.863  -4.731 -12.128  0.00  0.00    -0.294 N 
ATOM     23  H   UNL     1       3.659  -5.933  -9.914  0.00  0.00    +0.151 HD
ATOM     24  H   UNL     1       4.028  -5.684 -12.206  0.00  0.00    +0.151 HD
BRANCH  22  25
ATOM     25  C   UNL     1       3.939  -3.876 -13.315  0.00  0.00    +0.037 C 
ATOM     26  C   UNL     1       5.018  -2.810 -13.108  0.00  0.00    +0.029 C 
ATOM     27  C   UNL     1       5.097  -1.917 -14.348  0.00  0.00    -0.008 C 
ATOM     28  C   UNL     1       5.450  -2.769 -15.568  0.00  0.00    +0.007 C 
ATOM     29  C   UNL     1       4.372  -3.835 -15.776  0.00  0.00    -0.008 C 
ATOM     30  C   UNL     1       4.293  -4.728 -14.536  0.00  0.00    +0.029 C 
ATOM     31  C   UNL     1       3.020  -3.155 -16.002  0.00  0.00    +0.007 C 
ATOM     32  C   UNL     1       2.667  -2.303 -14.781  0.00  0.00    -0.008 C 
ATOM     33  C   UNL     1       3.745  -1.237 -14.574  0.00  0.00    +0.007 C 
ATOM     34  C   UNL     1       2.588  -3.196 -13.542  0.00  0.00    +0.029 C 
ENDBRANCH  22  25
ENDBRANCH   1  19
BRANCH   1  35
ATOM     35  C   UNL     1       4.444  -3.858  -7.883  0.00  0.00    +0.015 C 
ATOM     36  C   UNL     1       5.498  -4.966  -7.832  0.00  0.00    +0.010 C 
BRANCH  35  37
ATOM     37  C   UNL     1       4.979  -2.684  -8.705  0.00  0.00    +0.002 C 
ATOM     38  C   UNL     1       3.990  -1.519  -8.634  0.00  0.00    +0.004 C 
ENDBRANCH  35  37
ENDBRANCH   1  35
TORSDOF 8
