REMARK  Name = ZINC55955310
REMARK  7 active torsions:
REMARK  status: ('A' for Active; 'I' for Inactive)
REMARK    1  A    between atoms: C_1  and  C_2
REMARK    2  A    between atoms: C_4  and  C_28
REMARK    3  A    between atoms: C_6  and  N_8
REMARK    4  A    between atoms: C_9  and  C_11
REMARK    5  A    between atoms: C_11  and  N_12
REMARK    6  A    between atoms: C_16  and  C_24
REMARK    7  A    between atoms: C_21  and  C_23
REMARK                            x       y       z     vdW  Elec       q    Type
REMARK                         _______ _______ _______ _____ _____    ______ ____
ROOT
ATOM      1  N   UNL     1       0.370  -1.959   5.973  0.00  0.00    -0.215 N 
ATOM      2  C   UNL     1       1.527  -1.451   6.446  0.00  0.00    +0.247 C 
ATOM      3  O   UNL     1       2.647  -1.679   6.043  0.00  0.00    -0.273 OA
ATOM      4  C   UNL     1       1.132  -0.540   7.585  0.00  0.00    +0.118 C 
ATOM      5  C   UNL     1       1.558   0.894   7.291  0.00  0.00    +0.019 C 
ATOM      6  C   UNL     1       1.122   1.805   8.441  0.00  0.00    +0.006 C 
ATOM      7  C   UNL     1       1.763   1.322   9.744  0.00  0.00    +0.001 C 
ATOM      8  C   UNL     1       1.308  -0.109  10.037  0.00  0.00    +0.006 C 
ATOM      9  C   UNL     1       1.744  -1.027   8.893  0.00  0.00    +0.019 C 
ATOM     10  C   UNL     1       1.272  -2.455   9.177  0.00  0.00    +0.010 C 
ATOM     11  C   UNL     1       3.079   0.954   7.143  0.00  0.00    +0.010 C 
ATOM     12  N   UNL     1      -0.333  -0.642   7.633  0.00  0.00    -0.284 N 
ATOM     13  C   UNL     1      -0.687  -1.491   6.648  0.00  0.00    +0.310 C 
ATOM     14  O   UNL     1      -1.837  -1.799   6.404  0.00  0.00    -0.252 OA
ATOM     15  H   UNL     1      -0.927  -0.186   8.248  0.00  0.00    +0.151 HD
ENDROOT
BRANCH   1  16
ATOM     16  C   UNL     1       0.280  -2.900   4.854  0.00  0.00    +0.214 C 
BRANCH  16  18
ATOM     17  N   UNL     1       0.052  -2.797   2.393  0.00  0.00    -0.284 N 
ATOM     18  C   UNL     1       0.150  -2.134   3.562  0.00  0.00    +0.235 C 
ATOM     19  O   UNL     1       0.134  -0.922   3.575  0.00  0.00    -0.274 OA
ATOM     20  H   UNL     1      -0.012  -3.765   2.388  0.00  0.00    +0.155 HD
BRANCH  17  26
ATOM     21  C   UNL     1      -1.512  -2.365  -2.248  0.00  0.00    +0.044 C 
ATOM     22  C   UNL     1      -0.707  -1.857  -1.080  0.00  0.00    -0.048 A 
ATOM     23  C   UNL     1       0.025  -0.690  -1.201  0.00  0.00    +0.006 A 
ATOM     24  C   UNL     1       0.765  -0.220  -0.131  0.00  0.00    -0.048 A 
ATOM     25  C   UNL     1       0.776  -0.917   1.061  0.00  0.00    +0.026 A 
ATOM     26  C   UNL     1       0.043  -2.089   1.186  0.00  0.00    +0.034 A 
ATOM     27  C   UNL     1      -0.704  -2.555   0.112  0.00  0.00    +0.026 A 
ATOM     28  C   UNL     1       1.561   1.052  -0.268  0.00  0.00    +0.044 C 
ENDBRANCH  17  26
ENDBRANCH  16  18
ENDBRANCH   1  16
TORSDOF 3
