REMARK  Name = ZINC39252887
REMARK  6 active torsions:
REMARK  status: ('A' for Active; 'I' for Inactive)
REMARK    1  A    between atoms: C_4  and  N_7
REMARK    2  A    between atoms: N_7  and  C_8
REMARK    3  A    between atoms: C_8  and  C_9
REMARK    4  A    between atoms: C_11  and  C_22
REMARK    5  A    between atoms: N_24  and  N_25
REMARK    6  A    between atoms: C_26  and  C_27
REMARK                            x       y       z     vdW  Elec       q    Type
REMARK                         _______ _______ _______ _____ _____    ______ ____
ROOT
ATOM      1  C   UNL     1       5.108  -2.493  -0.018  0.00  0.00    +0.154 C 
ATOM      2  C   UNL     1       5.303  -4.002  -0.278  0.00  0.00    +0.240 C 
ATOM      3  N   UNL     1       6.120  -4.048  -1.497  0.00  0.00    -0.156 NA
ATOM      4  N   UNL     1       6.378  -2.920  -1.905  0.00  0.00    -0.077 NA
ATOM      5  N   UNL     1       5.850  -1.877  -1.134  0.00  0.00    -0.176 N 
ATOM      6  C   UNL     1       5.995  -0.513  -1.375  0.00  0.00    +0.228 A 
ATOM      7  C   UNL     1       6.626   0.089  -2.554  0.00  0.00    +0.204 A 
ATOM      8  N   UNL     1       6.577   1.386  -2.428  0.00  0.00    -0.032 NA
ATOM      9  O   UNL     1       5.933   1.680  -1.201  0.00  0.00    -0.239 OA
ATOM     10  N   UNL     1       5.588   0.448  -0.592  0.00  0.00    -0.030 NA
ATOM     11  N   UNL     1       7.182  -0.605  -3.623  0.00  0.00    -0.338 N 
ATOM     12  H   UNL     1       7.173  -1.575  -3.629  0.00  0.00    +0.144 HD
ATOM     13  H   UNL     1       7.579  -0.119  -4.363  0.00  0.00    +0.144 HD
ENDROOT
BRANCH   2  14
ATOM     14  C   UNL     1       3.974  -4.675  -0.503  0.00  0.00    +0.261 C 
ATOM     15  O   UNL     1       3.602  -4.921  -1.631  0.00  0.00    -0.272 OA
ATOM     16  N   UNL     1       3.199  -5.005   0.549  0.00  0.00    -0.205 N 
ATOM     17  H   UNL     1       3.496  -4.808   1.451  0.00  0.00    +0.177 HD
BRANCH  16  18
ATOM     18  N   UNL     1       1.963  -5.631   0.340  0.00  0.00    -0.188 NA
ATOM     19  C   UNL     1       1.210  -5.951   1.362  0.00  0.00    +0.136 C 
BRANCH  19  20
ATOM     20  C   UNL     1      -0.027  -6.578   1.153  0.00  0.00    +0.000 C 
ATOM     21  C   UNL     1      -0.944  -6.976   2.123  0.00  0.00    +0.004 A 
ATOM     22  C   UNL     1      -0.940  -6.891   3.532  0.00  0.00    +0.010 A 
ATOM     23  C   UNL     1      -1.993  -7.372   4.239  0.00  0.00    +0.001 A 
ATOM     24  C   UNL     1      -3.094  -7.957   3.606  0.00  0.00    +0.002 A 
ATOM     25  C   UNL     1      -3.166  -8.073   2.258  0.00  0.00    +0.026 A 
ATOM     26  C   UNL     1      -2.102  -7.591   1.450  0.00  0.00    +0.043 A 
ATOM     27  N   UNL     1      -1.933  -7.585   0.145  0.00  0.00    -0.380 N 
ATOM     28  C   UNL     1      -0.647  -6.957  -0.174  0.00  0.00    +0.150 C 
ATOM     29  H   UNL     1      -2.562  -7.936  -0.504  0.00  0.00    +0.160 HD
ENDBRANCH  19  20
ENDBRANCH  16  18
ENDBRANCH   2  14
BRANCH   1  30
ATOM     30  C   UNL     1       3.626  -2.118  -0.077  0.00  0.00    +0.128 C 
BRANCH  30  31
ATOM     31  N   UNL     1       2.957  -2.578   1.142  0.00  0.00    -0.342 N 
ATOM     32  H   UNL     1       3.460  -3.053   1.822  0.00  0.00    +0.146 HD
BRANCH  31  36
ATOM     33  C   UNL     1      -1.105  -1.844   1.691  0.00  0.00    +0.000 A 
ATOM     34  C   UNL     1      -0.389  -2.522   2.660  0.00  0.00    +0.002 A 
ATOM     35  C   UNL     1       0.958  -2.767   2.482  0.00  0.00    +0.023 A 
ATOM     36  C   UNL     1       1.594  -2.332   1.326  0.00  0.00    +0.027 A 
ATOM     37  C   UNL     1       0.872  -1.651   0.354  0.00  0.00    +0.023 A 
ATOM     38  C   UNL     1      -0.475  -1.410   0.539  0.00  0.00    +0.002 A 
ENDBRANCH  31  36
ENDBRANCH  30  31
ENDBRANCH   1  30
TORSDOF 6
