REMARK  Name = ZINC14900138
REMARK  5 active torsions:
REMARK  status: ('A' for Active; 'I' for Inactive)
REMARK    1  A    between atoms: C_1  and  C_2
REMARK    2  A    between atoms: C_4  and  C_13
REMARK    3  A    between atoms: C_6  and  C_12
REMARK    4  A    between atoms: N_8  and  C_11
REMARK    5  A    between atoms: C_22  and  C_26
REMARK                            x       y       z     vdW  Elec       q    Type
REMARK                         _______ _______ _______ _____ _____    ______ ____
ROOT
ATOM      1  C   UNL     1       3.112   0.662  -6.296  0.00  0.00    +0.250 C 
ATOM      2  O   UNL     1       3.922   0.731  -5.392  0.00  0.00    -0.270 OA
ATOM      3  N   UNL     1       1.793   0.719  -6.025  0.00  0.00    -0.261 N 
ATOM      4  C   UNL     1       1.359   0.856  -4.713  0.00  0.00    +0.165 A 
ATOM      5  N   UNL     1       2.073   0.946  -3.610  0.00  0.00    -0.229 NA
ATOM      6  C   UNL     1       1.512   1.075  -2.410  0.00  0.00    +0.054 A 
ATOM      7  C   UNL     1       0.154   1.108  -2.389  0.00  0.00    +0.015 A 
ATOM      8  S   UNL     1      -0.266   0.953  -4.104  0.00  0.00    -0.057 S 
ATOM      9  C   UNL     1      -0.739   1.242  -1.203  0.00  0.00    +0.047 C 
ATOM     10  C   UNL     1       0.095   0.973   0.060  0.00  0.00    -0.009 C 
ATOM     11  C   UNL     1       1.397   1.774  -0.031  0.00  0.00    +0.010 C 
ATOM     12  C   UNL     1       2.303   1.183  -1.112  0.00  0.00    +0.056 C 
ATOM     13  C   UNL     1      -0.690   1.409   1.299  0.00  0.00    +0.008 C 
ATOM     14  H   UNL     1       1.147   0.664  -6.746  0.00  0.00    +0.157 HD
ENDROOT
BRANCH   1  18
ATOM     15  C   UNL     1       2.679   1.714 -11.161  0.00  0.00    +0.065 C 
ATOM     16  C   UNL     1       3.387   1.006 -10.034  0.00  0.00    +0.041 A 
ATOM     17  C   UNL     1       2.923   1.169  -8.738  0.00  0.00    +0.037 A 
ATOM     18  C   UNL     1       3.574   0.516  -7.692  0.00  0.00    +0.051 A 
ATOM     19  C   UNL     1       4.693  -0.285  -8.011  0.00  0.00    +0.054 A 
ATOM     20  C   UNL     1       5.575  -1.080  -7.250  0.00  0.00    +0.070 A 
ATOM     21  N   UNL     1       6.443  -1.625  -8.054  0.00  0.00    -0.174 NA
ATOM     22  N   UNL     1       6.181  -1.228  -9.371  0.00  0.00    -0.249 N 
ATOM     23  C   UNL     1       5.091  -0.397  -9.358  0.00  0.00    +0.159 A 
ATOM     24  N   UNL     1       4.428   0.251 -10.306  0.00  0.00    -0.233 NA
ATOM     25  C   UNL     1       6.939  -1.632 -10.557  0.00  0.00    +0.174 C 
ATOM     26  C   UNL     1       5.526  -1.265  -5.755  0.00  0.00    +0.068 C 
ENDBRANCH   1  18
TORSDOF 1
