REMARK  Name = ZINC63383464
REMARK  9 active torsions:
REMARK  status: ('A' for Active; 'I' for Inactive)
REMARK    1  A    between atoms: C_1  and  C_2
REMARK    2  A    between atoms: C_2  and  C_3
REMARK    3  A    between atoms: C_3  and  C_5
REMARK    4  A    between atoms: C_3  and  C_6
REMARK    5  A    between atoms: C_6  and  C_8
REMARK    6  A    between atoms: C_6  and  N_18
REMARK    7  A    between atoms: N_10  and  C_11
REMARK    8  A    between atoms: C_11  and  C_12
REMARK    9  A    between atoms: C_19  and  C_21
REMARK                            x       y       z     vdW  Elec       q    Type
REMARK                         _______ _______ _______ _____ _____    ______ ____
ROOT
ATOM      1  C   UNL     1       2.893   3.582  -0.198  0.00  0.00    +0.167 C 
ATOM      2  C   UNL     1       4.261   3.816  -0.868  0.00  0.00    +0.065 C 
ATOM      3  C   UNL     1       5.319   3.545   0.174  0.00  0.00    -0.034 C 
ATOM      4  C   UNL     1       6.384   2.750   0.144  0.00  0.00    -0.001 A 
ATOM      5  C   UNL     1       6.963   1.930  -0.932  0.00  0.00    +0.010 A 
ATOM      6  C   UNL     1       8.069   1.209  -0.607  0.00  0.00    +0.001 A 
ATOM      7  C   UNL     1       8.649   1.222   0.665  0.00  0.00    +0.002 A 
ATOM      8  C   UNL     1       8.188   1.952   1.711  0.00  0.00    +0.026 A 
ATOM      9  C   UNL     1       7.033   2.758   1.490  0.00  0.00    +0.043 A 
ATOM     10  N   UNL     1       6.401   3.558   2.295  0.00  0.00    -0.375 N 
ATOM     11  C   UNL     1       5.311   4.195   1.553  0.00  0.00    +0.131 C 
ATOM     12  C   UNL     1       3.945   3.880   2.173  0.00  0.00    +0.134 C 
ATOM     13  N   UNL     1       2.919   4.179   1.144  0.00  0.00    -0.276 N 
ATOM     14  C   UNL     1       2.052   5.079   1.640  0.00  0.00    +0.248 C 
ATOM     15  O   UNL     1       1.054   5.473   1.069  0.00  0.00    -0.270 OA
ATOM     16  C   UNL     1       2.484   5.517   2.969  0.00  0.00    +0.042 A 
ATOM     17  C   UNL     1       3.661   4.787   3.326  0.00  0.00    -0.013 A 
ATOM     18  C   UNL     1       4.311   4.976   4.526  0.00  0.00    +0.006 A 
ATOM     19  C   UNL     1       3.768   5.916   5.396  0.00  0.00    +0.000 A 
ATOM     20  C   UNL     1       2.629   6.629   5.079  0.00  0.00    +0.001 A 
ATOM     21  C   UNL     1       1.937   6.461   3.842  0.00  0.00    +0.013 A 
ATOM     22  H   UNL     1       6.614   3.708   3.229  0.00  0.00    +0.160 HD
ENDROOT
BRANCH   1  24
ATOM     23  N   UNL     1       2.569   1.345  -1.203  0.00  0.00    -0.302 N 
ATOM     24  C   UNL     1       2.628   2.103  -0.089  0.00  0.00    +0.235 C 
ATOM     25  O   UNL     1       2.468   1.594   1.000  0.00  0.00    -0.274 OA
ATOM     26  H   UNL     1       2.772   1.737  -2.067  0.00  0.00    +0.150 HD
BRANCH  23  27
ATOM     27  C   UNL     1       2.199  -0.069  -1.108  0.00  0.00    +0.162 C 
BRANCH  27  28
ATOM     28  C   UNL     1       2.917  -0.849  -2.179  0.00  0.00    +0.234 C 
ATOM     29  O   UNL     1       3.672  -0.282  -2.939  0.00  0.00    -0.274 OA
ATOM     30  N   UNL     1       2.720  -2.178  -2.291  0.00  0.00    -0.311 N 
ATOM     31  H   UNL     1       2.062  -2.620  -1.731  0.00  0.00    +0.149 HD
BRANCH  30  32
ATOM     32  C   UNL     1       3.499  -2.954  -3.258  0.00  0.00    +0.135 C 
BRANCH  32  33
ATOM     33  C   UNL     1       3.084  -4.425  -3.184  0.00  0.00    +0.135 C 
ATOM     34  C   UNL     1       3.921  -5.271  -4.176  0.00  0.00    +0.035 C 
ATOM     35  C   UNL     1       3.837  -6.673  -3.512  0.00  0.00    +0.031 C 
ATOM     36  C   UNL     1       3.819  -6.322  -2.009  0.00  0.00    +0.160 C 
ATOM     37  O   UNL     1       3.381  -4.962  -1.886  0.00  0.00    -0.375 OA
ENDBRANCH  32  33
ENDBRANCH  30  32
ENDBRANCH  27  28
BRANCH  27  38
ATOM     38  C   UNL     1       0.688  -0.215  -1.297  0.00  0.00    +0.015 C 
ATOM     39  C   UNL     1      -0.039   0.436  -0.118  0.00  0.00    +0.010 C 
BRANCH  38  41
ATOM     40  C   UNL     1       0.827  -0.305  -3.790  0.00  0.00    +0.004 C 
ATOM     41  C   UNL     1       0.268   0.474  -2.597  0.00  0.00    +0.002 C 
ENDBRANCH  38  41
ENDBRANCH  27  38
ENDBRANCH  23  27
ENDBRANCH   1  24
TORSDOF 7
