REMARK  Name = ZINC46804167
REMARK  7 active torsions:
REMARK  status: ('A' for Active; 'I' for Inactive)
REMARK    1  A    between atoms: C_1  and  C_2
REMARK    2  A    between atoms: C_7  and  N_8
REMARK    3  A    between atoms: N_8  and  C_9
REMARK    4  A    between atoms: C_9  and  C_11
REMARK    5  A    between atoms: C_9  and  C_12
REMARK    6  A    between atoms: N_14  and  C_15
REMARK    7  A    between atoms: C_18  and  N_22
REMARK                            x       y       z     vdW  Elec       q    Type
REMARK                         _______ _______ _______ _____ _____    ______ ____
ROOT
ATOM      1  C   UNL     1      -0.551   0.091   4.770  0.00  0.00    +0.237 C 
ATOM      2  O   UNL     1      -0.964   1.203   4.516  0.00  0.00    -0.273 OA
ATOM      3  N   UNL     1      -0.640  -0.390   6.026  0.00  0.00    -0.283 N 
ATOM      4  H   UNL     1      -0.385  -1.307   6.213  0.00  0.00    +0.155 HD
ENDROOT
BRANCH   3   5
ATOM      5  C   UNL     1      -1.102   0.433   7.059  0.00  0.00    +0.052 A 
ATOM      6  C   UNL     1      -0.983   1.813   6.956  0.00  0.00    +0.027 A 
ATOM      7  C   UNL     1      -1.440   2.623   7.977  0.00  0.00    +0.034 A 
ATOM      8  C   UNL     1      -2.015   2.062   9.103  0.00  0.00    +0.128 A 
ATOM      9  C   UNL     1      -2.135   0.688   9.210  0.00  0.00    +0.054 A 
ATOM     10  C   UNL     1      -1.685  -0.128   8.189  0.00  0.00    +0.064 A 
ATOM     11 CL   UNL     1      -1.843  -1.851   8.320  0.00  0.00    -0.082 Cl
BRANCH   8  12
ATOM     12  N   UNL     1      -2.503   2.933  10.195  0.00  0.00    +0.056 N 
ATOM     13  O   UNL     1      -2.398   4.134  10.103  0.00  0.00    -0.126 OA
ATOM     14  O   UNL     1      -3.006   2.444  11.180  0.00  0.00    -0.126 OA
ENDBRANCH   8  12
ENDBRANCH   3   5
BRANCH   1  15
ATOM     15  C   UNL     1       0.061  -0.753   3.682  0.00  0.00    +0.154 C 
ATOM     16  C   UNL     1       1.507  -1.091   4.051  0.00  0.00    +0.038 C 
BRANCH  15  17
ATOM     17  N   UNL     1       0.041  -0.011   2.419  0.00  0.00    -0.333 N 
ATOM     18  H   UNL     1       0.022   0.959   2.426  0.00  0.00    +0.147 HD
BRANCH  17  25
ATOM     19  C   UNL     1       0.000   1.509   0.014  0.00  0.00    +0.045 C 
ATOM     20  C   UNL     1       0.030   0.003   0.005  0.00  0.00    -0.030 A 
ATOM     21  C   UNL     1       0.044  -0.682  -1.194  0.00  0.00    +0.005 A 
ATOM     22  C   UNL     1       0.072  -2.064  -1.203  0.00  0.00    +0.000 A 
ATOM     23  C   UNL     1       0.085  -2.766  -0.012  0.00  0.00    +0.002 A 
ATOM     24  C   UNL     1       0.071  -2.088   1.191  0.00  0.00    +0.023 A 
ATOM     25  C   UNL     1       0.050  -0.699   1.204  0.00  0.00    +0.031 A 
ENDBRANCH  17  25
ENDBRANCH  15  17
ENDBRANCH   1  15
TORSDOF 5
