REMARK  Name = ZINC38200398
REMARK  5 active torsions:
REMARK  status: ('A' for Active; 'I' for Inactive)
REMARK    1  A    between atoms: C_6  and  N_7
REMARK    2  A    between atoms: N_7  and  S_8
REMARK    3  A    between atoms: S_8  and  C_11
REMARK    4  A    between atoms: N_20  and  C_21
REMARK    5  A    between atoms: C_21  and  N_22
REMARK                            x       y       z     vdW  Elec       q    Type
REMARK                         _______ _______ _______ _____ _____    ______ ____
ROOT
ATOM      1  C   UNL     1      -2.849  -2.922   0.015  0.00  0.00    +0.114 A 
ATOM      2  C   UNL     1      -3.494  -3.136   1.220  0.00  0.00    +0.031 A 
ATOM      3  C   UNL     1      -4.807  -3.564   1.240  0.00  0.00    +0.031 A 
ATOM      4  C   UNL     1      -5.479  -3.778   0.047  0.00  0.00    +0.088 A 
ATOM      5  C   UNL     1      -4.831  -3.562  -1.169  0.00  0.00    +0.159 A 
ATOM      6  C   UNL     1      -3.514  -3.128  -1.178  0.00  0.00    +0.077 A 
ATOM      7  O   UNL     1      -5.717  -3.847  -2.154  0.00  0.00    -0.407 OA
ATOM      8  C   UNL     1      -6.880  -4.229  -1.604  0.00  0.00    +0.420 A 
ATOM      9  O   UNL     1      -7.877  -4.551  -2.222  0.00  0.00    -0.223 OA
ATOM     10  N   UNL     1      -6.773  -4.199  -0.261  0.00  0.00    -0.291 N 
ENDROOT
BRANCH   1  11
ATOM     11  S   UNL     1      -1.173  -2.376   0.001  0.00  0.00    +0.092 S 
ATOM     12  O   UNL     1      -0.629  -2.768  -1.252  0.00  0.00    -0.148 OA
ATOM     13  O   UNL     1      -0.604  -2.781   1.239  0.00  0.00    -0.148 OA
BRANCH  11  14
ATOM     14  N   UNL     1      -1.198  -0.721   0.010  0.00  0.00    -0.098 NA
BRANCH  14  20
ATOM     15  C   UNL     1      -0.017   1.385   0.010  0.00  0.00    +0.028 A 
ATOM     16  C   UNL     1       1.171   2.090   0.002  0.00  0.00    +0.022 A 
ATOM     17  C   UNL     1       2.378   1.415  -0.013  0.00  0.00    +0.041 A 
ATOM     18  C   UNL     1       2.400   0.031  -0.022  0.00  0.00    +0.022 A 
ATOM     19  C   UNL     1       1.216  -0.679  -0.014  0.00  0.00    +0.028 A 
ATOM     20  C   UNL     1       0.002  -0.004   0.002  0.00  0.00    +0.074 A 
ATOM     21 CL   UNL     1       3.869   2.305  -0.024  0.00  0.00    -0.084 Cl
ENDBRANCH  14  20
ENDBRANCH  11  14
ENDBRANCH   1  11
BRANCH  10  22
ATOM     22  C   UNL     1      -7.823  -4.544   0.700  0.00  0.00    +0.054 C 
BRANCH  22  23
ATOM     23  N   UNL     1      -8.604  -3.343   1.026  0.00  0.00    +0.392 N 
ATOM     24  C   UNL     1      -7.742  -2.373   1.712  0.00  0.00    -0.076 C 
ATOM     25  C   UNL     1      -8.528  -1.088   1.981  0.00  0.00    -0.019 C 
ATOM     26  C   UNL     1      -9.738  -1.411   2.862  0.00  0.00    -0.004 C 
ATOM     27  C   UNL     1     -10.590  -2.478   2.171  0.00  0.00    -0.019 C 
ATOM     28  C   UNL     1      -9.728  -3.712   1.894  0.00  0.00    -0.076 C 
ATOM     29  H   UNL     1      -8.958  -2.932   0.175  0.00  0.00    -0.079 HD
ENDBRANCH  22  23
ENDBRANCH  10  22
TORSDOF 5
