REMARK  Name = ZINC04556421
REMARK  9 active torsions:
REMARK  status: ('A' for Active; 'I' for Inactive)
REMARK    1  A    between atoms: C_1  and  C_2
REMARK    2  A    between atoms: C_2  and  N_52
REMARK    3  A    between atoms: C_10  and  O_26
REMARK    4  A    between atoms: C_12  and  C_15
REMARK    5  A    between atoms: C_18  and  O_24
REMARK    6  A    between atoms: C_19  and  O_21
REMARK    7  A    between atoms: O_21  and  C_22
REMARK    8  A    between atoms: C_22  and  C_23
REMARK    9  A    between atoms: O_24  and  C_25
REMARK                            x       y       z     vdW  Elec       q    Type
REMARK                         _______ _______ _______ _____ _____    ______ ____
ROOT
ATOM      1  C   UNL     1       0.919  -0.516   1.030  0.00  0.00    -0.074 C 
ATOM      2  C   UNL     1       2.370  -0.252   0.619  0.00  0.00    +0.018 C 
ATOM      3  C   UNL     1       2.504   1.225   0.264  0.00  0.00    -0.027 A 
ATOM      4  C   UNL     1       1.396   1.958  -0.001  0.00  0.00    -0.021 A 
ATOM      5  S   UNL     1       2.002   3.587  -0.351  0.00  0.00    -0.080 S 
ATOM      6  C   UNL     1       3.677   3.295  -0.154  0.00  0.00    +0.080 A 
ATOM      7  C   UNL     1       3.765   1.936   0.180  0.00  0.00    +0.067 A 
ATOM      8  C   UNL     1       5.122   1.385   0.426  0.00  0.00    +0.220 C 
ATOM      9  N   UNL     1       6.147   2.127   0.108  0.00  0.00    -0.223 NA
ATOM     10  C   UNL     1       6.060   3.421  -0.558  0.00  0.00    +0.224 C 
ATOM     11  N   UNL     1       4.785   4.100  -0.261  0.00  0.00    -0.313 N 
ATOM     12  C   UNL     1      -0.018   1.471   0.010  0.00  0.00    -0.035 C 
ATOM     13  H   UNL     1       4.732   5.062  -0.148  0.00  0.00    +0.149 HD
ATOM     14  N   UNL     1       0.013  -0.011  -0.021  0.00  0.00    +0.383 N 
ATOM     15  H   UNL     1       0.359  -0.320  -0.938  0.00  0.00    -0.081 HD
ENDROOT
BRANCH  10  16
ATOM     16  C   UNL     1       6.175   3.216  -2.046  0.00  0.00    -0.002 A 
ATOM     17  C   UNL     1       5.576   4.112  -2.913  0.00  0.00    +0.011 A 
ATOM     18  C   UNL     1       5.679   3.929  -4.280  0.00  0.00    +0.050 A 
ATOM     19  C   UNL     1       6.383   2.847  -4.783  0.00  0.00    +0.162 A 
ATOM     20  C   UNL     1       6.985   1.946  -3.910  0.00  0.00    +0.162 A 
ATOM     21  C   UNL     1       6.883   2.138  -2.542  0.00  0.00    +0.056 A 
BRANCH  19  22
ATOM     22  O   UNL     1       6.485   2.666  -6.127  0.00  0.00    -0.491 OA
ATOM     23  C   UNL     1       5.842   3.631  -6.962  0.00  0.00    +0.277 C 
ENDBRANCH  19  22
BRANCH  20  24
ATOM     24  O   UNL     1       7.677   0.882  -4.399  0.00  0.00    -0.489 OA
BRANCH  24  25
ATOM     25  C   UNL     1       8.268  -0.002  -3.445  0.00  0.00    +0.226 C 
ATOM     26  C   UNL     1       8.999  -1.129  -4.178  0.00  0.00    +0.048 C 
ENDBRANCH  24  25
ENDBRANCH  20  24
ENDBRANCH  10  16
BRANCH  14  28
ATOM     27  C   UNL     1      -1.857  -0.201   1.584  0.00  0.00    -0.017 C 
ATOM     28  C   UNL     1      -1.350  -0.550   0.183  0.00  0.00    -0.082 C 
ENDBRANCH  14  28
BRANCH   8  29
ATOM     29  O   UNL     1       5.290   0.155   0.963  0.00  0.00    -0.492 OA
ATOM     30  H   UNL     1       6.215  -0.101   1.079  0.00  0.00    +0.294 HD
ENDBRANCH   8  29
TORSDOF 6
