REMARK  Name = ZINC10078187
REMARK  6 active torsions:
REMARK  status: ('A' for Active; 'I' for Inactive)
REMARK    1  A    between atoms: C_1  and  C_2
REMARK    2  A    between atoms: C_8  and  N_10
REMARK    3  A    between atoms: C_14  and  C_16
REMARK    4  A    between atoms: C_16  and  S_17
REMARK    5  A    between atoms: S_17  and  C_18
REMARK    6  A    between atoms: N_23  and  C_24
REMARK                            x       y       z     vdW  Elec       q    Type
REMARK                         _______ _______ _______ _____ _____    ______ ____
ROOT
ATOM      1  C   UNL     1       1.307   1.934  -0.520  0.00  0.00    +0.172 C 
ENDROOT
BRANCH   1   6
ATOM      2  N   UNL     1      -3.465   1.735  -1.062  0.00  0.00    -0.296 N 
ATOM      3  C   UNL     1      -2.305   1.104  -0.795  0.00  0.00    +0.306 C 
ATOM      4  O   UNL     1      -2.302  -0.089  -0.561  0.00  0.00    -0.252 OA
ATOM      5  N   UNL     1      -1.148   1.795  -0.788  0.00  0.00    -0.240 N 
ATOM      6  C   UNL     1       0.013   1.163  -0.521  0.00  0.00    +0.231 C 
ATOM      7  O   UNL     1       0.015  -0.027  -0.288  0.00  0.00    -0.274 OA
ATOM      8  H   UNL     1      -3.468   2.687  -1.249  0.00  0.00    +0.151 HD
ATOM      9  H   UNL     1      -1.150   2.746  -0.975  0.00  0.00    +0.159 HD
BRANCH   2  16
ATOM     10  C   UNL     1      -5.192   1.793  -3.386  0.00  0.00    +0.009 C 
ATOM     11  C   UNL     1      -5.739   1.701  -1.961  0.00  0.00    +0.006 C 
ATOM     12  C   UNL     1      -7.053   0.916  -1.969  0.00  0.00    +0.005 C 
ATOM     13  C   UNL     1      -7.601   0.824  -0.543  0.00  0.00    +0.000 C 
ATOM     14  C   UNL     1      -6.584   0.108   0.348  0.00  0.00    +0.002 C 
ATOM     15  C   UNL     1      -5.271   0.892   0.356  0.00  0.00    +0.022 C 
ATOM     16  C   UNL     1      -4.723   0.984  -1.069  0.00  0.00    +0.077 C 
ENDBRANCH   2  16
ENDBRANCH   1   6
BRANCH   1  17
ATOM     17  S   UNL     1       2.680   0.811  -0.138  0.00  0.00    -0.088 S 
BRANCH  17  18
ATOM     18  C   UNL     1       4.103   1.850  -0.173  0.00  0.00    +0.160 A 
ATOM     19  N   UNL     1       4.188   3.144  -0.416  0.00  0.00    -0.133 NA
ATOM     20  N   UNL     1       5.415   3.765  -0.393  0.00  0.00    -0.125 NA
ATOM     21  C   UNL     1       6.500   3.065  -0.128  0.00  0.00    +0.187 A 
ATOM     22  S   UNL     1       5.815   1.434   0.118  0.00  0.00    -0.024 S 
ATOM     23  N   UNL     1       7.823   3.485  -0.054  0.00  0.00    -0.290 N 
ATOM     24  H   UNL     1       8.533   2.835   0.068  0.00  0.00    +0.154 HD
BRANCH  23  25
ATOM     25  C   UNL     1       8.132   4.846  -0.154  0.00  0.00    +0.068 A 
ATOM     26  C   UNL     1       7.116   5.792  -0.140  0.00  0.00    +0.026 A 
ATOM     27  C   UNL     1       7.424   7.135  -0.239  0.00  0.00    +0.002 A 
ATOM     28  C   UNL     1       8.742   7.539  -0.353  0.00  0.00    +0.003 A 
ATOM     29  C   UNL     1       9.757   6.600  -0.368  0.00  0.00    +0.040 A 
ATOM     30  C   UNL     1       9.457   5.254  -0.263  0.00  0.00    +0.144 A 
ATOM     31  F   UNL     1      10.449   4.337  -0.272  0.00  0.00    -0.204 F 
ENDBRANCH  23  25
ENDBRANCH  17  18
ENDBRANCH   1  17
TORSDOF 5
