REMARK  Name = ZINC36565186
REMARK  15 active torsions:
REMARK  status: ('A' for Active; 'I' for Inactive)
REMARK    1  A    between atoms: C_1  and  C_2
REMARK    2  A    between atoms: C_2  and  C_3
REMARK    3  A    between atoms: C_3  and  N_4
REMARK    4  A    between atoms: N_4  and  C_5
REMARK    5  A    between atoms: C_5  and  C_7
REMARK    6  A    between atoms: C_5  and  C_14
REMARK    7  A    between atoms: C_11  and  O_13
REMARK    8  A    between atoms: N_16  and  C_17
REMARK    9  A    between atoms: C_17  and  S_18
REMARK   10  A    between atoms: S_18  and  C_21
REMARK   11  A    between atoms: C_24  and  C_27
REMARK   12  A    between atoms: C_28  and  C_30
REMARK   13  A    between atoms: C_30  and  C_32
REMARK   14  A    between atoms: C_30  and  C_34
REMARK   15  A    between atoms: C_32  and  C_33
REMARK                            x       y       z     vdW  Elec       q    Type
REMARK                         _______ _______ _______ _____ _____    ______ ____
ROOT
ATOM      1  C   UNL     1      -1.595  -2.580   1.478  0.00  0.00    +0.192 C 
ENDROOT
BRANCH   1   2
ATOM      2  C   UNL     1      -3.068  -2.514   1.788  0.00  0.00    -0.015 A 
ATOM      3  C   UNL     1      -3.841  -1.497   1.258  0.00  0.00    +0.006 A 
ATOM      4  C   UNL     1      -5.193  -1.435   1.540  0.00  0.00    +0.004 A 
ATOM      5  C   UNL     1      -5.775  -2.388   2.353  0.00  0.00    +0.045 A 
ATOM      6  C   UNL     1      -5.002  -3.409   2.886  0.00  0.00    +0.117 A 
ATOM      7  C   UNL     1      -3.647  -3.474   2.596  0.00  0.00    +0.051 A 
BRANCH   6   8
ATOM      8  O   UNL     1      -5.572  -4.349   3.685  0.00  0.00    -0.507 OA
ATOM      9  H   UNL     1      -5.909  -5.120   3.208  0.00  0.00    +0.292 HD
ENDBRANCH   6   8
ENDBRANCH   1   2
BRANCH   1  10
ATOM     10  C   UNL     1      -0.843  -1.673   2.419  0.00  0.00    +0.239 C 
ATOM     11  O   UNL     1      -0.465  -0.585   2.039  0.00  0.00    -0.273 OA
ATOM     12  N   UNL     1      -0.591  -2.072   3.681  0.00  0.00    -0.294 N 
ATOM     13  H   UNL     1      -0.893  -2.942   3.985  0.00  0.00    +0.150 HD
BRANCH  12  14
ATOM     14  C   UNL     1       0.140  -1.191   4.595  0.00  0.00    +0.278 C 
BRANCH  14  15
ATOM     15  S   UNL     1      -1.041  -0.240   5.592  0.00  0.00    +0.013 S 
ATOM     16  O   UNL     1      -0.348   0.574   6.528  0.00  0.00    -0.168 OA
ATOM     17  O   UNL     1      -2.050   0.314   4.758  0.00  0.00    -0.168 OA
BRANCH  15  18
ATOM     18  C   UNL     1      -1.877  -1.442   6.573  0.00  0.00    +0.090 A 
ATOM     19  C   UNL     1      -3.027  -2.043   6.097  0.00  0.00    +0.027 A 
ATOM     20  C   UNL     1      -3.683  -2.986   6.867  0.00  0.00    +0.005 A 
ATOM     21  C   UNL     1      -3.188  -3.327   8.111  0.00  0.00    -0.050 A 
ATOM     22  C   UNL     1      -2.037  -2.726   8.587  0.00  0.00    +0.005 A 
ATOM     23  C   UNL     1      -1.379  -1.787   7.815  0.00  0.00    +0.027 A 
ATOM     24  C   UNL     1      -3.903  -4.354   8.951  0.00  0.00    +0.044 C 
ENDBRANCH  15  18
ENDBRANCH  14  15
ENDBRANCH  12  14
ENDBRANCH   1  10
BRANCH   1  25
ATOM     25  N   UNL     1      -1.366  -2.148   0.097  0.00  0.00    -0.285 N 
ATOM     26  C   UNL     1      -2.162  -2.603  -0.891  0.00  0.00    +0.224 C 
ATOM     27  O   UNL     1      -2.998  -3.449  -0.656  0.00  0.00    -0.275 OA
BRANCH  25  28
ATOM     28  C   UNL     1      -0.273  -1.222  -0.210  0.00  0.00    +0.108 C 
BRANCH  28  30
ATOM     29  C   UNL     1       0.333   1.190  -0.446  0.00  0.00    +0.005 C 
ATOM     30  C   UNL     1      -0.827   0.200  -0.326  0.00  0.00    +0.016 C 
ENDBRANCH  28  30
ENDBRANCH  25  28
BRANCH  26  31
ATOM     31  C   UNL     1      -2.012  -2.060  -2.289  0.00  0.00    +0.105 C 
BRANCH  31  32
ATOM     32  C   UNL     1      -3.341  -2.120  -2.996  0.00  0.00    -0.036 A 
ATOM     33  C   UNL     1      -3.977  -3.335  -3.171  0.00  0.00    +0.004 A 
ATOM     34  C   UNL     1      -5.196  -3.390  -3.820  0.00  0.00    +0.000 A 
ATOM     35  C   UNL     1      -5.781  -2.230  -4.293  0.00  0.00    +0.000 A 
ATOM     36  C   UNL     1      -5.146  -1.015  -4.117  0.00  0.00    +0.000 A 
ATOM     37  C   UNL     1      -3.928  -0.959  -3.465  0.00  0.00    +0.004 A 
ENDBRANCH  31  32
BRANCH  31  38
ATOM     38  C   UNL     1      -0.988  -2.899  -3.056  0.00  0.00    +0.014 C 
ATOM     39  C   UNL     1      -0.717  -2.255  -4.417  0.00  0.00    +0.005 C 
ENDBRANCH  31  38
ENDBRANCH  26  31
ENDBRANCH   1  25
TORSDOF 12
