REMARK  Name = ZINC30571447
REMARK  4 active torsions:
REMARK  status: ('A' for Active; 'I' for Inactive)
REMARK    1  A    between atoms: C_4  and  C_7
REMARK    2  A    between atoms: C_13  and  C_15
REMARK    3  A    between atoms: N_20  and  S_22
REMARK    4  A    between atoms: S_22  and  C_25
REMARK                            x       y       z     vdW  Elec       q    Type
REMARK                         _______ _______ _______ _____ _____    ______ ____
ROOT
ATOM      1  C   UNL     1       0.002  -0.004   0.002  0.00  0.00    +0.134 A 
ATOM      2  N   UNL     1      -0.016   1.323   0.009  0.00  0.00    -0.140 NA
ATOM      3  N   UNL     1       1.064   1.976   0.003  0.00  0.00    -0.125 NA
ATOM      4  C   UNL     1       2.244   1.377  -0.012  0.00  0.00    +0.188 A 
ATOM      5  S   UNL     1       1.767  -0.295  -0.016  0.00  0.00    -0.030 S 
ATOM      6  N   UNL     1       3.518   1.933  -0.021  0.00  0.00    -0.263 N 
ATOM      7  C   UNL     1       3.669   3.272  -0.015  0.00  0.00    +0.223 C 
ATOM      8  O   UNL     1       2.693   3.992  -0.002  0.00  0.00    -0.275 OA
ATOM      9  H   UNL     1       4.403   1.280  -0.032  0.00  0.00    +0.157 HD
ENDROOT
BRANCH   1  13
ATOM     10  C   UNL     1      -3.218  -2.774   0.018  0.00  0.00    +0.000 A 
ATOM     11  C   UNL     1      -3.478  -1.415   0.028  0.00  0.00    +0.001 A 
ATOM     12  C   UNL     1      -2.437  -0.510   0.023  0.00  0.00    +0.010 A 
ATOM     13  C   UNL     1      -1.119  -0.968   0.008  0.00  0.00    +0.009 A 
ATOM     14  C   UNL     1      -0.863  -2.340  -0.007  0.00  0.00    +0.010 A 
ATOM     15  C   UNL     1      -1.913  -3.235   0.004  0.00  0.00    +0.001 A 
ENDBRANCH   1  13
BRANCH   7  16
ATOM     16  C   UNL     1       5.050   3.875  -0.025  0.00  0.00    +0.091 C 
ATOM     17  C   UNL     1       5.793   3.428  -1.285  0.00  0.00    +0.015 C 
ATOM     18  C   UNL     1       7.208   4.013  -1.280  0.00  0.00    +0.018 C 
ATOM     19  C   UNL     1       7.123   5.543  -1.285  0.00  0.00    +0.109 C 
ATOM     20  N   UNL     1       6.287   5.974  -0.156  0.00  0.00    -0.176 NA
ATOM     21  C   UNL     1       4.941   5.403  -0.016  0.00  0.00    +0.122 C 
BRANCH  20  22
ATOM     22  S   UNL     1       6.852   7.082   0.937  0.00  0.00    +0.061 S 
ATOM     23  O   UNL     1       7.860   7.832   0.272  0.00  0.00    -0.153 OA
ATOM     24  O   UNL     1       5.710   7.693   1.523  0.00  0.00    -0.153 OA
BRANCH  22  25
ATOM     25  C   UNL     1       7.657   6.184   2.221  0.00  0.00    +0.105 A 
ATOM     26  C   UNL     1       6.941   5.770   3.329  0.00  0.00    +0.028 A 
ATOM     27  C   UNL     1       7.571   5.061   4.334  0.00  0.00    +0.002 A 
ATOM     28  C   UNL     1       8.920   4.774   4.236  0.00  0.00    +0.000 A 
ATOM     29  C   UNL     1       9.637   5.193   3.131  0.00  0.00    +0.002 A 
ATOM     30  C   UNL     1       9.006   5.898   2.124  0.00  0.00    +0.028 A 
ENDBRANCH  22  25
ENDBRANCH  20  22
ENDBRANCH   7  16
TORSDOF 4
