REMARK  Name = ZINC00138794
REMARK  2 active torsions:
REMARK  status: ('A' for Active; 'I' for Inactive)
REMARK    1  A    between atoms: C_3  and  O_22
REMARK    2  A    between atoms: C_8  and  C_12
REMARK                            x       y       z     vdW  Elec       q    Type
REMARK                         _______ _______ _______ _____ _____    ______ ____
ROOT
ATOM      1  C   UNL     1      -0.017   1.397   0.010  0.00  0.00    +0.015 A 
ATOM      2  C   UNL     1       1.156   2.094   0.002  0.00  0.00    +0.046 A 
ATOM      3  C   UNL     1       2.377   1.422  -0.023  0.00  0.00    +0.120 A 
ATOM      4  C   UNL     1       2.416   0.037  -0.054  0.00  0.00    +0.092 A 
ATOM      5  C   UNL     1       1.233  -0.685  -0.053  0.00  0.00    +0.143 A 
ATOM      6  C   UNL     1       0.002  -0.004   0.002  0.00  0.00    +0.018 A 
ATOM      7  C   UNL     1      -1.210  -0.742   0.043  0.00  0.00    +0.027 A 
ATOM      8  C   UNL     1      -1.138  -2.099   0.236  0.00  0.00    +0.067 A 
ATOM      9  C   UNL     1       0.197  -2.690   0.423  0.00  0.00    +0.345 A 
ATOM     10  O   UNL     1       0.344  -3.731   1.038  0.00  0.00    -0.245 OA
ATOM     11  O   UNL     1       1.256  -2.039  -0.113  0.00  0.00    -0.422 OA
ENDROOT
BRANCH   8  12
ATOM     12  C   UNL     1      -2.359  -2.938   0.257  0.00  0.00    -0.007 A 
ATOM     13  C   UNL     1      -3.309  -2.766   1.264  0.00  0.00    +0.012 A 
ATOM     14  C   UNL     1      -4.444  -3.549   1.282  0.00  0.00    +0.050 A 
ATOM     15  C   UNL     1      -4.647  -4.509   0.301  0.00  0.00    +0.162 A 
ATOM     16  C   UNL     1      -3.704  -4.684  -0.708  0.00  0.00    +0.163 A 
ATOM     17  C   UNL     1      -2.565  -3.898  -0.733  0.00  0.00    +0.058 A 
ATOM     18  O   UNL     1      -3.891  -5.617  -1.682  0.00  0.00    -0.485 OA
ATOM     19  C   UNL     1      -4.863  -6.635  -1.420  0.00  0.00    +0.270 C 
ATOM     20  C   UNL     1      -6.125  -5.963  -0.864  0.00  0.00    +0.270 C 
ATOM     21  O   UNL     1      -5.772  -5.274   0.341  0.00  0.00    -0.485 OA
ENDBRANCH   8  12
BRANCH   3  22
ATOM     22  O   UNL     1       3.536   2.129  -0.018  0.00  0.00    -0.507 OA
ATOM     23  H   UNL     1       3.879   2.315   0.867  0.00  0.00    +0.292 HD
ENDBRANCH   3  22
TORSDOF 2
