REMARK  Name = ZINC39022406
REMARK  8 active torsions:
REMARK  status: ('A' for Active; 'I' for Inactive)
REMARK    1  A    between atoms: C_1  and  C_2
REMARK    2  A    between atoms: C_7  and  C_9
REMARK    3  A    between atoms: C_11  and  O_27
REMARK    4  A    between atoms: N_19  and  C_22
REMARK    5  A    between atoms: C_22  and  C_23
REMARK    6  A    between atoms: C_23  and  C_24
REMARK    7  A    between atoms: C_24  and  C_25
REMARK    8  A    between atoms: C_24  and  C_26
REMARK                            x       y       z     vdW  Elec       q    Type
REMARK                         _______ _______ _______ _____ _____    ______ ____
ROOT
ATOM      1  C   UNL     1       0.090  -5.172   3.144  0.00  0.00    +0.194 C 
ATOM      2  C   UNL     1       0.102  -6.612   2.628  0.00  0.00    +0.167 C 
ATOM      3  C   UNL     1       0.399  -7.552   3.767  0.00  0.00    +0.003 A 
ATOM      4  C   UNL     1      -0.175  -8.807   3.799  0.00  0.00    +0.008 A 
ATOM      5  C   UNL     1       0.100  -9.668   4.846  0.00  0.00    +0.000 A 
ATOM      6  C   UNL     1       0.950  -9.274   5.864  0.00  0.00    +0.002 A 
ATOM      7  C   UNL     1       1.528  -8.020   5.837  0.00  0.00    +0.024 A 
ATOM      8  C   UNL     1       1.254  -7.154   4.787  0.00  0.00    +0.042 A 
ATOM      9  N   UNL     1       1.836  -5.883   4.753  0.00  0.00    -0.270 N 
ATOM     10  C   UNL     1       1.318  -4.917   3.975  0.00  0.00    +0.235 C 
ATOM     11  O   UNL     1       1.846  -3.825   3.945  0.00  0.00    -0.274 OA
ENDROOT
BRANCH   1  18
ATOM     12  C   UNL     1      -0.018   1.503   0.010  0.00  0.00    +0.066 C 
ATOM     13  C   UNL     1       0.002  -0.004   0.002  0.00  0.00    +0.047 A 
ATOM     14  C   UNL     1       0.006  -0.706  -1.158  0.00  0.00    +0.071 A 
ATOM     15  S   UNL     1       0.032  -2.379  -0.535  0.00  0.00    -0.060 S 
ATOM     16  C   UNL     1       0.036  -2.015   1.108  0.00  0.00    +0.165 A 
ATOM     17  N   UNL     1       0.053  -2.891   2.187  0.00  0.00    -0.264 N 
ATOM     18  C   UNL     1       0.070  -4.222   1.974  0.00  0.00    +0.233 C 
ATOM     19  O   UNL     1       0.070  -4.655   0.841  0.00  0.00    -0.274 OA
ATOM     20  N   UNL     1       0.023  -0.700   1.124  0.00  0.00    -0.230 NA
ATOM     21  H   UNL     1       0.054  -2.545   3.093  0.00  0.00    +0.157 HD
ENDBRANCH   1  18
BRANCH   2  22
ATOM     22  O   UNL     1       1.108  -6.749   1.623  0.00  0.00    -0.386 OA
ATOM     23  H   UNL     1       1.173  -7.639   1.250  0.00  0.00    +0.210 HD
ENDBRANCH   2  22
BRANCH   9  24
ATOM     24  C   UNL     1       3.021  -5.604   5.569  0.00  0.00    +0.114 C 
BRANCH  24  25
ATOM     25  C   UNL     1       4.282  -5.925   4.764  0.00  0.00    +0.022 C 
BRANCH  25  26
ATOM     26  C   UNL     1       5.519  -5.634   5.616  0.00  0.00    -0.016 C 
ATOM     27  C   UNL     1       5.549  -6.586   6.813  0.00  0.00    +0.007 C 
ATOM     28  C   UNL     1       6.779  -5.835   4.771  0.00  0.00    +0.007 C 
ENDBRANCH  25  26
ENDBRANCH  24  25
ENDBRANCH   9  24
TORSDOF 5
