REMARK  Name = ZINC16572364
REMARK  9 active torsions:
REMARK  status: ('A' for Active; 'I' for Inactive)
REMARK    1  A    between atoms: C_1  and  C_2
REMARK    2  A    between atoms: C_2  and  C_3
REMARK    3  A    between atoms: C_3  and  C_5
REMARK    4  A    between atoms: C_3  and  C_6
REMARK    5  A    between atoms: C_6  and  C_8
REMARK    6  A    between atoms: C_6  and  N_23
REMARK    7  A    between atoms: C_14  and  C_16
REMARK    8  A    between atoms: N_26  and  C_27
REMARK    9  A    between atoms: C_32  and  C_33
REMARK                            x       y       z     vdW  Elec       q    Type
REMARK                         _______ _______ _______ _____ _____    ______ ____
ROOT
ATOM      1  C   UNL     1      -2.176  -4.469  -0.324  0.00  0.00    +0.163 C 
ENDROOT
BRANCH   1   2
ATOM      2  C   UNL     1      -3.572  -4.773   0.153  0.00  0.00    +0.239 C 
ATOM      3  O   UNL     1      -4.288  -3.876   0.544  0.00  0.00    -0.273 OA
ATOM      4  N   UNL     1      -4.026  -6.043   0.144  0.00  0.00    -0.262 N 
ATOM      5  C   UNL     1      -5.346  -6.311   0.484  0.00  0.00    +0.188 A 
ATOM      6  N   UNL     1      -6.318  -5.483   0.850  0.00  0.00    -0.125 NA
ATOM      7  N   UNL     1      -7.477  -5.897   1.123  0.00  0.00    -0.140 NA
ATOM      8  C   UNL     1      -7.792  -7.185   1.074  0.00  0.00    +0.134 A 
ATOM      9  S   UNL     1      -6.220  -7.872   0.562  0.00  0.00    -0.030 S 
ATOM     10  H   UNL     1      -3.431  -6.769  -0.099  0.00  0.00    +0.157 HD
BRANCH   8  11
ATOM     11  C   UNL     1      -9.076  -7.861   1.361  0.00  0.00    +0.009 A 
ATOM     12  C   UNL     1      -9.181  -9.247   1.237  0.00  0.00    +0.012 A 
ATOM     13  C   UNL     1     -10.379  -9.872   1.511  0.00  0.00    +0.016 A 
ATOM     14  C   UNL     1     -11.480  -9.127   1.898  0.00  0.00    +0.018 A 
ATOM     15  C   UNL     1     -11.383  -7.751   2.017  0.00  0.00    +0.016 A 
ATOM     16  C   UNL     1     -10.189  -7.115   1.751  0.00  0.00    +0.012 A 
ATOM     17 BR   UNL     1     -13.121  -9.991   2.264  0.00  0.00    -0.050 Br
ENDBRANCH   8  11
ENDBRANCH   1   2
BRANCH   1  18
ATOM     18  N   UNL     1      -1.935  -3.026  -0.243  0.00  0.00    -0.288 N 
ATOM     19  C   UNL     1      -0.726  -2.565   0.133  0.00  0.00    +0.304 C 
ATOM     20  O   UNL     1       0.189  -3.343   0.325  0.00  0.00    -0.252 OA
ATOM     21  N   UNL     1      -0.531  -1.241   0.296  0.00  0.00    -0.269 N 
ATOM     22  H   UNL     1      -2.646  -2.403  -0.460  0.00  0.00    +0.151 HD
ATOM     23  H   UNL     1      -1.276  -0.627   0.208  0.00  0.00    +0.156 HD
BRANCH  21  24
ATOM     24  C   UNL     1       0.747  -0.754   0.592  0.00  0.00    +0.038 A 
ATOM     25  C   UNL     1       1.626  -1.519   1.349  0.00  0.00    +0.023 A 
ATOM     26  C   UNL     1       2.886  -1.035   1.639  0.00  0.00    +0.002 A 
ATOM     27  C   UNL     1       3.274   0.209   1.177  0.00  0.00    +0.000 A 
ATOM     28  C   UNL     1       2.402   0.974   0.424  0.00  0.00    +0.005 A 
ATOM     29  C   UNL     1       1.140   0.495   0.130  0.00  0.00    -0.029 A 
ATOM     30  C   UNL     1       0.192   1.326  -0.696  0.00  0.00    +0.045 C 
ENDBRANCH  21  24
ENDBRANCH   1  18
BRANCH   1  31
ATOM     31  C   UNL     1      -2.020  -4.931  -1.774  0.00  0.00    +0.015 C 
ATOM     32  C   UNL     1      -0.559  -4.781  -2.204  0.00  0.00    +0.010 C 
BRANCH  31  34
ATOM     33  C   UNL     1      -4.379  -4.354  -2.361  0.00  0.00    +0.004 C 
ATOM     34  C   UNL     1      -2.908  -4.077  -2.680  0.00  0.00    +0.002 C 
ENDBRANCH  31  34
ENDBRANCH   1  31
TORSDOF 6
