REMARK  Name = ZINC20567434
REMARK  6 active torsions:
REMARK  status: ('A' for Active; 'I' for Inactive)
REMARK    1  A    between atoms: C_1  and  C_2
REMARK    2  A    between atoms: C_5  and  N_9
REMARK    3  A    between atoms: C_7  and  C_8
REMARK    4  A    between atoms: N_19  and  C_22
REMARK    5  A    between atoms: C_22  and  C_24
REMARK    6  A    between atoms: C_22  and  C_25
REMARK                            x       y       z     vdW  Elec       q    Type
REMARK                         _______ _______ _______ _____ _____    ______ ____
ROOT
ATOM      1  N   UNL     1      -1.125  -0.680   0.425  0.00  0.00    -0.250 N 
ATOM      2  C   UNL     1      -0.222  -0.090  -0.437  0.00  0.00    +0.118 A 
ATOM      3  C   UNL     1       0.866  -0.801  -0.841  0.00  0.00    +0.069 A 
ATOM      4  C   UNL     1       1.037  -2.118  -0.378  0.00  0.00    +0.260 A 
ATOM      5  O   UNL     1       2.004  -2.771  -0.733  0.00  0.00    -0.267 OA
ATOM      6  N   UNL     1       0.128  -2.656   0.457  0.00  0.00    -0.274 N 
ATOM      7  H   UNL     1       0.255  -3.687   0.819  0.00  0.00    +0.173 HD
ATOM      8  C   UNL     1      -0.940  -1.940   0.854  0.00  0.00    +0.335 A 
ATOM      9  O   UNL     1      -1.748  -2.439   1.612  0.00  0.00    -0.246 OA
ATOM     10  C   UNL     1       1.899  -0.212  -1.766  0.00  0.00    +0.130 C 
ATOM     11  N   UNL     1       1.361   1.006  -2.389  0.00  0.00    -0.276 NA
ATOM     12  C   UNL     1       0.745   1.856  -1.357  0.00  0.00    +0.191 C 
ATOM     13  N   UNL     1      -0.460   1.192  -0.854  0.00  0.00    -0.317 N 
ATOM     14  H   UNL     1      -1.420   1.728  -0.843  0.00  0.00    +0.149 HD
ENDROOT
BRANCH   1  19
ATOM     15  C   UNL     1      -5.665   2.245   2.170  0.00  0.00    +0.044 C 
ATOM     16  C   UNL     1      -4.459   1.469   1.706  0.00  0.00    -0.047 A 
ATOM     17  C   UNL     1      -4.538   0.687   0.568  0.00  0.00    +0.005 A 
ATOM     18  C   UNL     1      -3.433  -0.022   0.138  0.00  0.00    +0.026 A 
ATOM     19  C   UNL     1      -2.246   0.042   0.856  0.00  0.00    +0.053 A 
ATOM     20  C   UNL     1      -2.171   0.828   1.998  0.00  0.00    +0.030 A 
ATOM     21  C   UNL     1      -3.277   1.539   2.420  0.00  0.00    -0.046 A 
ATOM     22  C   UNL     1      -3.196   2.391   3.660  0.00  0.00    +0.044 C 
ENDBRANCH   1  19
BRANCH  11  23
ATOM     23  C   UNL     1       2.411   1.734  -3.114  0.00  0.00    +0.086 C 
ATOM     24  C   UNL     1       2.817   0.940  -4.358  0.00  0.00    +0.029 C 
BRANCH  23  25
ATOM     25  C   UNL     1       1.891   3.086  -3.528  0.00  0.00    -0.030 A 
ATOM     26  C   UNL     1       0.596   3.214  -3.996  0.00  0.00    +0.005 A 
ATOM     27  C   UNL     1       0.117   4.455  -4.372  0.00  0.00    +0.000 A 
ATOM     28  C   UNL     1       0.935   5.566  -4.288  0.00  0.00    +0.000 A 
ATOM     29  C   UNL     1       2.231   5.437  -3.826  0.00  0.00    +0.000 A 
ATOM     30  C   UNL     1       2.709   4.197  -3.446  0.00  0.00    +0.005 A 
ENDBRANCH  23  25
ENDBRANCH  11  23
TORSDOF 3
