REMARK  Name = ZINC64892822
REMARK  7 active torsions:
REMARK  status: ('A' for Active; 'I' for Inactive)
REMARK    1  A    between atoms: C_1  and  C_2
REMARK    2  A    between atoms: C_5  and  C_8
REMARK    3  A    between atoms: C_8  and  N_9
REMARK    4  A    between atoms: C_21  and  C_22
REMARK    5  A    between atoms: C_21  and  C_23
REMARK    6  A    between atoms: N_25  and  C_26
REMARK    7  A    between atoms: C_26  and  C_27
REMARK                            x       y       z     vdW  Elec       q    Type
REMARK                         _______ _______ _______ _____ _____    ______ ____
ROOT
ATOM      1  N   UNL     1       1.464  -5.153  -0.209  0.00  0.00    -0.276 N 
ATOM      2  C   UNL     1       2.095  -5.357  -1.389  0.00  0.00    +0.264 C 
ATOM      3  O   UNL     1       1.525  -5.210  -2.454  0.00  0.00    -0.268 OA
ATOM      4  C   UNL     1       3.505  -5.764  -1.316  0.00  0.00    +0.106 A 
ATOM      5  C   UNL     1       4.436  -5.867  -2.285  0.00  0.00    +0.041 A 
ATOM      6  C   UNL     1       5.659  -6.289  -1.679  0.00  0.00    +0.008 A 
ATOM      7  C   UNL     1       7.032  -6.595  -2.059  0.00  0.00    +0.017 A 
ATOM      8  C   UNL     1       7.902  -6.972  -1.113  0.00  0.00    +0.048 A 
ATOM      9  S   UNL     1       6.925  -6.944   0.378  0.00  0.00    -0.079 S 
ATOM     10  C   UNL     1       5.375  -6.427  -0.314  0.00  0.00    +0.088 A 
ATOM     11  N   UNL     1       4.082  -6.121  -0.096  0.00  0.00    -0.328 N 
ATOM     12  C   UNL     1       3.299  -6.136   1.146  0.00  0.00    +0.158 C 
ATOM     13  C   UNL     1       2.191  -5.083   1.053  0.00  0.00    +0.129 C 
ATOM     14  C   UNL     1       2.811  -3.691   1.190  0.00  0.00    +0.043 C 
ENDROOT
BRANCH  13  15
ATOM     15  C   UNL     1       1.221  -5.295   2.186  0.00  0.00    +0.238 C 
ATOM     16  O   UNL     1       1.227  -4.544   3.138  0.00  0.00    -0.273 OA
ATOM     17  N   UNL     1       0.346  -6.320   2.142  0.00  0.00    -0.309 N 
ATOM     18  H   UNL     1       0.291  -6.876   1.349  0.00  0.00    +0.149 HD
BRANCH  17  19
ATOM     19  C   UNL     1      -0.521  -6.593   3.291  0.00  0.00    +0.139 C 
BRANCH  19  20
ATOM     20  C   UNL     1      -1.397  -7.780   2.987  0.00  0.00    -0.030 A 
ATOM     21  C   UNL     1      -2.629  -7.595   2.388  0.00  0.00    +0.006 A 
ATOM     22  C   UNL     1      -3.434  -8.684   2.110  0.00  0.00    +0.020 A 
ATOM     23  C   UNL     1      -3.006  -9.960   2.431  0.00  0.00    +0.041 A 
ATOM     24  C   UNL     1      -1.773 -10.145   3.031  0.00  0.00    +0.020 A 
ATOM     25  C   UNL     1      -0.967  -9.056   3.303  0.00  0.00    +0.006 A 
ATOM     26 CL   UNL     1      -4.016 -11.328   2.082  0.00  0.00    -0.084 Cl
ENDBRANCH  19  20
ENDBRANCH  17  19
ENDBRANCH  13  15
BRANCH   1  27
ATOM     27  C   UNL     1       0.008  -4.992  -0.201  0.00  0.00    +0.144 C 
BRANCH  27  32
ATOM     28  C   UNL     1      -1.318   0.591  -0.888  0.00  0.00    +0.044 C 
ATOM     29  C   UNL     1      -0.972  -0.865  -0.709  0.00  0.00    -0.050 A 
ATOM     30  C   UNL     1      -0.776  -1.670  -1.816  0.00  0.00    +0.003 A 
ATOM     31  C   UNL     1      -0.459  -3.005  -1.651  0.00  0.00    +0.005 A 
ATOM     32  C   UNL     1      -0.337  -3.535  -0.380  0.00  0.00    -0.030 A 
ATOM     33  C   UNL     1      -0.532  -2.730   0.726  0.00  0.00    +0.005 A 
ATOM     34  C   UNL     1      -0.846  -1.394   0.562  0.00  0.00    +0.003 A 
ENDBRANCH  27  32
ENDBRANCH   1  27
TORSDOF 5
