REMARK  Name = ZINC15133884
REMARK  8 active torsions:
REMARK  status: ('A' for Active; 'I' for Inactive)
REMARK    1  A    between atoms: C_1  and  C_2
REMARK    2  A    between atoms: C_2  and  O_4
REMARK    3  A    between atoms: O_4  and  C_5
REMARK    4  A    between atoms: C_5  and  C_6
REMARK    5  A    between atoms: C_6  and  C_8
REMARK    6  A    between atoms: C_8  and  O_36
REMARK    7  A    between atoms: C_13  and  C_35
REMARK    8  A    between atoms: C_24  and  C_33
REMARK                            x       y       z     vdW  Elec       q    Type
REMARK                         _______ _______ _______ _____ _____    ______ ____
ROOT
ATOM      1  C   UNL     1       1.120   3.050   4.514  0.00  0.00    +0.133 C 
ATOM      2  C   UNL     1       1.688   1.629   4.791  0.00  0.00    +0.043 C 
ATOM      3  C   UNL     1       1.087   0.742   3.704  0.00  0.00    +0.008 C 
ATOM      4  C   UNL     1       0.745   1.709   2.585  0.00  0.00    +0.002 C 
ATOM      5  C   UNL     1       0.095   2.806   3.362  0.00  0.00    +0.007 C 
ATOM      6  C   UNL     1      -0.187   4.034   2.490  0.00  0.00    +0.010 C 
ATOM      7  C   UNL     1      -0.093   3.574   1.041  0.00  0.00    +0.005 C 
ATOM      8  C   UNL     1      -0.907   2.350   0.911  0.00  0.00    +0.001 C 
ATOM      9  C   UNL     1      -0.213   1.171   1.498  0.00  0.00    -0.001 C 
ATOM     10  C   UNL     1       0.640   0.423   0.545  0.00  0.00    +0.038 C 
ATOM     11  C   UNL     1       0.337   0.464  -0.964  0.00  0.00    +0.152 C 
ATOM     12  C   UNL     1      -0.813   1.400  -1.402  0.00  0.00    +0.102 C 
ATOM     13  C   UNL     1      -1.615   2.039  -0.369  0.00  0.00    +0.007 C 
ATOM     14  C   UNL     1      -2.271   3.270  -0.967  0.00  0.00    +0.074 C 
ATOM     15  C   UNL     1      -2.962   3.059  -2.298  0.00  0.00    +0.171 C 
ATOM     16  C   UNL     1      -2.041   2.368  -3.359  0.00  0.00    +0.068 C 
ATOM     17  C   UNL     1      -1.532   1.083  -2.783  0.00  0.00    +0.043 C 
ATOM     18  O   UNL     1      -4.163   2.286  -2.230  0.00  0.00    -0.346 OA
ATOM     19  C   UNL     1      -5.214   3.250  -1.835  0.00  0.00    +0.191 C 
ATOM     20  C   UNL     1      -4.758   4.387  -2.803  0.00  0.00    +0.191 C 
ATOM     21  O   UNL     1      -3.386   4.308  -2.934  0.00  0.00    -0.346 OA
ATOM     22  C   UNL     1      -2.755   1.072  -0.036  0.00  0.00    +0.014 C 
ATOM     23  O   UNL     1       0.636   1.741  -1.564  0.00  0.00    -0.364 OA
ATOM     24  C   UNL     1      -1.264   2.399   3.982  0.00  0.00    +0.015 C 
ENDROOT
BRANCH   1  25
ATOM     25  C   UNL     1       0.483   3.669   5.662  0.00  0.00    +0.202 C 
ATOM     26  O   UNL     1      -0.676   3.436   5.907  0.00  0.00    -0.291 OA
BRANCH  25  27
ATOM     27  C   UNL     1       1.267   4.603   6.546  0.00  0.00    +0.309 C 
BRANCH  27  28
ATOM     28  O   UNL     1       0.414   5.087   7.617  0.00  0.00    -0.457 OA
BRANCH  28  30
ATOM     29  C   UNL     1       0.140   6.480   9.636  0.00  0.00    +0.136 C 
ATOM     30  C   UNL     1       0.965   5.936   8.499  0.00  0.00    +0.304 C 
ATOM     31  O   UNL     1       2.122   6.263   8.381  0.00  0.00    -0.251 OA
ENDBRANCH  28  30
ENDBRANCH  27  28
ENDBRANCH  25  27
ENDBRANCH   1  25
BRANCH   1  32
ATOM     32  O   UNL     1       2.150   3.945   4.023  0.00  0.00    -0.380 OA
ATOM     33  H   UNL     1       2.879   4.083   4.644  0.00  0.00    +0.211 HD
ENDBRANCH   1  32
TORSDOF 5
