REMARK  Name = ZINC16872848
REMARK  10 active torsions:
REMARK  status: ('A' for Active; 'I' for Inactive)
REMARK    1  A    between atoms: C_1  and  C_2
REMARK    2  A    between atoms: C_2  and  C_3
REMARK    3  A    between atoms: C_6  and  C_9
REMARK    4  A    between atoms: N_13  and  C_17
REMARK    5  A    between atoms: C_17  and  C_18
REMARK    6  A    between atoms: C_18  and  C_19
REMARK    7  A    between atoms: C_19  and  C_20
REMARK    8  A    between atoms: N_22  and  N_23
REMARK    9  A    between atoms: C_24  and  C_26
REMARK   10  A    between atoms: C_31  and  O_32
REMARK                            x       y       z     vdW  Elec       q    Type
REMARK                         _______ _______ _______ _____ _____    ______ ____
ROOT
ATOM      1  C   UNL     1      -3.195   3.220   0.221  0.00  0.00    +0.029 C 
ENDROOT
BRANCH   1   2
ATOM      2  C   UNL     1      -4.250   2.113   0.163  0.00  0.00    +0.115 C 
BRANCH   2   7
ATOM      3  C   UNL     1      -8.423   3.914   2.152  0.00  0.00    +0.028 C 
ATOM      4  C   UNL     1      -7.558   3.561   1.169  0.00  0.00    +0.077 C 
ATOM      5  C   UNL     1      -6.215   2.950   1.270  0.00  0.00    +0.258 C 
ATOM      6  O   UNL     1      -5.714   2.681   2.345  0.00  0.00    -0.269 OA
ATOM      7  N   UNL     1      -5.586   2.714   0.131  0.00  0.00    -0.255 N 
ATOM      8  C   UNL     1      -6.147   3.008  -1.059  0.00  0.00    +0.121 C 
ATOM      9  S   UNL     1      -5.500   2.774  -2.627  0.00  0.00    -0.027 S 
ATOM     10  S   UNL     1      -7.729   3.701  -0.605  0.00  0.00    -0.061 S 
BRANCH   3  14
ATOM     11  C   UNL     1      -7.624   2.829   6.172  0.00  0.00    -0.048 A 
ATOM     12  C   UNL     1      -8.168   4.070   5.889  0.00  0.00    +0.004 A 
ATOM     13  C   UNL     1      -8.431   4.430   4.585  0.00  0.00    +0.008 A 
ATOM     14  C   UNL     1      -8.145   3.538   3.545  0.00  0.00    -0.024 A 
ATOM     15  C   UNL     1      -7.599   2.284   3.840  0.00  0.00    +0.008 A 
ATOM     16  C   UNL     1      -7.338   1.941   5.150  0.00  0.00    +0.004 A 
BRANCH  11  18
ATOM     17  C   UNL     1      -8.570   1.756   8.197  0.00  0.00    +0.009 C 
ATOM     18  C   UNL     1      -7.340   2.443   7.601  0.00  0.00    +0.032 C 
ENDBRANCH  11  18
ENDBRANCH   3  14
ENDBRANCH   2   7
ENDBRANCH   1   2
BRANCH   1  19
ATOM     19  C   UNL     1      -1.799   2.592   0.255  0.00  0.00    +0.099 C 
BRANCH  19  20
ATOM     20  C   UNL     1      -0.760   3.682   0.312  0.00  0.00    +0.229 C 
ATOM     21  O   UNL     1      -1.101   4.846   0.325  0.00  0.00    -0.274 OA
ATOM     22  N   UNL     1       0.549   3.363   0.349  0.00  0.00    -0.234 N 
ATOM     23  H   UNL     1       0.822   2.433   0.339  0.00  0.00    +0.173 HD
BRANCH  22  24
ATOM     24  N   UNL     1       1.516   4.376   0.397  0.00  0.00    -0.230 N 
ATOM     25  C   UNL     1       2.825   4.058   0.428  0.00  0.00    +0.264 C 
ATOM     26  O   UNL     1       3.167   2.891   0.415  0.00  0.00    -0.269 OA
ATOM     27  H   UNL     1       1.242   5.307   0.407  0.00  0.00    +0.173 HD
BRANCH  25  28
ATOM     28  C   UNL     1       3.843   5.125   0.478  0.00  0.00    +0.079 A 
ATOM     29  C   UNL     1       3.454   6.467   0.488  0.00  0.00    +0.017 A 
ATOM     30  C   UNL     1       4.409   7.458   0.539  0.00  0.00    +0.001 A 
ATOM     31  C   UNL     1       5.755   7.131   0.572  0.00  0.00    +0.004 A 
ATOM     32  C   UNL     1       6.153   5.809   0.558  0.00  0.00    +0.046 A 
ATOM     33  C   UNL     1       5.205   4.798   0.511  0.00  0.00    +0.129 A 
BRANCH  33  34
ATOM     34  O   UNL     1       5.595   3.499   0.496  0.00  0.00    -0.506 OA
ATOM     35  H   UNL     1       5.733   3.140  -0.391  0.00  0.00    +0.292 HD
ENDBRANCH  33  34
ENDBRANCH  25  28
ENDBRANCH  22  24
ENDBRANCH  19  20
ENDBRANCH   1  19
TORSDOF 9
