REMARK  Name = ZINC21146756
REMARK  11 active torsions:
REMARK  status: ('A' for Active; 'I' for Inactive)
REMARK    1  A    between atoms: C_1  and  C_2
REMARK    2  A    between atoms: C_2  and  C_3
REMARK    3  A    between atoms: C_6  and  C_9
REMARK    4  A    between atoms: C_11  and  C_27
REMARK    5  A    between atoms: C_14  and  C_17
REMARK    6  A    between atoms: C_21  and  O_24
REMARK    7  A    between atoms: C_22  and  O_23
REMARK    8  A    between atoms: O_24  and  C_25
REMARK    9  A    between atoms: C_25  and  C_26
REMARK   10  A    between atoms: C_32  and  O_33
REMARK   11  A    between atoms: O_33  and  C_34
REMARK                            x       y       z     vdW  Elec       q    Type
REMARK                         _______ _______ _______ _____ _____    ______ ____
ROOT
ATOM      1  C   UNL     1       1.324   1.102  -2.381  0.00  0.00    +0.040 C 
ATOM      2  N   UNL     1       1.972   1.360  -1.308  0.00  0.00    -0.298 NA
ATOM      3  C   UNL     1       1.351   1.549  -0.003  0.00  0.00    +0.084 C 
ATOM      4  N   UNL     1      -0.012   1.005   0.008  0.00  0.00    +0.401 N 
ATOM      5  C   UNL     1      -0.777   1.529  -1.137  0.00  0.00    -0.028 C 
ATOM      6  C   UNL     1      -0.172   0.953  -2.421  0.00  0.00    +0.044 C 
ATOM      7  H   UNL     1       0.031  -0.092  -0.060  0.00  0.00    -0.081 HD
ATOM      8  H   UNL     1      -0.516   1.295   0.941  0.00  0.00    -0.081 HD
ENDROOT
BRANCH   1  12
ATOM      9  C   UNL     1       3.500   0.649  -5.998  0.00  0.00    -0.048 A 
ATOM     10  C   UNL     1       4.171   0.928  -4.821  0.00  0.00    +0.004 A 
ATOM     11  C   UNL     1       3.470   1.077  -3.642  0.00  0.00    +0.010 A 
ATOM     12  C   UNL     1       2.080   0.945  -3.638  0.00  0.00    -0.004 A 
ATOM     13  C   UNL     1       1.410   0.658  -4.829  0.00  0.00    +0.010 A 
ATOM     14  C   UNL     1       2.122   0.518  -6.002  0.00  0.00    +0.004 A 
BRANCH   9  16
ATOM     15  C   UNL     1       4.668  -0.979  -7.458  0.00  0.00    +0.009 C 
ATOM     16  C   UNL     1       4.272   0.488  -7.282  0.00  0.00    +0.032 C 
ENDBRANCH   9  16
ENDBRANCH   1  12
BRANCH   5  17
ATOM     17  C   UNL     1      -2.219   1.106  -1.020  0.00  0.00    -0.016 A 
ATOM     18  C   UNL     1      -2.561   0.029  -0.223  0.00  0.00    +0.006 A 
ATOM     19  C   UNL     1      -3.883  -0.359  -0.111  0.00  0.00    +0.004 A 
ATOM     20  C   UNL     1      -4.868   0.322  -0.803  0.00  0.00    +0.049 A 
ATOM     21  C   UNL     1      -4.531   1.398  -1.607  0.00  0.00    +0.162 A 
ATOM     22  C   UNL     1      -3.200   1.792  -1.717  0.00  0.00    +0.160 A 
BRANCH  22  23
ATOM     23  O   UNL     1      -2.864   2.848  -2.505  0.00  0.00    -0.503 OA
ATOM     24  H   UNL     1      -3.645   3.392  -3.058  0.00  0.00    +0.292 HD
ENDBRANCH  22  23
BRANCH  21  25
ATOM     25  O   UNL     1      -5.498   2.069  -2.289  0.00  0.00    -0.489 OA
BRANCH  25  26
ATOM     26  C   UNL     1      -6.842   1.609  -2.129  0.00  0.00    +0.226 C 
ATOM     27  C   UNL     1      -7.782   2.481  -2.965  0.00  0.00    +0.048 C 
ENDBRANCH  25  26
ENDBRANCH  21  25
ENDBRANCH   5  17
BRANCH   3  28
ATOM     28  C   UNL     1       2.175   0.846   1.046  0.00  0.00    +0.001 A 
ATOM     29  C   UNL     1       1.556   0.269   2.138  0.00  0.00    +0.007 A 
ATOM     30  C   UNL     1       2.311  -0.376   3.100  0.00  0.00    +0.000 A 
ATOM     31  C   UNL     1       3.686  -0.446   2.971  0.00  0.00    +0.004 A 
ATOM     32  C   UNL     1       4.309   0.129   1.881  0.00  0.00    +0.046 A 
ATOM     33  C   UNL     1       3.553   0.773   0.912  0.00  0.00    +0.123 A 
BRANCH  33  34
ATOM     34  O   UNL     1       4.163   1.335  -0.165  0.00  0.00    -0.495 OA
ATOM     35  C   UNL     1       5.586   1.221  -0.237  0.00  0.00    +0.277 C 
ENDBRANCH  33  34
ENDBRANCH   3  28
TORSDOF 8
