REMARK  Name = ZINC32755037
REMARK  8 active torsions:
REMARK  status: ('A' for Active; 'I' for Inactive)
REMARK    1  A    between atoms: C_1  and  C_2
REMARK    2  A    between atoms: C_2  and  C_3
REMARK    3  A    between atoms: C_2  and  C_4
REMARK    4  A    between atoms: C_2  and  C_5
REMARK    5  A    between atoms: C_8  and  C_11
REMARK    6  A    between atoms: N_13  and  N_14
REMARK    7  A    between atoms: C_15  and  C_17
REMARK    8  A    between atoms: C_24  and  C_26
REMARK                            x       y       z     vdW  Elec       q    Type
REMARK                         _______ _______ _______ _____ _____    ______ ____
ROOT
ATOM      1  N   UNL     1      -5.234   8.257  -0.654  0.00  0.00    -0.234 N 
ATOM      2  C   UNL     1      -3.921   8.559  -0.611  0.00  0.00    +0.234 C 
ATOM      3  O   UNL     1      -3.568   9.702  -0.414  0.00  0.00    -0.274 OA
ATOM      4  H   UNL     1      -5.554   7.220  -0.832  0.00  0.00    +0.173 HD
ENDROOT
BRANCH   2   5
ATOM      5  C   UNL     1      -2.892   7.475  -0.807  0.00  0.00    +0.094 C 
ATOM      6  C   UNL     1      -1.489   8.079  -0.708  0.00  0.00    +0.016 C 
ATOM      7  C   UNL     1      -0.444   6.986  -0.940  0.00  0.00    +0.020 C 
ATOM      8  C   UNL     1      -0.585   5.911   0.148  0.00  0.00    +0.108 C 
ATOM      9  N   UNL     1      -1.972   5.428   0.150  0.00  0.00    -0.296 N 
ATOM     10  C   UNL     1      -3.061   6.407   0.277  0.00  0.00    +0.121 C 
ATOM     11  C   UNL     1      -2.241   4.112   0.044  0.00  0.00    +0.253 C 
ATOM     12  O   UNL     1      -3.392   3.733  -0.067  0.00  0.00    -0.269 OA
BRANCH  11  13
ATOM     13  C   UNL     1      -1.147   3.136   0.062  0.00  0.00    +0.074 A 
ATOM     14  C   UNL     1      -1.122   1.843  -0.434  0.00  0.00    +0.021 A 
ATOM     15  C   UNL     1       0.045   1.137  -0.281  0.00  0.00    +0.008 A 
ATOM     16  C   UNL     1       1.104   1.730   0.330  0.00  0.00    +0.046 A 
ATOM     17  S   UNL     1       0.502   3.308   0.722  0.00  0.00    -0.092 S 
ENDBRANCH  11  13
ENDBRANCH   2   5
BRANCH   1  20
ATOM     18  C   UNL     1      -7.503   8.962  -0.514  0.00  0.00    +0.260 C 
ATOM     19  O   UNL     1      -7.857   7.816  -0.712  0.00  0.00    -0.269 OA
ATOM     20  N   UNL     1      -6.191   9.264  -0.471  0.00  0.00    -0.230 N 
ATOM     21  H   UNL     1      -5.870  10.301  -0.293  0.00  0.00    +0.173 HD
BRANCH  18  25
ATOM     22  C   UNL     1     -10.404  12.015   0.039  0.00  0.00    -0.042 A 
ATOM     23  C   UNL     1     -10.810  10.711  -0.185  0.00  0.00    +0.005 A 
ATOM     24  C   UNL     1      -9.873   9.715  -0.365  0.00  0.00    +0.013 A 
ATOM     25  C   UNL     1      -8.513  10.024  -0.322  0.00  0.00    +0.038 A 
ATOM     26  C   UNL     1      -8.110  11.340  -0.089  0.00  0.00    +0.013 A 
ATOM     27  C   UNL     1      -9.057  12.328   0.085  0.00  0.00    +0.005 A 
BRANCH  22  29
ATOM     28  C   UNL     1     -12.299  12.764   1.452  0.00  0.00    +0.015 C 
ATOM     29  C   UNL     1     -11.433  13.098   0.236  0.00  0.00    -0.013 C 
ATOM     30  C   UNL     1     -10.728  14.437   0.464  0.00  0.00    +0.015 C 
ATOM     31  C   UNL     1     -12.318  13.193  -1.009  0.00  0.00    +0.015 C 
ENDBRANCH  22  29
ENDBRANCH  18  25
ENDBRANCH   1  20
TORSDOF 5
