REMARK  Name = ZINC24808107
REMARK  6 active torsions:
REMARK  status: ('A' for Active; 'I' for Inactive)
REMARK    1  A    between atoms: C_1  and  C_2
REMARK    2  A    between atoms: C_2  and  C_4
REMARK    3  A    between atoms: C_2  and  N_12
REMARK    4  A    between atoms: N_12  and  C_13
REMARK    5  A    between atoms: C_13  and  C_15
REMARK    6  A    between atoms: C_13  and  C_21
REMARK                            x       y       z     vdW  Elec       q    Type
REMARK                         _______ _______ _______ _____ _____    ______ ____
ROOT
ATOM      1  C   UNL     1      -3.569   5.792   1.113  0.00  0.00    +0.172 C 
ENDROOT
BRANCH   1   2
ATOM      2  C   UNL     1      -3.538   7.297   1.028  0.00  0.00    +0.242 C 
ATOM      3  O   UNL     1      -2.585   7.856   0.529  0.00  0.00    -0.273 OA
ATOM      4  N   UNL     1      -4.569   8.020   1.508  0.00  0.00    -0.239 N 
ATOM      5  C   UNL     1      -4.540   9.366   1.433  0.00  0.00    +0.303 C 
ATOM      6  O   UNL     1      -3.586   9.926   0.932  0.00  0.00    -0.253 OA
ATOM      7  N   UNL     1      -5.571  10.089   1.913  0.00  0.00    -0.313 N 
ATOM      8  H   UNL     1      -5.433   7.513   1.962  0.00  0.00    +0.159 HD
ATOM      9  H   UNL     1      -5.548  11.187   1.851  0.00  0.00    +0.146 HD
ATOM     10  H   UNL     1      -6.435   9.582   2.366  0.00  0.00    +0.146 HD
ENDBRANCH   1   2
BRANCH   1  11
ATOM     11  C   UNL     1      -3.668   5.372   2.557  0.00  0.00    -0.022 A 
ATOM     12  C   UNL     1      -2.536   5.354   3.350  0.00  0.00    +0.005 A 
ATOM     13  C   UNL     1      -2.627   4.972   4.676  0.00  0.00    +0.000 A 
ATOM     14  C   UNL     1      -3.849   4.601   5.206  0.00  0.00    +0.000 A 
ATOM     15  C   UNL     1      -4.980   4.615   4.411  0.00  0.00    +0.000 A 
ATOM     16  C   UNL     1      -4.889   5.001   3.087  0.00  0.00    +0.005 A 
ENDBRANCH   1  11
BRANCH   1  17
ATOM     17  N   UNL     1      -2.340   5.243   0.526  0.00  0.00    -0.295 NA
ATOM     18  H   UNL     1      -1.551   5.245   1.293  0.00  0.00    +0.124 HD
BRANCH  17  20
ATOM     19  C   UNL     1      -3.133   3.909  -1.368  0.00  0.00    +0.029 C 
ATOM     20  C   UNL     1      -2.553   3.871   0.047  0.00  0.00    +0.083 C 
BRANCH  20  21
ATOM     21  C   UNL     1      -1.238   3.135   0.031  0.00  0.00    -0.012 A 
ATOM     22  C   UNL     1      -0.050   3.842   0.024  0.00  0.00    +0.008 A 
ATOM     23  C   UNL     1       1.156   3.167   0.008  0.00  0.00    +0.020 A 
ATOM     24  C   UNL     1       1.175   1.784   0.000  0.00  0.00    +0.042 A 
ATOM     25  C   UNL     1      -0.013   1.076   0.008  0.00  0.00    +0.040 A 
ATOM     26  C   UNL     1      -1.220   1.752   0.017  0.00  0.00    +0.047 A 
ATOM     27 CL   UNL     1      -2.712   0.864   0.019  0.00  0.00    -0.083 Cl
ATOM     28 CL   UNL     1       2.691   0.937  -0.018  0.00  0.00    -0.083 Cl
ENDBRANCH  20  21
ENDBRANCH  17  20
ENDBRANCH   1  17
TORSDOF 5
