REMARK  Name = ZINC12218753
REMARK  8 active torsions:
REMARK  status: ('A' for Active; 'I' for Inactive)
REMARK    1  A    between atoms: C_4  and  S_7
REMARK    2  A    between atoms: S_7  and  N_10
REMARK    3  A    between atoms: N_10  and  C_11
REMARK    4  A    between atoms: C_14  and  N_17
REMARK    5  A    between atoms: C_20  and  N_56
REMARK    6  A    between atoms: C_23  and  C_24
REMARK    7  A    between atoms: C_23  and  N_56
REMARK    8  A    between atoms: C_24  and  C_25
REMARK                            x       y       z     vdW  Elec       q    Type
REMARK                         _______ _______ _______ _____ _____    ______ ____
ROOT
ATOM      1  C   UNL     1       4.473  -0.091  -2.476  0.00  0.00    +0.048 A 
ATOM      2  C   UNL     1       3.731   1.080  -2.390  0.00  0.00    +0.026 A 
ATOM      3  C   UNL     1       3.962   2.110  -3.281  0.00  0.00    +0.025 A 
ATOM      4  C   UNL     1       4.927   1.970  -4.269  0.00  0.00    +0.030 A 
ATOM      5  C   UNL     1       5.665   0.797  -4.358  0.00  0.00    +0.025 A 
ATOM      6  C   UNL     1       5.438  -0.231  -3.464  0.00  0.00    +0.026 A 
ENDROOT
BRANCH   4   7
ATOM      7  N   UNL     1       5.157   3.013  -5.175  0.00  0.00    -0.330 N 
ATOM      8  C   UNL     1       6.568   3.420  -5.161  0.00  0.00    +0.103 C 
ATOM      9  C   UNL     1       6.812   4.455  -6.261  0.00  0.00    +0.003 C 
ATOM     10  C   UNL     1       5.909   5.668  -6.023  0.00  0.00    -0.069 C 
ATOM     11  C   UNL     1       4.448   5.210  -5.994  0.00  0.00    +0.003 C 
ATOM     12  C   UNL     1       4.273   4.152  -4.902  0.00  0.00    +0.103 C 
BRANCH  10  13
ATOM     13  N   UNL     1       6.090   6.641  -7.117  0.00  0.00    +0.381 N 
ATOM     14  H   UNL     1       5.240   7.209  -7.210  0.00  0.00    -0.086 HD
ATOM     15  H   UNL     1       6.261   6.136  -7.995  0.00  0.00    -0.086 HD
BRANCH  13  16
ATOM     16  C   UNL     1       7.237   7.524  -6.833  0.00  0.00    -0.074 C 
BRANCH  16  17
ATOM     17  C   UNL     1       7.400   8.521  -7.982  0.00  0.00    +0.055 C 
BRANCH  17  18
ATOM     18  C   UNL     1       8.570   9.427  -7.699  0.00  0.00    +0.103 A 
ATOM     19  C   UNL     1       9.845   9.202  -8.062  0.00  0.00    +0.044 A 
ATOM     20  C   UNL     1      10.604  10.300  -7.596  0.00  0.00    +0.041 A 
ATOM     21  C   UNL     1       9.746  11.131  -6.976  0.00  0.00    +0.195 A 
ATOM     22  O   UNL     1       8.515  10.600  -7.047  0.00  0.00    -0.468 OA
ENDBRANCH  17  18
ENDBRANCH  16  17
ENDBRANCH  13  16
ENDBRANCH  10  13
ENDBRANCH   4   7
BRANCH   1  23
ATOM     23  N   UNL     1       4.243  -1.133  -1.569  0.00  0.00    -0.216 N 
ATOM     24  H   UNL     1       3.446  -1.680  -1.651  0.00  0.00    +0.174 HD
BRANCH  23  25
ATOM     25  S   UNL     1       5.332  -1.431  -0.358  0.00  0.00    +0.072 S 
ATOM     26  O   UNL     1       6.611  -1.511  -0.973  0.00  0.00    -0.150 OA
ATOM     27  O   UNL     1       4.794  -2.491   0.420  0.00  0.00    -0.150 OA
BRANCH  25  31
ATOM     28  C   UNL     1       5.404   2.226   2.308  0.00  0.00    +0.000 A 
ATOM     29  C   UNL     1       6.339   2.088   1.299  0.00  0.00    +0.002 A 
ATOM     30  C   UNL     1       6.317   0.971   0.485  0.00  0.00    +0.029 A 
ATOM     31  C   UNL     1       5.361  -0.008   0.680  0.00  0.00    +0.108 A 
ATOM     32  C   UNL     1       4.426   0.130   1.689  0.00  0.00    +0.029 A 
ATOM     33  C   UNL     1       4.448   1.247   2.503  0.00  0.00    +0.002 A 
ENDBRANCH  25  31
ENDBRANCH  23  25
ENDBRANCH   1  23
TORSDOF 8
