REMARK  Name = ZINC06255206
REMARK  11 active torsions:
REMARK  status: ('A' for Active; 'I' for Inactive)
REMARK    1  A    between atoms: C_1  and  C_2
REMARK    2  A    between atoms: C_4  and  C_29
REMARK    3  A    between atoms: C_5  and  C_9
REMARK    4  A    between atoms: C_6  and  C_8
REMARK    5  A    between atoms: C_9  and  S_10
REMARK    6  A    between atoms: S_10  and  C_11
REMARK    7  A    between atoms: N_17  and  N_18
REMARK    8  A    between atoms: C_19  and  C_20
REMARK    9  A    between atoms: C_23  and  O_28
REMARK   10  A    between atoms: C_24  and  O_26
REMARK   11  A    between atoms: O_26  and  C_27
REMARK                            x       y       z     vdW  Elec       q    Type
REMARK                         _______ _______ _______ _____ _____    ______ ____
ROOT
ATOM      1  C   UNL     1       1.632  -6.614  -0.043  0.00  0.00    +0.191 A 
ATOM      2  N   UNL     1       2.667  -7.505  -0.048  0.00  0.00    -0.303 N 
ATOM      3  H   UNL     1       3.611  -7.282  -0.047  0.00  0.00    +0.171 HD
ATOM      4  C   UNL     1       2.139  -8.766  -0.054  0.00  0.00    +0.235 A 
ATOM      5  N   UNL     1       0.832  -8.658  -0.053  0.00  0.00    -0.111 NA
ATOM      6  N   UNL     1       0.511  -7.295  -0.040  0.00  0.00    -0.121 NA
ATOM      7  N   UNL     1       2.859  -9.952  -0.061  0.00  0.00    -0.205 N 
ATOM      8  H   UNL     1       3.829  -9.930  -0.062  0.00  0.00    +0.177 HD
ENDROOT
BRANCH   7   9
ATOM      9  N   UNL     1       2.186 -11.181  -0.067  0.00  0.00    -0.188 NA
ATOM     10  C   UNL     1       2.860 -12.290  -0.073  0.00  0.00    +0.138 C 
BRANCH  10  11
ATOM     11  C   UNL     1       2.151 -13.583  -0.079  0.00  0.00    -0.002 A 
ATOM     12  C   UNL     1       0.754 -13.616  -0.084  0.00  0.00    +0.013 A 
ATOM     13  C   UNL     1       0.094 -14.827  -0.089  0.00  0.00    +0.050 A 
ATOM     14  C   UNL     1       0.813 -16.013  -0.090  0.00  0.00    +0.158 A 
ATOM     15  C   UNL     1       2.205 -15.988  -0.085  0.00  0.00    +0.162 A 
ATOM     16  C   UNL     1       2.875 -14.778  -0.086  0.00  0.00    +0.058 A 
BRANCH  15  17
ATOM     17  O   UNL     1       2.906 -17.153  -0.086  0.00  0.00    -0.491 OA
ATOM     18  C   UNL     1       4.332 -17.053  -0.081  0.00  0.00    +0.277 C 
ENDBRANCH  15  17
BRANCH  14  19
ATOM     19  O   UNL     1       0.156 -17.204  -0.094  0.00  0.00    -0.503 OA
ATOM     20  H   UNL     1      -0.031 -17.546  -0.979  0.00  0.00    +0.292 HD
ENDBRANCH  14  19
ENDBRANCH  10  11
ENDBRANCH   7   9
BRANCH   1  21
ATOM     21  S   UNL     1       1.777  -4.858  -0.034  0.00  0.00    -0.081 S 
BRANCH  21  22
ATOM     22  C   UNL     1       0.059  -4.275  -0.021  0.00  0.00    +0.113 C 
BRANCH  22  27
ATOM     23  C   UNL     1      -0.018   1.503   0.010  0.00  0.00    +0.044 C 
ATOM     24  C   UNL     1       0.002  -0.004   0.002  0.00  0.00    -0.050 A 
ATOM     25  C   UNL     1       0.006  -0.689  -1.199  0.00  0.00    +0.007 A 
ATOM     26  C   UNL     1       0.025  -2.071  -1.206  0.00  0.00    -0.046 A 
ATOM     27  C   UNL     1       0.040  -2.768  -0.013  0.00  0.00    -0.031 A 
ATOM     28  C   UNL     1       0.037  -2.084   1.188  0.00  0.00    -0.046 A 
ATOM     29  C   UNL     1       0.023  -0.702   1.195  0.00  0.00    +0.007 A 
ATOM     30  C   UNL     1       0.054  -2.844   2.489  0.00  0.00    +0.044 C 
ATOM     31  C   UNL     1       0.027  -2.817  -2.516  0.00  0.00    +0.044 C 
ENDBRANCH  22  27
ENDBRANCH  21  22
ENDBRANCH   1  21
TORSDOF 7
