REMARK  Name = ZINC36490640
REMARK  8 active torsions:
REMARK  status: ('A' for Active; 'I' for Inactive)
REMARK    1  A    between atoms: C_1  and  C_2
REMARK    2  A    between atoms: C_5  and  C_9
REMARK    3  A    between atoms: C_6  and  C_8
REMARK    4  A    between atoms: C_9  and  C_11
REMARK    5  A    between atoms: C_9  and  N_20
REMARK    6  A    between atoms: N_13  and  C_14
REMARK    7  A    between atoms: N_20  and  C_21
REMARK    8  A    between atoms: C_27  and  C_29
REMARK                            x       y       z     vdW  Elec       q    Type
REMARK                         _______ _______ _______ _____ _____    ______ ____
ROOT
ATOM      1  C   UNL     1       0.199  -4.489   0.008  0.00  0.00    +0.193 C 
ENDROOT
BRANCH   1   6
ATOM      2  C   UNL     1       1.410   1.129   0.608  0.00  0.00    +0.044 C 
ATOM      3  C   UNL     1       1.094  -0.336   0.452  0.00  0.00    -0.050 A 
ATOM      4  C   UNL     1       2.118  -1.249   0.280  0.00  0.00    +0.004 A 
ATOM      5  C   UNL     1       1.828  -2.593   0.136  0.00  0.00    +0.006 A 
ATOM      6  C   UNL     1       0.514  -3.024   0.165  0.00  0.00    -0.015 A 
ATOM      7  C   UNL     1      -0.509  -2.111   0.338  0.00  0.00    -0.045 A 
ATOM      8  C   UNL     1      -0.219  -0.767   0.486  0.00  0.00    +0.007 A 
ATOM      9  C   UNL     1      -1.940  -2.581   0.369  0.00  0.00    +0.044 C 
ENDBRANCH   1   6
BRANCH   1  10
ATOM     10  C   UNL     1       1.481  -5.280  -0.009  0.00  0.00    +0.238 C 
ATOM     11  O   UNL     1       1.802  -5.893  -1.006  0.00  0.00    -0.273 OA
ATOM     12  N   UNL     1       2.270  -5.308   1.083  0.00  0.00    -0.311 N 
ATOM     13  H   UNL     1       1.979  -4.879   1.903  0.00  0.00    +0.149 HD
BRANCH  12  14
ATOM     14  C   UNL     1       3.568  -5.985   1.031  0.00  0.00    +0.073 C 
ATOM     15  C   UNL     1       3.377  -7.477   1.313  0.00  0.00    +0.022 C 
ATOM     16  C   UNL     1       4.732  -8.184   1.259  0.00  0.00    +0.002 C 
ATOM     17  C   UNL     1       5.664  -7.582   2.313  0.00  0.00    +0.000 C 
ATOM     18  C   UNL     1       5.855  -6.091   2.031  0.00  0.00    +0.002 C 
ATOM     19  C   UNL     1       4.500  -5.383   2.085  0.00  0.00    +0.022 C 
ENDBRANCH  12  14
ENDBRANCH   1  10
BRANCH   1  20
ATOM     20  N   UNL     1      -0.523  -4.701  -1.250  0.00  0.00    -0.281 N 
ATOM     21  C   UNL     1      -1.736  -5.288  -1.240  0.00  0.00    +0.237 C 
ATOM     22  O   UNL     1      -2.245  -5.611  -0.188  0.00  0.00    -0.274 OA
BRANCH  21  23
ATOM     23  C   UNL     1      -2.459  -5.544  -2.537  0.00  0.00    +0.159 C 
ATOM     24  C   UNL     1      -3.027  -4.223  -3.102  0.00  0.00    +0.041 C 
ATOM     25  C   UNL     1      -4.463  -4.228  -2.530  0.00  0.00    +0.098 C 
ATOM     26  C   UNL     1      -4.764  -5.691  -2.293  0.00  0.00    +0.214 C 
ATOM     27  O   UNL     1      -5.871  -6.153  -2.116  0.00  0.00    -0.276 OA
ATOM     28  N   UNL     1      -3.624  -6.407  -2.308  0.00  0.00    -0.304 N 
ATOM     29  H   UNL     1      -3.577  -7.368  -2.183  0.00  0.00    +0.149 HD
ENDBRANCH  21  23
BRANCH  20  30
ATOM     30  C   UNL     1       0.074  -4.273  -2.518  0.00  0.00    +0.077 C 
ATOM     31  C   UNL     1       0.567  -5.500  -3.288  0.00  0.00    +0.022 C 
ATOM     32  C   UNL     1       1.190  -5.053  -4.612  0.00  0.00    +0.002 C 
ATOM     33  C   UNL     1       2.370  -4.120  -4.332  0.00  0.00    +0.000 C 
ATOM     34  C   UNL     1       1.878  -2.894  -3.561  0.00  0.00    +0.002 C 
ATOM     35  C   UNL     1       1.254  -3.340  -2.237  0.00  0.00    +0.022 C 
ENDBRANCH  20  30
ENDBRANCH   1  20
TORSDOF 6
