REMARK  Name = ZINC05649977
REMARK  2 active torsions:
REMARK  status: ('A' for Active; 'I' for Inactive)
REMARK    1  A    between atoms: C_4  and  C_7
REMARK    2  A    between atoms: C_7  and  N_8
REMARK                            x       y       z     vdW  Elec       q    Type
REMARK                         _______ _______ _______ _____ _____    ______ ____
ROOT
ATOM      1  N   UNL     1       1.288  -0.398   0.023  0.00  0.00    -0.262 N 
ATOM      2  C   UNL     1       2.151   0.690  -0.047  0.00  0.00    +0.045 A 
ATOM      3  C   UNL     1       3.538   0.766  -0.103  0.00  0.00    +0.024 A 
ATOM      4  C   UNL     1       4.163   1.996  -0.169  0.00  0.00    +0.002 A 
ATOM      5  C   UNL     1       3.421   3.166  -0.180  0.00  0.00    +0.001 A 
ATOM      6  C   UNL     1       2.043   3.112  -0.125  0.00  0.00    +0.010 A 
ATOM      7  C   UNL     1       1.403   1.877  -0.059  0.00  0.00    +0.010 A 
ATOM      8  C   UNL     1      -0.018   1.477   0.010  0.00  0.00    +0.065 C 
ATOM      9  C   UNL     1      -1.122   2.300   0.020  0.00  0.00    +0.092 C 
ATOM     10  C   UNL     1      -1.205   3.787   0.129  0.00  0.00    +0.277 C 
ATOM     11  O   UNL     1      -0.211   4.484   0.229  0.00  0.00    -0.267 OA
ATOM     12  N   UNL     1      -2.415   4.300   0.110  0.00  0.00    -0.155 NA
ATOM     13  C   UNL     1      -3.504   3.553   0.002  0.00  0.00    +0.149 C 
ATOM     14  S   UNL     1      -2.859   1.891  -0.101  0.00  0.00    -0.051 S 
ATOM     15  N   UNL     1      -4.807   3.958  -0.029  0.00  0.00    -0.339 N 
ATOM     16  C   UNL     1       0.003  -0.003   0.059  0.00  0.00    +0.253 C 
ATOM     17  O   UNL     1      -0.968  -0.732   0.121  0.00  0.00    -0.270 OA
ATOM     18  H   UNL     1      -5.023   4.902   0.032  0.00  0.00    +0.144 HD
ATOM     19  H   UNL     1      -5.517   3.302  -0.112  0.00  0.00    +0.144 HD
ENDROOT
BRANCH   1  20
ATOM     20  C   UNL     1       1.723  -1.796   0.053  0.00  0.00    +0.149 C 
BRANCH  20  24
ATOM     21  C   UNL     1       1.988  -3.292  -3.939  0.00  0.00    +0.000 A 
ATOM     22  C   UNL     1       3.087  -2.696  -3.350  0.00  0.00    +0.000 A 
ATOM     23  C   UNL     1       3.001  -2.212  -2.058  0.00  0.00    +0.005 A 
ATOM     24  C   UNL     1       1.816  -2.324  -1.355  0.00  0.00    -0.030 A 
ATOM     25  C   UNL     1       0.719  -2.925  -1.942  0.00  0.00    +0.005 A 
ATOM     26  C   UNL     1       0.803  -3.405  -3.236  0.00  0.00    +0.000 A 
ENDBRANCH  20  24
ENDBRANCH   1  20
TORSDOF 2
