REMARK  Name = ZINC67202476
REMARK  8 active torsions:
REMARK  status: ('A' for Active; 'I' for Inactive)
REMARK    1  A    between atoms: C_1  and  C_2
REMARK    2  A    between atoms: C_2  and  C_27
REMARK    3  A    between atoms: N_5  and  C_9
REMARK    4  A    between atoms: C_9  and  C_10
REMARK    5  A    between atoms: N_12  and  C_13
REMARK    6  A    between atoms: C_13  and  C_14
REMARK    7  A    between atoms: N_19  and  C_20
REMARK    8  A    between atoms: C_20  and  C_21
REMARK                            x       y       z     vdW  Elec       q    Type
REMARK                         _______ _______ _______ _____ _____    ______ ____
ROOT
ATOM      1  C   UNL     1       4.141  -0.826  -1.440  0.00  0.00    +0.231 C 
ATOM      2  O   UNL     1       4.033   0.364  -1.230  0.00  0.00    -0.274 OA
ATOM      3  N   UNL     1       5.204  -1.296  -2.122  0.00  0.00    -0.316 N 
ATOM      4  H   UNL     1       5.290  -2.248  -2.289  0.00  0.00    +0.149 HD
ENDROOT
BRANCH   1   5
ATOM      5  C   UNL     1       3.086  -1.778  -0.938  0.00  0.00    +0.213 C 
BRANCH   5  10
ATOM      6  C   UNL     1       0.024   1.663  -0.014  0.00  0.00    +0.042 C 
ATOM      7  C   UNL     1       0.164   0.167   0.277  0.00  0.00    +0.113 C 
ATOM      8  C   UNL     1       0.945  -0.519  -0.827  0.00  0.00    +0.247 C 
ATOM      9  O   UNL     1       0.643  -0.596  -1.998  0.00  0.00    -0.273 OA
ATOM     10  N   UNL     1       2.044  -1.026  -0.234  0.00  0.00    -0.215 N 
ATOM     11  C   UNL     1       2.067  -0.757   1.076  0.00  0.00    +0.310 C 
ATOM     12  O   UNL     1       2.958  -1.111   1.823  0.00  0.00    -0.252 OA
ATOM     13  N   UNL     1       0.992  -0.052   1.475  0.00  0.00    -0.285 N 
ATOM     14  H   UNL     1       0.800   0.252   2.376  0.00  0.00    +0.151 HD
BRANCH   7  15
ATOM     15  C   UNL     1      -1.213  -0.477   0.448  0.00  0.00    +0.021 C 
ATOM     16  C   UNL     1      -2.431   0.325  -0.013  0.00  0.00    +0.006 C 
ATOM     17  C   UNL     1      -2.158   0.140   1.481  0.00  0.00    +0.006 C 
ENDBRANCH   7  15
ENDBRANCH   5  10
ENDBRANCH   1   5
BRANCH   3  18
ATOM     18  C   UNL     1       6.229  -0.371  -2.610  0.00  0.00    +0.089 C 
BRANCH  18  19
ATOM     19  C   UNL     1       7.352  -1.163  -3.283  0.00  0.00    -0.051 C 
ATOM     20  C   UNL     1       8.535  -0.226  -3.606  0.00  0.00    -0.016 C 
ATOM     21  C   UNL     1       9.025  -0.744  -4.983  0.00  0.00    -0.020 C 
ATOM     22  C   UNL     1       7.692  -1.154  -5.656  0.00  0.00    -0.078 C 
ATOM     23  N   UNL     1       6.874  -1.724  -4.560  0.00  0.00    +0.383 N 
ATOM     24  H   UNL     1       6.972  -2.728  -4.547  0.00  0.00    -0.081 HD
BRANCH  23  25
ATOM     25  C   UNL     1       5.462  -1.369  -4.759  0.00  0.00    -0.075 C 
BRANCH  25  26
ATOM     26  C   UNL     1       4.915  -2.117  -5.976  0.00  0.00    -0.028 C 
ATOM     27  C   UNL     1       5.524  -1.531  -7.251  0.00  0.00    +0.002 C 
ATOM     28  C   UNL     1       4.977  -2.279  -8.469  0.00  0.00    +0.000 C 
ATOM     29  C   UNL     1       3.455  -2.131  -8.516  0.00  0.00    +0.000 C 
ATOM     30  C   UNL     1       2.846  -2.717  -7.241  0.00  0.00    +0.000 C 
ATOM     31  C   UNL     1       3.393  -1.969  -6.024  0.00  0.00    +0.002 C 
ENDBRANCH  25  26
ENDBRANCH  23  25
ENDBRANCH  18  19
ENDBRANCH   3  18
TORSDOF 7
