REMARK  Name = ZINC22735325
REMARK  11 active torsions:
REMARK  status: ('A' for Active; 'I' for Inactive)
REMARK    1  A    between atoms: C_1  and  C_2
REMARK    2  A    between atoms: C_2  and  C_3
REMARK    3  A    between atoms: C_2  and  C_4
REMARK    4  A    between atoms: C_7  and  N_10
REMARK    5  A    between atoms: C_11  and  C_13
REMARK    6  A    between atoms: N_15  and  C_16
REMARK    7  A    between atoms: C_16  and  C_17
REMARK    8  A    between atoms: C_17  and  C_19
REMARK    9  A    between atoms: C_17  and  N_30
REMARK   10  A    between atoms: N_28  and  C_29
REMARK   11  A    between atoms: N_33  and  C_36
REMARK                            x       y       z     vdW  Elec       q    Type
REMARK                         _______ _______ _______ _____ _____    ______ ____
ROOT
ATOM      1  C   UNL     1       3.809  -1.875   4.251  0.00  0.00    +0.104 C 
ENDROOT
BRANCH   1   2
ATOM      2  C   UNL     1       2.717  -1.601   3.249  0.00  0.00    -0.028 A 
ATOM      3  C   UNL     1       2.167  -2.642   2.523  0.00  0.00    +0.007 A 
ATOM      4  C   UNL     1       1.170  -2.389   1.605  0.00  0.00    +0.024 A 
ATOM      5  C   UNL     1       0.710  -1.086   1.402  0.00  0.00    +0.033 A 
ATOM      6  C   UNL     1       1.261  -0.050   2.135  0.00  0.00    -0.026 A 
ATOM      7  C   UNL     1       2.265  -0.311   3.054  0.00  0.00    +0.010 A 
ATOM      8  C   UNL     1       0.797   1.376   1.976  0.00  0.00    +0.038 C 
ATOM      9  C   UNL     1      -0.011   1.513   0.683  0.00  0.00    +0.024 C 
ATOM     10  C   UNL     1      -1.023   0.362   0.635  0.00  0.00    +0.105 C 
ATOM     11  N   UNL     1      -0.295  -0.895   0.455  0.00  0.00    -0.333 N 
ATOM     12  C   UNL     1      -1.217  -2.039   0.428  0.00  0.00    +0.129 C 
ENDBRANCH   1   2
BRANCH   1  13
ATOM     13  N   UNL     1       3.594  -3.193   4.862  0.00  0.00    -0.297 NA
ATOM     14  C   UNL     1       4.022  -3.198   6.268  0.00  0.00    +0.066 C 
ATOM     15  C   UNL     1       3.708  -4.561   6.889  0.00  0.00    -0.064 C 
ATOM     16  N   UNL     1       4.396  -5.614   6.128  0.00  0.00    +0.379 N 
ATOM     17  C   UNL     1       3.968  -5.608   4.722  0.00  0.00    -0.064 C 
ATOM     18  C   UNL     1       4.282  -4.245   4.101  0.00  0.00    +0.066 C 
ATOM     19  C   UNL     1       4.181  -6.932   6.739  0.00  0.00    -0.096 C 
ATOM     20  H   UNL     1       5.476  -5.402   6.155  0.00  0.00    -0.082 HD
ENDBRANCH   1  13
BRANCH   1  21
ATOM     21  C   UNL     1       5.166  -1.856   3.545  0.00  0.00    +0.128 C 
BRANCH  21  24
ATOM     22  C   UNL     1       7.525  -1.960   4.147  0.00  0.00    +0.299 C 
ATOM     23  O   UNL     1       7.800  -1.851   2.970  0.00  0.00    -0.265 OA
ATOM     24  N   UNL     1       6.236  -1.973   4.539  0.00  0.00    -0.306 N 
ATOM     25  H   UNL     1       5.987  -2.072   5.606  0.00  0.00    +0.149 HD
BRANCH  22  27
ATOM     26  N   UNL     1       9.905  -2.066   4.768  0.00  0.00    -0.278 N 
ATOM     27  C   UNL     1       8.616  -2.079   5.161  0.00  0.00    +0.303 C 
ATOM     28  O   UNL     1       8.341  -2.188   6.338  0.00  0.00    -0.265 OA
ATOM     29  H   UNL     1      10.157  -1.883   3.713  0.00  0.00    +0.155 HD
BRANCH  26  33
ATOM     30  C   UNL     1      12.935  -2.719   7.549  0.00  0.00    -0.045 A 
ATOM     31  C   UNL     1      11.718  -3.360   7.691  0.00  0.00    +0.006 A 
ATOM     32  C   UNL     1      10.711  -3.146   6.771  0.00  0.00    +0.023 A 
ATOM     33  C   UNL     1      10.921  -2.285   5.701  0.00  0.00    +0.034 A 
ATOM     34  C   UNL     1      12.147  -1.646   5.559  0.00  0.00    +0.023 A 
ATOM     35  C   UNL     1      13.148  -1.861   6.485  0.00  0.00    +0.006 A 
BRANCH  30  37
ATOM     36  C   UNL     1      15.256  -3.539   7.848  0.00  0.00    +0.012 C 
ATOM     37  C   UNL     1      14.031  -2.955   8.556  0.00  0.00    +0.013 C 
ATOM     38  C   UNL     1      14.410  -1.629   9.218  0.00  0.00    +0.012 C 
ENDBRANCH  30  37
ENDBRANCH  26  33
ENDBRANCH  22  27
ENDBRANCH  21  24
ENDBRANCH   1  21
TORSDOF 7
