REMARK  Name = ZINC20168485
REMARK  10 active torsions:
REMARK  status: ('A' for Active; 'I' for Inactive)
REMARK    1  A    between atoms: C_1  and  C_2
REMARK    2  A    between atoms: C_2  and  O_3
REMARK    3  A    between atoms: O_3  and  C_4
REMARK    4  A    between atoms: C_4  and  C_6
REMARK    5  A    between atoms: C_10  and  N_11
REMARK    6  A    between atoms: N_11  and  C_12
REMARK    7  A    between atoms: C_12  and  N_14
REMARK    8  A    between atoms: N_14  and  N_15
REMARK    9  A    between atoms: C_16  and  C_18
REMARK   10  A    between atoms: C_20  and  C_23
REMARK                            x       y       z     vdW  Elec       q    Type
REMARK                         _______ _______ _______ _____ _____    ______ ____
ROOT
ATOM      1  C   UNL     1      -1.620   2.964   2.922  0.00  0.00    +0.091 A 
ATOM      2  C   UNL     1      -0.691   2.796   1.798  0.00  0.00    -0.021 A 
ATOM      3  C   UNL     1      -0.742   1.584   1.224  0.00  0.00    -0.004 A 
ATOM      4  S   UNL     1      -1.892   0.646   2.198  0.00  0.00    -0.077 S 
ATOM      5  C   UNL     1      -2.371   1.875   3.318  0.00  0.00    +0.086 A 
ATOM      6  C   UNL     1      -0.013   1.086   0.008  0.00  0.00    +0.043 C 
ATOM      7  C   UNL     1      -0.783   1.609  -1.217  0.00  0.00    +0.005 C 
ATOM      8  C   UNL     1      -0.934   3.129  -1.077  0.00  0.00    +0.000 C 
ATOM      9  C   UNL     1       0.477   3.675  -1.077  0.00  0.00    +0.000 C 
ATOM     10  C   UNL     1       1.164   3.617   0.277  0.00  0.00    +0.005 C 
ATOM     11  C   UNL     1       0.225   3.962   1.425  0.00  0.00    +0.037 C 
ENDROOT
BRANCH   1  12
ATOM     12  C   UNL     1      -1.743   4.250   3.610  0.00  0.00    +0.342 C 
ATOM     13  O   UNL     1      -2.553   5.071   3.224  0.00  0.00    -0.245 OA
BRANCH  12  14
ATOM     14  O   UNL     1      -0.957   4.525   4.671  0.00  0.00    -0.461 OA
BRANCH  14  16
ATOM     15  C   UNL     1      -0.162   5.950   6.479  0.00  0.00    +0.048 C 
ATOM     16  C   UNL     1      -1.133   5.820   5.304  0.00  0.00    +0.229 C 
ENDBRANCH  14  16
ENDBRANCH  12  14
ENDBRANCH   1  12
BRANCH   5  17
ATOM     17  N   UNL     1      -3.287   1.789   4.354  0.00  0.00    -0.290 N 
ATOM     18  H   UNL     1      -3.487   2.666   4.986  0.00  0.00    +0.154 HD
BRANCH  17  19
ATOM     19  C   UNL     1      -3.934   0.629   4.587  0.00  0.00    +0.151 C 
ATOM     20  S   UNL     1      -3.624  -0.737   3.603  0.00  0.00    -0.017 S 
BRANCH  19  21
ATOM     21  N   UNL     1      -4.825   0.546   5.595  0.00  0.00    -0.245 N 
ATOM     22  H   UNL     1      -5.353  -0.400   5.785  0.00  0.00    +0.172 HD
BRANCH  21  23
ATOM     23  N   UNL     1      -5.079   1.664   6.400  0.00  0.00    -0.231 N 
ATOM     24  C   UNL     1      -5.970   1.580   7.408  0.00  0.00    +0.261 C 
ATOM     25  O   UNL     1      -6.554   0.534   7.618  0.00  0.00    -0.269 OA
ATOM     26  H   UNL     1      -4.551   2.610   6.210  0.00  0.00    +0.173 HD
BRANCH  24  27
ATOM     27  C   UNL     1      -6.237   2.755   8.254  0.00  0.00    +0.045 A 
ATOM     28  C   UNL     1      -7.187   2.702   9.336  0.00  0.00    +0.024 A 
ATOM     29  C   UNL     1      -7.358   3.828  10.057  0.00  0.00    -0.013 A 
ATOM     30  S   UNL     1      -6.247   4.980   9.275  0.00  0.00    -0.101 S 
ATOM     31  C   UNL     1      -5.592   3.956   8.042  0.00  0.00    +0.058 A 
ATOM     32  C   UNL     1      -8.272   4.058  11.233  0.00  0.00    +0.051 C 
ENDBRANCH  24  27
ENDBRANCH  21  23
ENDBRANCH  19  21
ENDBRANCH  17  19
ENDBRANCH   5  17
TORSDOF 8
