REMARK  Name = ZINC06201210
REMARK  5 active torsions:
REMARK  status: ('A' for Active; 'I' for Inactive)
REMARK    1  A    between atoms: C_1  and  C_2
REMARK    2  A    between atoms: C_7  and  C_9
REMARK    3  A    between atoms: C_7  and  C_10
REMARK    4  A    between atoms: N_13  and  C_17
REMARK    5  A    between atoms: C_17  and  C_18
REMARK                            x       y       z     vdW  Elec       q    Type
REMARK                         _______ _______ _______ _____ _____    ______ ____
ROOT
ATOM      1  C   UNL     1      -0.019   1.528   0.010  0.00  0.00    +0.007 C 
ATOM      2  C   UNL     1       0.002  -0.004   0.002  0.00  0.00    -0.011 C 
ATOM      3  C   UNL     1       0.726  -0.492  -1.255  0.00  0.00    +0.038 C 
ATOM      4  C   UNL     1       0.711  -2.014  -1.298  0.00  0.00    +0.113 C 
ATOM      5  C   UNL     1       1.264  -2.646  -0.036  0.00  0.00    +0.041 C 
ATOM      6  C   UNL     1       0.787  -2.030   1.268  0.00  0.00    -0.032 C 
ATOM      7  C   UNL     1       0.764  -0.507   1.226  0.00  0.00    +0.009 C 
ATOM      8  C   UNL     1      -0.596  -2.567   1.647  0.00  0.00    +0.011 C 
ATOM      9  C   UNL     1       1.769  -2.455   2.382  0.00  0.00    +0.011 C 
ATOM     10  C   UNL     1      -0.665  -2.529  -1.638  0.00  0.00    +0.247 C 
ATOM     11  O   UNL     1      -1.716  -2.282  -1.086  0.00  0.00    -0.273 OA
ATOM     12  N   UNL     1      -0.504  -3.320  -2.721  0.00  0.00    -0.222 N 
ATOM     13  C   UNL     1       0.750  -3.268  -3.183  0.00  0.00    +0.309 C 
ATOM     14  O   UNL     1       1.137  -3.883  -4.158  0.00  0.00    -0.252 OA
ATOM     15  N   UNL     1       1.532  -2.462  -2.446  0.00  0.00    -0.285 N 
ATOM     16  H   UNL     1       2.452  -2.214  -2.618  0.00  0.00    +0.151 HD
ENDROOT
BRANCH  12  17
ATOM     17  C   UNL     1      -1.571  -4.131  -3.313  0.00  0.00    +0.149 C 
BRANCH  17  18
ATOM     18  C   UNL     1      -2.304  -3.312  -4.377  0.00  0.00    +0.141 C 
ATOM     19  C   UNL     1      -3.494  -4.115  -4.913  0.00  0.00    +0.061 C 
ATOM     20  C   UNL     1      -4.131  -3.341  -6.073  0.00  0.00    +0.165 C 
ATOM     21  O   UNL     1      -3.123  -3.052  -7.047  0.00  0.00    -0.354 OA
ATOM     22  C   UNL     1      -2.021  -2.301  -6.531  0.00  0.00    +0.323 C 
ATOM     23  O   UNL     1      -1.411  -3.022  -5.458  0.00  0.00    -0.349 OA
ENDBRANCH  17  18
ENDBRANCH  12  17
TORSDOF 2
