REMARK  Name = ZINC06137717
REMARK  12 active torsions:
REMARK  status: ('A' for Active; 'I' for Inactive)
REMARK    1  A    between atoms: C_1  and  C_2
REMARK    2  A    between atoms: C_5  and  O_30
REMARK    3  A    between atoms: C_7  and  C_27
REMARK    4  A    between atoms: C_7  and  C_28
REMARK    5  A    between atoms: C_12  and  O_26
REMARK    6  A    between atoms: C_14  and  C_16
REMARK    7  A    between atoms: C_16  and  C_17
REMARK    8  A    between atoms: N_19  and  C_20
REMARK    9  A    between atoms: C_20  and  C_21
REMARK   10  A    between atoms: C_28  and  O_29
REMARK   11  A    between atoms: O_30  and  C_31
REMARK   12  A    between atoms: N_33  and  C_34
REMARK                            x       y       z     vdW  Elec       q    Type
REMARK                         _______ _______ _______ _____ _____    ______ ____
ROOT
ATOM      1  C   UNL     1      -0.147   1.384   0.671  0.00  0.00    +0.012 C 
ATOM      2  C   UNL     1      -0.072  -0.144   0.664  0.00  0.00    -0.023 C 
ATOM      3  C   UNL     1       0.192  -0.635  -0.761  0.00  0.00    +0.011 C 
ATOM      4  C   UNL     1       1.516  -0.057  -1.263  0.00  0.00    +0.046 C 
ATOM      5  C   UNL     1       2.653  -0.517  -0.347  0.00  0.00    +0.186 C 
ATOM      6  C   UNL     1       2.389  -0.026   1.078  0.00  0.00    +0.031 C 
ATOM      7  C   UNL     1       1.064  -0.604   1.580  0.00  0.00    +0.007 C 
ATOM      8  C   UNL     1       0.800  -0.113   3.005  0.00  0.00    +0.007 C 
ATOM      9  C   UNL     1      -0.524  -0.691   3.506  0.00  0.00    +0.032 C 
ATOM     10  C   UNL     1      -1.661  -0.231   2.590  0.00  0.00    +0.119 C 
ATOM     11  C   UNL     1      -1.397  -0.722   1.165  0.00  0.00    +0.032 C 
ATOM     12  C   UNL     1       3.525  -0.485   1.994  0.00  0.00    +0.017 C 
ENDROOT
BRANCH  10  13
ATOM     13  O   UNL     1      -1.730   1.196   2.597  0.00  0.00    -0.391 OA
ATOM     14  H   UNL     1      -1.896   1.577   3.470  0.00  0.00    +0.210 HD
ENDBRANCH  10  13
BRANCH  11  15
ATOM     15  C   UNL     1      -2.533  -0.263   0.249  0.00  0.00    +0.102 C 
BRANCH  15  16
ATOM     16  C   UNL     1      -3.818  -0.929   0.669  0.00  0.00    +0.214 C 
ATOM     17  O   UNL     1      -3.824  -1.696   1.609  0.00  0.00    -0.276 OA
ATOM     18  N   UNL     1      -4.960  -0.673   0.001  0.00  0.00    -0.311 N 
ATOM     19  H   UNL     1      -4.955  -0.060  -0.750  0.00  0.00    +0.149 HD
BRANCH  18  20
ATOM     20  C   UNL     1      -6.209  -1.321   0.409  0.00  0.00    +0.146 C 
BRANCH  20  21
ATOM     21  C   UNL     1      -7.328  -0.869  -0.493  0.00  0.00    +0.007 A 
ATOM     22  C   UNL     1      -7.763  -1.417  -1.654  0.00  0.00    +0.013 A 
ATOM     23  C   UNL     1      -8.819  -0.825  -2.320  0.00  0.00    +0.008 A 
ATOM     24  C   UNL     1      -9.389   0.286  -1.793  0.00  0.00    +0.045 A 
ATOM     25  S   UNL     1      -8.429   0.524  -0.306  0.00  0.00    -0.100 S 
ENDBRANCH  20  21
ENDBRANCH  18  20
ENDBRANCH  15  16
ENDBRANCH  11  15
BRANCH   6  26
ATOM     26  C   UNL     1       2.314   1.502   1.086  0.00  0.00    +0.166 C 
BRANCH  26  27
ATOM     27  O   UNL     1       3.607   2.044   0.808  0.00  0.00    -0.394 OA
ATOM     28  H   UNL     1       3.635   3.010   0.797  0.00  0.00    +0.209 HD
ENDBRANCH  26  27
ENDBRANCH   6  26
BRANCH   5  29
ATOM     29  O   UNL     1       3.890   0.023  -0.815  0.00  0.00    -0.446 OA
BRANCH  29  30
ATOM     30  C   UNL     1       4.582  -0.716  -1.703  0.00  0.00    +0.405 C 
ATOM     31  O   UNL     1       4.147  -1.789  -2.070  0.00  0.00    -0.226 OA
ATOM     32  N   UNL     1       5.757  -0.264  -2.185  0.00  0.00    -0.251 N 
ATOM     33  H   UNL     1       6.138   0.559  -1.841  0.00  0.00    +0.158 HD
BRANCH  32  34
ATOM     34  C   UNL     1       6.428  -0.983  -3.181  0.00  0.00    +0.036 A 
ATOM     35  C   UNL     1       7.810  -0.905  -3.284  0.00  0.00    +0.023 A 
ATOM     36  C   UNL     1       8.469  -1.616  -4.268  0.00  0.00    +0.002 A 
ATOM     37  C   UNL     1       7.753  -2.405  -5.150  0.00  0.00    +0.000 A 
ATOM     38  C   UNL     1       6.376  -2.484  -5.050  0.00  0.00    +0.002 A 
ATOM     39  C   UNL     1       5.712  -1.780  -4.065  0.00  0.00    +0.023 A 
ENDBRANCH  32  34
ENDBRANCH  29  30
ENDBRANCH   5  29
TORSDOF 10
