REMARK  Name = ZINC20733013
REMARK  6 active torsions:
REMARK  status: ('A' for Active; 'I' for Inactive)
REMARK    1  A    between atoms: C_1  and  C_2
REMARK    2  A    between atoms: C_7  and  N_12
REMARK    3  A    between atoms: C_9  and  C_11
REMARK    4  A    between atoms: C_13  and  C_15
REMARK    5  A    between atoms: C_15  and  N_16
REMARK    6  A    between atoms: C_25  and  C_26
REMARK                            x       y       z     vdW  Elec       q    Type
REMARK                         _______ _______ _______ _____ _____    ______ ____
ROOT
ATOM      1  N   UNL     1      -1.365   3.318  -0.510  0.00  0.00    -0.253 N 
ATOM      2  C   UNL     1      -0.282   3.983   0.078  0.00  0.00    +0.080 A 
ATOM      3  C   UNL     1      -0.436   5.277   0.553  0.00  0.00    +0.027 A 
ATOM      4  C   UNL     1       0.634   5.930   1.135  0.00  0.00    +0.002 A 
ATOM      5  C   UNL     1       1.859   5.297   1.247  0.00  0.00    +0.004 A 
ATOM      6  C   UNL     1       2.021   4.007   0.776  0.00  0.00    +0.048 A 
ATOM      7  C   UNL     1       0.954   3.347   0.191  0.00  0.00    +0.150 A 
ATOM      8  O   UNL     1       1.108   2.076  -0.277  0.00  0.00    -0.449 OA
ATOM      9  C   UNL     1      -0.024   1.310  -0.314  0.00  0.00    +0.191 C 
ATOM     10  C   UNL     1       0.002  -0.004   0.002  0.00  0.00    +0.060 C 
ATOM     11  C   UNL     1      -1.277   1.980  -0.722  0.00  0.00    +0.287 C 
ATOM     12  O   UNL     1      -2.192   1.356  -1.224  0.00  0.00    -0.266 OA
ENDROOT
BRANCH  10  13
ATOM     13  C   UNL     1      -1.256  -0.757   0.121  0.00  0.00    -0.007 A 
ATOM     14  C   UNL     1      -2.366  -0.178   0.745  0.00  0.00    +0.009 A 
ATOM     15  C   UNL     1      -3.542  -0.891   0.852  0.00  0.00    +0.001 A 
ATOM     16  C   UNL     1      -3.626  -2.176   0.344  0.00  0.00    +0.001 A 
ATOM     17  C   UNL     1      -2.533  -2.757  -0.274  0.00  0.00    +0.016 A 
ATOM     18  C   UNL     1      -1.350  -2.055  -0.394  0.00  0.00    +0.025 A 
ATOM     19 BR   UNL     1       0.140  -2.848  -1.246  0.00  0.00    -0.050 Br
ENDBRANCH  10  13
BRANCH   1  20
ATOM     20  C   UNL     1      -2.572   4.054  -0.896  0.00  0.00    +0.209 C 
BRANCH  20  22
ATOM     21  N   UNL     1      -3.425   5.249  -2.887  0.00  0.00    -0.311 N 
ATOM     22  C   UNL     1      -2.430   4.542  -2.315  0.00  0.00    +0.231 C 
ATOM     23  O   UNL     1      -1.421   4.298  -2.942  0.00  0.00    -0.274 OA
ATOM     24  H   UNL     1      -4.340   5.470  -2.318  0.00  0.00    +0.149 HD
BRANCH  21  30
ATOM     25  C   UNL     1      -6.520   7.810  -4.413  0.00  0.00    +0.008 C 
ATOM     26  C   UNL     1      -5.634   6.580  -4.205  0.00  0.00    -0.009 C 
ATOM     27  C   UNL     1      -6.064   5.473  -5.170  0.00  0.00    +0.003 C 
ATOM     28  C   UNL     1      -5.178   4.243  -4.962  0.00  0.00    +0.002 C 
ATOM     29  C   UNL     1      -3.718   4.615  -5.231  0.00  0.00    +0.022 C 
ATOM     30  C   UNL     1      -3.288   5.722  -4.266  0.00  0.00    +0.076 C 
ATOM     31  C   UNL     1      -4.174   6.952  -4.474  0.00  0.00    +0.009 C 
ATOM     32  C   UNL     1      -3.744   8.059  -3.509  0.00  0.00    +0.009 C 
ENDBRANCH  21  30
ENDBRANCH  20  22
ENDBRANCH   1  20
TORSDOF 4
