REMARK  Name = ZINC40661393
REMARK  8 active torsions:
REMARK  status: ('A' for Active; 'I' for Inactive)
REMARK    1  A    between atoms: C_1  and  C_2
REMARK    2  A    between atoms: C_2  and  C_3
REMARK    3  A    between atoms: C_3  and  C_5
REMARK    4  A    between atoms: C_3  and  N_6
REMARK    5  A    between atoms: C_8  and  N_25
REMARK    6  A    between atoms: C_9  and  N_13
REMARK    7  A    between atoms: N_13  and  C_14
REMARK    8  A    between atoms: C_22  and  C_24
REMARK                            x       y       z     vdW  Elec       q    Type
REMARK                         _______ _______ _______ _____ _____    ______ ____
ROOT
ATOM      1  N   UNL     1      -2.114   0.639  -1.045  0.00  0.00    -0.325 N 
ATOM      2  C   UNL     1      -3.491   0.516  -1.135  0.00  0.00    +0.155 A 
ATOM      3  C   UNL     1      -4.140   0.720  -2.350  0.00  0.00    +0.205 A 
ATOM      4  C   UNL     1      -5.524   0.585  -2.388  0.00  0.00    +0.159 A 
ATOM      5  N   UNL     1      -6.174   0.269  -1.269  0.00  0.00    -0.218 NA
ATOM      6  C   UNL     1      -5.524   0.085  -0.139  0.00  0.00    +0.225 A 
ATOM      7  N   UNL     1      -4.213   0.198  -0.063  0.00  0.00    -0.218 NA
ATOM      8  H   UNL     1      -1.595   0.872  -1.831  0.00  0.00    +0.148 HD
ENDROOT
BRANCH   3   9
ATOM      9  N   UNL     1      -3.377   1.070  -3.569  0.00  0.00    +0.063 N 
ATOM     10  O   UNL     1      -2.960   0.197  -4.293  0.00  0.00    -0.126 OA
ATOM     11  O   UNL     1      -3.171   2.230  -3.840  0.00  0.00    -0.126 OA
ENDBRANCH   3   9
BRANCH   1  12
ATOM     12  C   UNL     1      -1.441   0.417   0.238  0.00  0.00    +0.068 C 
ATOM     13  C   UNL     1      -1.173  -1.079   0.421  0.00  0.00    +0.028 C 
BRANCH  12  15
ATOM     14  C   UNL     1      -0.389   2.683   0.199  0.00  0.00    +0.005 C 
ATOM     15  C   UNL     1      -0.114   1.179   0.256  0.00  0.00    +0.018 C 
ENDBRANCH  12  15
ENDBRANCH   1  12
BRANCH   4  16
ATOM     16  N   UNL     1      -6.218   0.778  -3.574  0.00  0.00    -0.297 N 
ATOM     17  H   UNL     1      -5.733   0.916  -4.402  0.00  0.00    +0.154 HD
BRANCH  16  18
ATOM     18  C   UNL     1      -7.611   0.773  -3.575  0.00  0.00    +0.042 A 
ATOM     19  C   UNL     1      -8.310   1.131  -2.441  0.00  0.00    +0.024 A 
ATOM     20  C   UNL     1      -9.701   1.128  -2.435  0.00  0.00    +0.004 A 
ATOM     21  C   UNL     1     -10.410   0.774  -3.543  0.00  0.00    +0.026 A 
ATOM     22  C   UNL     1      -9.738   0.402  -4.720  0.00  0.00    +0.048 A 
ATOM     23  C   UNL     1      -8.321   0.406  -4.738  0.00  0.00    +0.020 A 
ATOM     24  C   UNL     1      -7.652   0.039  -5.918  0.00  0.00    +0.013 A 
ATOM     25  C   UNL     1      -8.405  -0.304  -7.006  0.00  0.00    +0.021 A 
ATOM     26  C   UNL     1      -9.795  -0.283  -6.924  0.00  0.00    +0.013 A 
ATOM     27  N   UNL     1     -10.415   0.050  -5.818  0.00  0.00    -0.358 N 
ATOM     28  C   UNL     1     -10.607  -0.664  -8.134  0.00  0.00    +0.063 C 
ATOM     29  H   UNL     1     -11.385   0.053  -5.799  0.00  0.00    +0.166 HD
ENDBRANCH  16  18
ENDBRANCH   4  16
TORSDOF 5
