REMARK  Name = ZINC05908149
REMARK  6 active torsions:
REMARK  status: ('A' for Active; 'I' for Inactive)
REMARK    1  A    between atoms: C_1  and  C_2
REMARK    2  A    between atoms: C_2  and  C_3
REMARK    3  A    between atoms: C_3  and  C_5
REMARK    4  A    between atoms: C_3  and  N_6
REMARK    5  A    between atoms: C_9  and  O_11
REMARK    6  A    between atoms: C_12  and  C_19
REMARK                            x       y       z     vdW  Elec       q    Type
REMARK                         _______ _______ _______ _____ _____    ______ ____
ROOT
ATOM      1  N   UNL     1      -2.073  -1.912  -0.121  0.00  0.00    -0.244 N 
ATOM      2  C   UNL     1      -2.574  -2.740  -1.097  0.00  0.00    +0.132 A 
ATOM      3  C   UNL     1      -2.260  -4.005  -0.744  0.00  0.00    +0.072 A 
ATOM      4  C   UNL     1      -1.548  -3.948   0.477  0.00  0.00    +0.238 A 
ATOM      5  N   UNL     1      -1.436  -2.699   0.838  0.00  0.00    -0.131 NA
ATOM      6  C   UNL     1      -2.555  -5.302  -1.431  0.00  0.00    +0.117 C 
ATOM      7  S   UNL     1      -4.130  -5.309  -2.290  0.00  0.00    -0.138 S 
ATOM      8  C   UNL     1      -3.956  -4.151  -3.655  0.00  0.00    +0.166 C 
ATOM      9  C   UNL     1      -3.854  -2.745  -3.210  0.00  0.00    +0.228 C 
ATOM     10  O   UNL     1      -4.431  -1.944  -3.915  0.00  0.00    -0.275 OA
ATOM     11  N   UNL     1      -3.246  -2.231  -2.183  0.00  0.00    -0.270 N 
ATOM     12  H   UNL     1      -3.273  -1.262  -2.183  0.00  0.00    +0.156 HD
ENDROOT
BRANCH   6  13
ATOM     13  C   UNL     1      -2.563  -6.403  -0.402  0.00  0.00    -0.011 A 
ATOM     14  C   UNL     1      -1.483  -7.260  -0.297  0.00  0.00    +0.008 A 
ATOM     15  C   UNL     1      -1.490  -8.269   0.646  0.00  0.00    +0.020 A 
ATOM     16  C   UNL     1      -2.579  -8.424   1.487  0.00  0.00    +0.042 A 
ATOM     17  C   UNL     1      -3.659  -7.567   1.383  0.00  0.00    +0.040 A 
ATOM     18  C   UNL     1      -3.650  -6.553   0.442  0.00  0.00    +0.047 A 
ATOM     19 CL   UNL     1      -5.003  -5.473   0.314  0.00  0.00    -0.083 Cl
ATOM     20 CL   UNL     1      -2.588  -9.693   2.671  0.00  0.00    -0.083 Cl
ENDBRANCH   6  13
BRANCH   1  21
ATOM     21  C   UNL     1      -2.183  -0.451  -0.096  0.00  0.00    +0.106 C 
ATOM     22  C   UNL     1      -2.926  -0.017   1.169  0.00  0.00    +0.032 C 
BRANCH  21  24
ATOM     23  C   UNL     1      -0.897   1.689  -0.202  0.00  0.00    +0.006 C 
ATOM     24  C   UNL     1      -0.783   0.166  -0.102  0.00  0.00    +0.023 C 
ENDBRANCH  21  24
ENDBRANCH   1  21
BRANCH   4  25
ATOM     25  O   UNL     1      -1.057  -5.017   1.159  0.00  0.00    -0.491 OA
ATOM     26  H   UNL     1      -0.129  -5.211   0.970  0.00  0.00    +0.294 HD
ENDBRANCH   4  25
TORSDOF 4
