REMARK  Name = ZINC19561468
REMARK  8 active torsions:
REMARK  status: ('A' for Active; 'I' for Inactive)
REMARK    1  A    between atoms: C_1  and  C_2
REMARK    2  A    between atoms: C_3  and  C_29
REMARK    3  A    between atoms: N_9  and  C_12
REMARK    4  A    between atoms: C_12  and  C_13
REMARK    5  A    between atoms: C_13  and  O_28
REMARK    6  A    between atoms: N_16  and  C_19
REMARK    7  A    between atoms: C_19  and  C_20
REMARK    8  A    between atoms: N_22  and  C_23
REMARK                            x       y       z     vdW  Elec       q    Type
REMARK                         _______ _______ _______ _____ _____    ______ ____
ROOT
ATOM      1  C   UNL     1      -2.700   0.733   1.552  0.00  0.00    +0.081 C 
ATOM      2  C   UNL     1      -1.648  -0.198   2.162  0.00  0.00    +0.018 C 
ATOM      3  C   UNL     1      -2.055  -0.549   3.595  0.00  0.00    -0.075 C 
ATOM      4  N   UNL     1      -3.370  -1.203   3.587  0.00  0.00    +0.386 N 
ATOM      5  C   UNL     1      -4.404  -0.310   3.050  0.00  0.00    -0.075 C 
ATOM      6  C   UNL     1      -4.068   0.048   1.600  0.00  0.00    +0.018 C 
ATOM      7  H   UNL     1      -3.305  -2.078   2.924  0.00  0.00    -0.081 HD
ENDROOT
BRANCH   1   8
ATOM      8  O   UNL     1      -2.749   1.951   2.298  0.00  0.00    -0.387 OA
ATOM      9  H   UNL     1      -3.000   1.930   3.369  0.00  0.00    +0.210 HD
ENDBRANCH   1   8
BRANCH   1  10
ATOM     10  C   UNL     1      -2.331   1.038   0.099  0.00  0.00    +0.160 C 
BRANCH  10  19
ATOM     11  C   UNL     1       0.005   5.931   0.329  0.00  0.00    +0.045 C 
ATOM     12  C   UNL     1       0.998   4.810   0.160  0.00  0.00    -0.026 A 
ATOM     13  C   UNL     1       2.312   5.073   0.079  0.00  0.00    -0.008 A 
ATOM     14  S   UNL     1       3.045   3.458  -0.110  0.00  0.00    -0.073 S 
ATOM     15  C   UNL     1       1.565   2.479  -0.075  0.00  0.00    +0.116 A 
ATOM     16  C   UNL     1       0.544   3.434   0.083  0.00  0.00    +0.075 A 
ATOM     17  C   UNL     1      -0.788   2.911   0.144  0.00  0.00    +0.262 A 
ATOM     18  O   UNL     1      -1.741   3.659   0.279  0.00  0.00    -0.267 OA
ATOM     19  N   UNL     1      -0.972   1.581   0.044  0.00  0.00    -0.296 N 
ATOM     20  C   UNL     1       0.078   0.732  -0.102  0.00  0.00    +0.203 A 
ATOM     21  N   UNL     1       1.304   1.178  -0.161  0.00  0.00    -0.230 NA
ATOM     22  C   UNL     1       3.002   6.411   0.135  0.00  0.00    +0.052 C 
ENDBRANCH  10  19
ENDBRANCH   1  10
BRANCH   4  23
ATOM     23  C   UNL     1      -3.730  -1.678   4.930  0.00  0.00    +0.019 C 
BRANCH  23  24
ATOM     24  C   UNL     1      -4.947  -2.562   4.841  0.00  0.00    +0.197 C 
ATOM     25  O   UNL     1      -5.396  -2.869   3.756  0.00  0.00    -0.278 OA
ATOM     26  N   UNL     1      -5.537  -3.013   5.966  0.00  0.00    -0.314 N 
ATOM     27  H   UNL     1      -5.130  -2.735   6.949  0.00  0.00    +0.149 HD
BRANCH  26  28
ATOM     28  C   UNL     1      -6.720  -3.873   5.879  0.00  0.00    +0.073 C 
ATOM     29  C   UNL     1      -7.997  -3.010   5.814  0.00  0.00    +0.022 C 
ATOM     30  C   UNL     1      -9.034  -3.804   6.645  0.00  0.00    +0.002 C 
ATOM     31  C   UNL     1      -8.181  -4.370   7.808  0.00  0.00    +0.002 C 
ATOM     32  C   UNL     1      -6.837  -4.737   7.146  0.00  0.00    +0.022 C 
ENDBRANCH  26  28
ENDBRANCH  23  24
ENDBRANCH   4  23
TORSDOF 6
