REMARK  Name = ZINC12381404
REMARK  8 active torsions:
REMARK  status: ('A' for Active; 'I' for Inactive)
REMARK    1  A    between atoms: C_1  and  C_2
REMARK    2  A    between atoms: C_2  and  C_3
REMARK    3  A    between atoms: C_2  and  C_4
REMARK    4  A    between atoms: C_2  and  C_5
REMARK    5  A    between atoms: C_12  and  N_25
REMARK    6  A    between atoms: C_13  and  C_14
REMARK    7  A    between atoms: C_19  and  C_22
REMARK    8  A    between atoms: C_26  and  C_28
REMARK                            x       y       z     vdW  Elec       q    Type
REMARK                         _______ _______ _______ _____ _____    ______ ____
ROOT
ATOM      1  C   UNL     1       3.399   2.870  -7.049  0.00  0.00    -0.000 C 
ATOM      2  C   UNL     1       2.609   2.235  -5.901  0.00  0.00    +0.009 C 
ATOM      3  C   UNL     1       3.512   2.072  -4.676  0.00  0.00    +0.037 C 
ATOM      4  C   UNL     1       4.168   3.412  -4.369  0.00  0.00    -0.023 A 
ATOM      5  C   UNL     1       4.222   4.390  -5.299  0.00  0.00    -0.004 A 
ATOM      6  S   UNL     1       5.058   5.730  -4.500  0.00  0.00    -0.077 S 
ATOM      7  C   UNL     1       5.327   5.006  -2.949  0.00  0.00    +0.085 A 
ATOM      8  C   UNL     1       4.771   3.742  -3.089  0.00  0.00    +0.069 A 
ATOM      9  C   UNL     1       3.689   4.336  -6.698  0.00  0.00    +0.046 C 
ENDROOT
BRANCH   8  10
ATOM     10  C   UNL     1       4.787   2.777  -1.985  0.00  0.00    +0.249 C 
ATOM     11  O   UNL     1       5.718   2.003  -1.866  0.00  0.00    -0.270 OA
ATOM     12  N   UNL     1       3.769   2.748  -1.101  0.00  0.00    -0.297 N 
ATOM     13  C   UNL     1       3.771   1.788   0.011  0.00  0.00    +0.109 C 
ATOM     14  C   UNL     1       2.457   1.001  -0.016  0.00  0.00    +0.032 C 
ATOM     15  C   UNL     1       1.280   1.980   0.001  0.00  0.00    +0.078 C 
ATOM     16  C   UNL     1       1.337   2.869  -1.244  0.00  0.00    +0.032 C 
ATOM     17  C   UNL     1       2.638   3.676  -1.232  0.00  0.00    +0.109 C 
BRANCH  15  18
ATOM     18  C   UNL     1      -0.014   1.209   0.009  0.00  0.00    +0.214 C 
ATOM     19  O   UNL     1       0.002  -0.004   0.002  0.00  0.00    -0.276 OA
ATOM     20  N   UNL     1      -1.191   1.867   0.018  0.00  0.00    -0.329 N 
ATOM     21  H   UNL     1      -2.024   1.370   0.019  0.00  0.00    +0.145 HD
ATOM     22  H   UNL     1      -1.204   2.837   0.023  0.00  0.00    +0.145 HD
ENDBRANCH  15  18
ENDBRANCH   8  10
BRANCH   1  24
ATOM     23  C   UNL     1       3.358   3.455  -9.478  0.00  0.00    +0.011 C 
ATOM     24  C   UNL     1       2.574   2.804  -8.336  0.00  0.00    -0.035 C 
ATOM     25  C   UNL     1       2.287   1.342  -8.684  0.00  0.00    +0.011 C 
ATOM     26  C   UNL     1       1.253   3.550  -8.134  0.00  0.00    +0.011 C 
ENDBRANCH   1  24
BRANCH   7  27
ATOM     27  N   UNL     1       5.949   5.554  -1.839  0.00  0.00    -0.275 N 
ATOM     28  C   UNL     1       6.433   6.811  -1.890  0.00  0.00    +0.249 C 
ATOM     29  O   UNL     1       6.324   7.463  -2.910  0.00  0.00    -0.270 OA
ATOM     30  H   UNL     1       6.035   5.034  -1.025  0.00  0.00    +0.156 HD
BRANCH  28  31
ATOM     31  C   UNL     1       7.095   7.396  -0.707  0.00  0.00    +0.037 A 
ATOM     32  C   UNL     1       7.216   6.651   0.469  0.00  0.00    +0.016 A 
ATOM     33  C   UNL     1       7.840   7.200   1.568  0.00  0.00    +0.039 A 
ATOM     34  C   UNL     1       8.337   8.493   1.513  0.00  0.00    +0.123 A 
ATOM     35  C   UNL     1       8.214   9.240   0.351  0.00  0.00    +0.039 A 
ATOM     36  C   UNL     1       7.597   8.698  -0.757  0.00  0.00    +0.016 A 
ATOM     37  F   UNL     1       8.943   9.029   2.595  0.00  0.00    -0.205 F 
ENDBRANCH  28  31
ENDBRANCH   7  27
TORSDOF 5
