REMARK  Name = ZINC26817676
REMARK  2 active torsions:
REMARK  status: ('A' for Active; 'I' for Inactive)
REMARK    1  A    between atoms: C_16  and  C_18
REMARK    2  A    between atoms: N_23  and  C_26
REMARK                            x       y       z     vdW  Elec       q    Type
REMARK                         _______ _______ _______ _____ _____    ______ ____
ROOT
ATOM      1  C   UNL     1      -0.017   1.374   0.010  0.00  0.00    +0.001 A 
ATOM      2  C   UNL     1       1.172   2.083   0.002  0.00  0.00    +0.000 A 
ATOM      3  C   UNL     1       2.382   1.415  -0.006  0.00  0.00    +0.006 A 
ATOM      4  C   UNL     1       2.424   0.036  -0.010  0.00  0.00    -0.019 A 
ATOM      5  C   UNL     1       1.217  -0.689  -0.015  0.00  0.00    -0.019 A 
ATOM      6  C   UNL     1       0.002  -0.004   0.002  0.00  0.00    +0.008 A 
ATOM      7  C   UNL     1       1.234  -2.163  -0.061  0.00  0.00    +0.023 C 
ATOM      8  C   UNL     1       2.377  -2.841  -0.274  0.00  0.00    +0.072 C 
ATOM      9  N   UNL     1       3.521  -2.099  -0.466  0.00  0.00    -0.316 N 
ATOM     10  C   UNL     1       3.685  -0.714   0.001  0.00  0.00    +0.117 C 
ATOM     11  C   UNL     1       4.971  -0.184  -0.482  0.00  0.00    +0.115 C 
ATOM     12  C   UNL     1       5.763  -1.557  -0.575  0.00  0.00    +0.119 C 
ATOM     13  C   UNL     1       4.770  -2.461  -1.199  0.00  0.00    +0.172 C 
ATOM     14  C   UNL     1       7.102  -1.075  -0.829  0.00  0.00    +0.232 C 
ATOM     15  O   UNL     1       7.952  -1.587  -1.526  0.00  0.00    -0.274 OA
ATOM     16  N   UNL     1       7.201   0.090  -0.108  0.00  0.00    -0.210 N 
ATOM     17  C   UNL     1       5.980   0.534   0.363  0.00  0.00    +0.232 C 
ATOM     18  O   UNL     1       5.765   1.321   1.260  0.00  0.00    -0.274 OA
ENDROOT
BRANCH  16  19
ATOM     19  C   UNL     1       8.408   0.767   0.116  0.00  0.00    +0.047 A 
ATOM     20  C   UNL     1       8.421   1.938   0.862  0.00  0.00    +0.044 A 
ATOM     21  C   UNL     1       9.612   2.604   1.082  0.00  0.00    +0.044 A 
ATOM     22  C   UNL     1      10.792   2.104   0.559  0.00  0.00    +0.040 A 
ATOM     23  C   UNL     1      10.782   0.938  -0.185  0.00  0.00    +0.044 A 
ATOM     24  C   UNL     1       9.594   0.265  -0.403  0.00  0.00    +0.044 A 
ATOM     25 CL   UNL     1      12.264   0.314  -0.840  0.00  0.00    -0.083 Cl
ATOM     26 CL   UNL     1       9.628   4.068   2.014  0.00  0.00    -0.083 Cl
ENDBRANCH  16  19
BRANCH  13  27
ATOM     27  C   UNL     1       4.632  -2.174  -2.672  0.00  0.00    +0.232 C 
ATOM     28  O   UNL     1       3.768  -1.420  -3.065  0.00  0.00    -0.274 OA
ATOM     29  N   UNL     1       5.470  -2.757  -3.553  0.00  0.00    -0.328 N 
ATOM     30  H   UNL     1       6.161  -3.361  -3.239  0.00  0.00    +0.145 HD
ATOM     31  H   UNL     1       5.381  -2.573  -4.501  0.00  0.00    +0.145 HD
ENDBRANCH  13  27
TORSDOF 2
