REMARK  Name = ZINC59577940
REMARK  11 active torsions:
REMARK  status: ('A' for Active; 'I' for Inactive)
REMARK    1  A    between atoms: C_1  and  C_2
REMARK    2  A    between atoms: C_4  and  C_15
REMARK    3  A    between atoms: C_6  and  C_14
REMARK    4  A    between atoms: C_7  and  O_8
REMARK    5  A    between atoms: O_8  and  C_9
REMARK    6  A    between atoms: C_9  and  C_10
REMARK    7  A    between atoms: C_15  and  N_16
REMARK    8  A    between atoms: N_16  and  C_17
REMARK    9  A    between atoms: N_16  and  C_18
REMARK   10  A    between atoms: C_18  and  C_19
REMARK   11  A    between atoms: N_21  and  N_22
REMARK                            x       y       z     vdW  Elec       q    Type
REMARK                         _______ _______ _______ _____ _____    ______ ____
ROOT
ATOM      1  N   UNL     1       1.414  -3.039  -2.949  0.00  0.00    +0.386 N 
ATOM      2  C   UNL     1       2.052  -1.747  -3.235  0.00  0.00    -0.095 C 
ATOM      3  H   UNL     1       1.923  -3.511  -2.217  0.00  0.00    -0.081 HD
ENDROOT
BRANCH   1   4
ATOM      4  C   UNL     1       0.028  -2.816  -2.516  0.00  0.00    -0.043 C 
BRANCH   4   8
ATOM      5  C   UNL     1      -0.018   1.503   0.010  0.00  0.00    +0.047 C 
ATOM      6  C   UNL     1       0.002  -0.004   0.002  0.00  0.00    -0.008 A 
ATOM      7  C   UNL     1       0.006  -0.689  -1.198  0.00  0.00    +0.008 A 
ATOM      8  C   UNL     1       0.024  -2.071  -1.206  0.00  0.00    -0.063 A 
ATOM      9  C   UNL     1       0.040  -2.772  -0.014  0.00  0.00    +0.008 A 
ATOM     10  C   UNL     1       0.036  -2.092   1.188  0.00  0.00    -0.008 A 
ATOM     11  C   UNL     1       0.023  -0.705   1.199  0.00  0.00    +0.127 A 
ATOM     12  C   UNL     1       0.052  -2.856   2.487  0.00  0.00    +0.047 C 
BRANCH  11  13
ATOM     13  O   UNL     1       0.025  -0.033   2.381  0.00  0.00    -0.483 OA
BRANCH  13  14
ATOM     14  C   UNL     1      -1.246   0.270   2.957  0.00  0.00    +0.342 C 
BRANCH  14  15
ATOM     15  C   UNL     1      -1.043   1.022   4.274  0.00  0.00    +0.424 C 
ATOM     16  F   UNL     1      -0.346   2.211   4.030  0.00  0.00    -0.167 F 
ATOM     17  F   UNL     1      -2.288   1.320   4.838  0.00  0.00    -0.167 F 
ATOM     18  F   UNL     1      -0.309   0.225   5.158  0.00  0.00    -0.167 F 
ENDBRANCH  14  15
ENDBRANCH  13  14
ENDBRANCH  11  13
ENDBRANCH   4   8
ENDBRANCH   1   4
BRANCH   1  19
ATOM     19  C   UNL     1       1.421  -3.867  -4.162  0.00  0.00    +0.020 C 
BRANCH  19  20
ATOM     20  C   UNL     1       2.842  -4.198  -4.537  0.00  0.00    +0.213 C 
ATOM     21  O   UNL     1       3.760  -3.785  -3.859  0.00  0.00    -0.276 OA
ATOM     22  N   UNL     1       3.095  -4.954  -5.624  0.00  0.00    -0.225 N 
ATOM     23  H   UNL     1       2.361  -5.284  -6.166  0.00  0.00    +0.173 HD
BRANCH  22  24
ATOM     24  N   UNL     1       4.416  -5.261  -5.972  0.00  0.00    -0.137 N 
ATOM     25  C   UNL     1       5.086  -4.685  -6.991  0.00  0.00    +0.263 C 
ATOM     26  O   UNL     1       4.675  -3.835  -7.752  0.00  0.00    -0.271 OA
ATOM     27  C   UNL     1       6.457  -5.322  -6.985  0.00  0.00    +0.114 C 
ATOM     28  C   UNL     1       7.532  -4.268  -6.744  0.00  0.00    +0.035 C 
ATOM     29  C   UNL     1       8.908  -4.938  -6.711  0.00  0.00    +0.003 C 
ATOM     30  C   UNL     1       9.159  -5.651  -8.041  0.00  0.00    +0.000 C 
ATOM     31  C   UNL     1       8.086  -6.721  -8.258  0.00  0.00    +0.003 C 
ATOM     32  C   UNL     1       6.707  -6.058  -8.297  0.00  0.00    +0.035 C 
ATOM     33  N   UNL     1       6.404  -6.270  -5.865  0.00  0.00    -0.284 N 
ATOM     34  C   UNL     1       5.173  -6.160  -5.330  0.00  0.00    +0.326 C 
ATOM     35  O   UNL     1       4.791  -6.806  -4.374  0.00  0.00    -0.251 OA
ATOM     36  H   UNL     1       7.117  -6.857  -5.567  0.00  0.00    +0.151 HD
ENDBRANCH  22  24
ENDBRANCH  19  20
ENDBRANCH   1  19
TORSDOF 8
