REMARK  Name = ZINC64580402
REMARK  10 active torsions:
REMARK  status: ('A' for Active; 'I' for Inactive)
REMARK    1  A    between atoms: C_1  and  C_2
REMARK    2  A    between atoms: C_2  and  C_3
REMARK    3  A    between atoms: C_2  and  C_4
REMARK    4  A    between atoms: C_2  and  C_5
REMARK    5  A    between atoms: C_13  and  C_17
REMARK    6  A    between atoms: C_17  and  C_18
REMARK    7  A    between atoms: C_18  and  C_19
REMARK    8  A    between atoms: N_21  and  C_22
REMARK    9  A    between atoms: N_25  and  C_28
REMARK   10  A    between atoms: C_28  and  C_29
REMARK                            x       y       z     vdW  Elec       q    Type
REMARK                         _______ _______ _______ _____ _____    ______ ____
ROOT
ATOM      1  C   UNL     1       4.605  -4.989  -6.074  0.00  0.00    +0.083 C 
ENDROOT
BRANCH   1   9
ATOM      2  C   UNL     1       0.607  -0.496  -1.315  0.00  0.00    -0.004 C 
ATOM      3  C   UNL     1      -0.192   0.089  -2.473  0.00  0.00    +0.008 C 
ATOM      4  C   UNL     1       0.207  -0.603  -3.783  0.00  0.00    +0.033 C 
ATOM      5  C   UNL     1       1.703  -0.889  -3.679  0.00  0.00    -0.042 C 
ATOM      6  C   UNL     1       2.325  -1.891  -4.303  0.00  0.00    +0.071 C 
ATOM      7  C   UNL     1       3.777  -2.087  -4.054  0.00  0.00    +0.111 C 
ATOM      8  N   UNL     1       4.462  -3.055  -4.614  0.00  0.00    -0.227 NA
ATOM      9  C   UNL     1       3.810  -3.881  -5.433  0.00  0.00    +0.124 C 
ATOM     10  N   UNL     1       2.538  -3.808  -5.728  0.00  0.00    -0.161 NA
ATOM     11  C   UNL     1       1.694  -2.881  -5.240  0.00  0.00    +0.271 C 
ATOM     12  O   UNL     1       0.511  -2.846  -5.535  0.00  0.00    -0.268 OA
ATOM     13  S   UNL     1       4.218  -0.795  -2.936  0.00  0.00    -0.097 S 
ATOM     14  C   UNL     1       2.572   0.010  -2.801  0.00  0.00    +0.080 C 
ATOM     15  C   UNL     1       2.074  -0.095  -1.363  0.00  0.00    +0.023 C 
BRANCH   2  17
ATOM     16  C   UNL     1      -0.008   1.526   0.019  0.00  0.00    +0.011 C 
ATOM     17  C   UNL     1       0.002  -0.004   0.002  0.00  0.00    -0.035 C 
ATOM     18  C   UNL     1       0.841  -0.521   1.173  0.00  0.00    +0.011 C 
ATOM     19  C   UNL     1      -1.431  -0.525   0.132  0.00  0.00    +0.011 C 
ENDBRANCH   2  17
ENDBRANCH   1   9
BRANCH   1  20
ATOM     20  C   UNL     1       3.688  -5.822  -6.972  0.00  0.00    +0.103 C 
BRANCH  20  21
ATOM     21  C   UNL     1       4.483  -6.930  -7.612  0.00  0.00    +0.214 C 
ATOM     22  O   UNL     1       5.667  -7.042  -7.374  0.00  0.00    -0.276 OA
ATOM     23  N   UNL     1       3.879  -7.796  -8.450  0.00  0.00    -0.313 N 
ATOM     24  H   UNL     1       2.932  -7.705  -8.640  0.00  0.00    +0.149 HD
BRANCH  23  25
ATOM     25  C   UNL     1       4.652  -8.873  -9.073  0.00  0.00    +0.069 C 
ATOM     26  C   UNL     1       5.323  -8.351 -10.347  0.00  0.00    +0.003 C 
ATOM     27  C   UNL     1       6.063  -9.501 -11.034  0.00  0.00    -0.077 C 
ATOM     28  N   UNL     1       5.111 -10.563 -11.380  0.00  0.00    +0.382 N 
ATOM     29  C   UNL     1       4.517 -11.117 -10.158  0.00  0.00    -0.077 C 
ATOM     30  C   UNL     1       3.717 -10.030  -9.437  0.00  0.00    +0.003 C 
ATOM     31  H   UNL     1       4.382 -10.182 -11.965  0.00  0.00    -0.081 HD
BRANCH  28  32
ATOM     32  C   UNL     1       5.812 -11.629 -12.109  0.00  0.00    -0.043 C 
BRANCH  32  33
ATOM     33  C   UNL     1       4.816 -12.660 -12.572  0.00  0.00    -0.064 A 
ATOM     34  C   UNL     1       4.503 -13.733 -11.758  0.00  0.00    +0.002 A 
ATOM     35  C   UNL     1       3.589 -14.679 -12.182  0.00  0.00    +0.000 A 
ATOM     36  C   UNL     1       2.988 -14.552 -13.421  0.00  0.00    +0.000 A 
ATOM     37  C   UNL     1       3.300 -13.479 -14.234  0.00  0.00    +0.000 A 
ATOM     38  C   UNL     1       4.211 -12.531 -13.808  0.00  0.00    +0.002 A 
ENDBRANCH  32  33
ENDBRANCH  28  32
ENDBRANCH  23  25
ENDBRANCH  20  21
ENDBRANCH   1  20
TORSDOF 7
