REMARK  Name = ZINC35938602
REMARK  6 active torsions:
REMARK  status: ('A' for Active; 'I' for Inactive)
REMARK    1  A    between atoms: C_1  and  C_2
REMARK    2  A    between atoms: C_9  and  C_11
REMARK    3  A    between atoms: C_21  and  C_23
REMARK    4  A    between atoms: C_23  and  C_24
REMARK    5  A    between atoms: C_24  and  N_25
REMARK    6  A    between atoms: C_33  and  C_35
REMARK                            x       y       z     vdW  Elec       q    Type
REMARK                         _______ _______ _______ _____ _____    ______ ____
ROOT
ATOM      1  C   UNL     1      -0.557   1.157   0.249  0.00  0.00    +0.029 C 
ATOM      2  C   UNL     1      -0.158  -0.300   0.008  0.00  0.00    +0.091 C 
ATOM      3  C   UNL     1      -1.417  -1.150  -0.205  0.00  0.00    +0.130 C 
ATOM      4  N   UNL     1      -2.132  -1.259   1.075  0.00  0.00    -0.298 N 
ATOM      5  C   UNL     1      -1.410  -1.774   2.247  0.00  0.00    +0.127 C 
ATOM      6  C   UNL     1      -0.151  -0.924   2.460  0.00  0.00    +0.127 C 
ATOM      7  N   UNL     1       0.567  -0.814   1.179  0.00  0.00    -0.292 N 
ATOM      8  C   UNL     1       1.860  -1.179   1.079  0.00  0.00    +0.247 C 
ATOM      9  O   UNL     1       2.408  -1.187  -0.007  0.00  0.00    -0.270 OA
ATOM     10  C   UNL     1      -3.425  -0.894   1.171  0.00  0.00    +0.214 C 
ATOM     11  O   UNL     1      -4.010  -0.470   0.197  0.00  0.00    -0.276 OA
ENDROOT
BRANCH   8  12
ATOM     12  C   UNL     1       2.613  -1.570   2.289  0.00  0.00    +0.038 A 
ATOM     13  C   UNL     1       3.482  -2.676   2.243  0.00  0.00    +0.013 A 
ATOM     14  C   UNL     1       4.184  -3.054   3.341  0.00  0.00    +0.009 A 
ATOM     15  C   UNL     1       4.049  -2.338   4.545  0.00  0.00    -0.018 A 
ATOM     16  C   UNL     1       4.765  -2.711   5.694  0.00  0.00    +0.008 A 
ATOM     17  C   UNL     1       4.614  -1.999   6.845  0.00  0.00    +0.001 A 
ATOM     18  C   UNL     1       3.757  -0.902   6.902  0.00  0.00    +0.001 A 
ATOM     19  C   UNL     1       3.046  -0.511   5.810  0.00  0.00    +0.008 A 
ATOM     20  C   UNL     1       3.177  -1.222   4.603  0.00  0.00    -0.017 A 
ATOM     21  C   UNL     1       2.463  -0.841   3.457  0.00  0.00    +0.021 A 
ENDBRANCH   8  12
BRANCH  10  22
ATOM     22  C   UNL     1      -4.145  -1.011   2.490  0.00  0.00    +0.077 C 
BRANCH  22  23
ATOM     23  C   UNL     1      -5.590  -0.534   2.327  0.00  0.00    -0.068 C 
BRANCH  23  24
ATOM     24  N   UNL     1      -6.291  -0.648   3.612  0.00  0.00    +0.388 N 
ATOM     25  C   UNL     1      -5.661   0.250   4.589  0.00  0.00    -0.072 C 
ATOM     26  C   UNL     1      -6.170  -0.109   5.996  0.00  0.00    +0.024 C 
ATOM     27  C   UNL     1      -7.656  -0.239   5.918  0.00  0.00    -0.010 A 
ATOM     28  C   UNL     1      -8.402  -0.327   4.780  0.00  0.00    -0.047 A 
ATOM     29  C   UNL     1      -9.780  -0.436   4.948  0.00  0.00    +0.010 A 
ATOM     30  C   UNL     1     -10.311  -0.454   6.193  0.00  0.00    +0.045 A 
ATOM     31  S   UNL     1      -8.854  -0.314   7.218  0.00  0.00    -0.101 S 
ATOM     32  C   UNL     1      -7.705  -0.304   3.423  0.00  0.00    -0.006 C 
ATOM     33  H   UNL     1      -6.223  -1.599   3.944  0.00  0.00    -0.080 HD
BRANCH  32  34
ATOM     34  C   UNL     1      -8.352  -1.310   2.506  0.00  0.00    -0.057 A 
ATOM     35  C   UNL     1      -8.043  -2.652   2.624  0.00  0.00    +0.002 A 
ATOM     36  C   UNL     1      -8.636  -3.575   1.783  0.00  0.00    +0.000 A 
ATOM     37  C   UNL     1      -9.540  -3.155   0.825  0.00  0.00    +0.000 A 
ATOM     38  C   UNL     1      -9.850  -1.813   0.707  0.00  0.00    +0.000 A 
ATOM     39  C   UNL     1      -9.260  -0.891   1.551  0.00  0.00    +0.002 A 
ENDBRANCH  32  34
ENDBRANCH  23  24
ENDBRANCH  22  23
ENDBRANCH  10  22
TORSDOF 5
