REMARK  Name = ZINC10794915
REMARK  7 active torsions:
REMARK  status: ('A' for Active; 'I' for Inactive)
REMARK    1  A    between atoms: C_3  and  S_27
REMARK    2  A    between atoms: C_6  and  C_7
REMARK    3  A    between atoms: C_7  and  O_9
REMARK    4  A    between atoms: O_9  and  C_10
REMARK    5  A    between atoms: C_10  and  C_11
REMARK    6  A    between atoms: N_16  and  C_17
REMARK    7  A    between atoms: S_27  and  N_30
REMARK                            x       y       z     vdW  Elec       q    Type
REMARK                         _______ _______ _______ _____ _____    ______ ____
ROOT
ATOM      1  C   UNL     1      -7.192   1.201   2.099  0.00  0.00    +0.258 C 
ATOM      2  O   UNL     1      -6.796   1.898   3.008  0.00  0.00    -0.272 OA
ATOM      3  N   UNL     1      -6.368   0.892   1.079  0.00  0.00    -0.237 N 
ATOM      4  C   UNL     1      -5.103   1.358   1.069  0.00  0.00    +0.306 C 
ATOM      5  O   UNL     1      -4.707   2.057   1.980  0.00  0.00    -0.252 OA
ATOM      6  N   UNL     1      -4.279   1.049   0.049  0.00  0.00    -0.294 N 
ATOM      7  H   UNL     1      -6.684   0.334   0.351  0.00  0.00    +0.159 HD
ATOM      8  H   UNL     1      -4.595   0.491  -0.679  0.00  0.00    +0.151 HD
ENDROOT
BRANCH   6   9
ATOM      9  C   UNL     1      -2.904   1.556   0.038  0.00  0.00    +0.037 C 
ATOM     10  C   UNL     1      -2.188   1.063  -1.221  0.00  0.00    +0.029 C 
ATOM     11  C   UNL     1      -0.753   1.593  -1.232  0.00  0.00    -0.008 C 
ATOM     12  C   UNL     1      -0.013   1.086   0.008  0.00  0.00    +0.007 C 
ATOM     13  C   UNL     1      -0.729   1.579   1.267  0.00  0.00    -0.008 C 
ATOM     14  C   UNL     1      -2.164   1.050   1.278  0.00  0.00    +0.029 C 
ATOM     15  C   UNL     1      -0.750   3.109   1.275  0.00  0.00    +0.007 C 
ATOM     16  C   UNL     1      -1.490   3.616   0.036  0.00  0.00    -0.008 C 
ATOM     17  C   UNL     1      -0.773   3.123  -1.223  0.00  0.00    +0.007 C 
ATOM     18  C   UNL     1      -2.925   3.086   0.047  0.00  0.00    +0.029 C 
ENDBRANCH   6   9
BRANCH   1  19
ATOM     19  C   UNL     1      -8.606   0.679   2.110  0.00  0.00    +0.328 C 
BRANCH  19  20
ATOM     20  O   UNL     1      -9.286   1.147   3.304  0.00  0.00    -0.452 OA
BRANCH  20  21
ATOM     21  C   UNL     1     -10.568   0.767   3.467  0.00  0.00    +0.340 C 
ATOM     22  O   UNL     1     -11.103   0.063   2.634  0.00  0.00    -0.245 OA
BRANCH  21  28
ATOM     23  C   UNL     1     -10.708   2.009   5.622  0.00  0.00    +0.017 A 
ATOM     24  C   UNL     1     -11.420   2.420   6.729  0.00  0.00    +0.029 A 
ATOM     25  C   UNL     1     -12.737   2.027   6.894  0.00  0.00    +0.105 A 
ATOM     26  C   UNL     1     -13.350   1.226   5.947  0.00  0.00    +0.029 A 
ATOM     27  C   UNL     1     -12.651   0.813   4.831  0.00  0.00    +0.017 A 
ATOM     28  C   UNL     1     -11.322   1.206   4.659  0.00  0.00    +0.059 A 
BRANCH  25  29
ATOM     29  S   UNL     1     -13.637   2.550   8.315  0.00  0.00    +0.056 S 
ATOM     30  O   UNL     1     -13.011   3.739   8.778  0.00  0.00    -0.153 OA
ATOM     31  O   UNL     1     -15.013   2.501   7.965  0.00  0.00    -0.153 OA
BRANCH  29  32
ATOM     32  N   UNL     1     -13.405   1.406   9.490  0.00  0.00    -0.204 NA
ATOM     33  H   UNL     1     -12.852   0.630   9.309  0.00  0.00    +0.144 HD
ATOM     34  H   UNL     1     -13.823   1.512  10.359  0.00  0.00    +0.144 HD
ENDBRANCH  29  32
ENDBRANCH  25  29
ENDBRANCH  21  28
ENDBRANCH  20  21
ENDBRANCH  19  20
ENDBRANCH   1  19
TORSDOF 7
