REMARK  Name = ZINC33704082
REMARK  5 active torsions:
REMARK  status: ('A' for Active; 'I' for Inactive)
REMARK    1  A    between atoms: C_1  and  C_2
REMARK    2  A    between atoms: C_7  and  N_8
REMARK    3  A    between atoms: C_13  and  C_30
REMARK    4  A    between atoms: C_16  and  C_21
REMARK    5  A    between atoms: C_16  and  C_27
REMARK                            x       y       z     vdW  Elec       q    Type
REMARK                         _______ _______ _______ _____ _____    ______ ____
ROOT
ATOM      1  N   UNL     1       3.510   2.427  -0.508  0.00  0.00    -0.210 N 
ATOM      2  C   UNL     1       3.429   1.103  -0.837  0.00  0.00    +0.229 C 
ATOM      3  O   UNL     1       4.345   0.313  -0.918  0.00  0.00    -0.275 OA
ATOM      4  C   UNL     1       1.978   0.828  -1.077  0.00  0.00    +0.078 C 
ATOM      5  C   UNL     1       1.313  -0.440  -0.568  0.00  0.00    -0.019 C 
ATOM      6  N   UNL     1       0.002  -0.004   0.002  0.00  0.00    +0.399 N 
ATOM      7  C   UNL     1      -0.018   1.499   0.010  0.00  0.00    +0.074 C 
ATOM      8  C   UNL     1       1.416   1.835  -0.002  0.00  0.00    +0.091 C 
ATOM      9  C   UNL     1       2.292   2.966  -0.175  0.00  0.00    +0.229 C 
ATOM     10  O   UNL     1       2.014   4.140  -0.052  0.00  0.00    -0.275 OA
ATOM     11  H   UNL     1      -0.816  -0.394  -0.621  0.00  0.00    -0.083 HD
ATOM     12  H   UNL     1      -0.100  -0.393   1.026  0.00  0.00    -0.083 HD
ENDROOT
BRANCH   1  19
ATOM     13  C   UNL     1       5.044   2.509   1.888  0.00  0.00    +0.045 C 
ATOM     14  C   UNL     1       5.485   3.222   0.636  0.00  0.00    -0.029 A 
ATOM     15  C   UNL     1       6.665   3.941   0.629  0.00  0.00    +0.005 A 
ATOM     16  C   UNL     1       7.071   4.595  -0.519  0.00  0.00    +0.000 A 
ATOM     17  C   UNL     1       6.298   4.532  -1.665  0.00  0.00    +0.002 A 
ATOM     18  C   UNL     1       5.120   3.810  -1.666  0.00  0.00    +0.024 A 
ATOM     19  C   UNL     1       4.707   3.156  -0.512  0.00  0.00    +0.047 A 
ENDBRANCH   1  19
BRANCH   7  20
ATOM     20  C   UNL     1      -0.704   2.033  -1.222  0.00  0.00    -0.047 A 
ATOM     21  C   UNL     1      -0.312   3.244  -1.760  0.00  0.00    +0.003 A 
ATOM     22  C   UNL     1      -0.938   3.731  -2.892  0.00  0.00    +0.000 A 
ATOM     23  C   UNL     1      -1.961   3.011  -3.481  0.00  0.00    +0.000 A 
ATOM     24  C   UNL     1      -2.355   1.802  -2.939  0.00  0.00    +0.000 A 
ATOM     25  C   UNL     1      -1.727   1.313  -1.809  0.00  0.00    +0.003 A 
ENDBRANCH   7  20
BRANCH   5  26
ATOM     26  C   UNL     1       2.160  -1.079   0.502  0.00  0.00    -0.023 A 
ATOM     27  C   UNL     1       2.977  -2.157   0.414  0.00  0.00    +0.009 A 
ATOM     28  C   UNL     1       3.668  -2.568   1.538  0.00  0.00    +0.008 A 
ATOM     29  C   UNL     1       3.500  -1.888   2.699  0.00  0.00    +0.045 A 
ATOM     30  S   UNL     1       2.341  -0.617   2.217  0.00  0.00    -0.103 S 
ENDBRANCH   5  26
BRANCH   7  31
ATOM     31  C   UNL     1      -0.680   2.019   1.261  0.00  0.00    +0.350 C 
ATOM     32  O   UNL     1      -0.266   3.024   1.790  0.00  0.00    -0.248 OA
ATOM     33  O   UNL     1      -1.728   1.367   1.786  0.00  0.00    -0.248 OA
ENDBRANCH   7  31
TORSDOF 4
