REMARK  Name = ZINC35934844
REMARK  10 active torsions:
REMARK  status: ('A' for Active; 'I' for Inactive)
REMARK    1  A    between atoms: C_1  and  C_2
REMARK    2  A    between atoms: C_2  and  N_3
REMARK    3  A    between atoms: C_6  and  C_11
REMARK    4  A    between atoms: N_21  and  C_23
REMARK    5  A    between atoms: C_23  and  C_25
REMARK    6  A    between atoms: C_23  and  C_26
REMARK    7  A    between atoms: N_28  and  C_29
REMARK    8  A    between atoms: C_32  and  C_35
REMARK    9  A    between atoms: C_35  and  C_36
REMARK   10  A    between atoms: C_35  and  C_37
REMARK                            x       y       z     vdW  Elec       q    Type
REMARK                         _______ _______ _______ _____ _____    ______ ____
ROOT
ATOM      1  N   UNL     1       1.282  -1.311  -1.585  0.00  0.00    -0.257 N 
ATOM      2  C   UNL     1       0.496  -1.538  -2.679  0.00  0.00    +0.042 C 
ATOM      3  C   UNL     1       1.008  -2.060  -3.812  0.00  0.00    +0.058 C 
ATOM      4  C   UNL     1       2.488  -2.385  -3.831  0.00  0.00    +0.143 C 
ATOM      5  N   UNL     1       3.249  -2.103  -2.602  0.00  0.00    -0.288 N 
ATOM      6  C   UNL     1       2.595  -1.575  -1.548  0.00  0.00    +0.307 C 
ATOM      7  O   UNL     1       3.215  -1.335  -0.531  0.00  0.00    -0.252 OA
ATOM      8  C   UNL     1       0.000  -2.197  -4.788  0.00  0.00    +0.247 C 
ATOM      9  O   UNL     1       0.182  -2.643  -5.906  0.00  0.00    -0.270 OA
ATOM     10  N   UNL     1      -1.188  -1.773  -4.322  0.00  0.00    -0.281 N 
ATOM     11  C   UNL     1      -0.977  -1.317  -2.940  0.00  0.00    +0.160 C 
ATOM     12  H   UNL     1       4.199  -2.290  -2.553  0.00  0.00    +0.151 HD
ENDROOT
BRANCH   4  13
ATOM     13  C   UNL     1       3.120  -1.608  -4.956  0.00  0.00    -0.004 A 
ATOM     14  C   UNL     1       2.461  -0.522  -5.502  0.00  0.00    +0.008 A 
ATOM     15  C   UNL     1       3.041   0.191  -6.534  0.00  0.00    +0.020 A 
ATOM     16  C   UNL     1       4.281  -0.181  -7.022  0.00  0.00    +0.042 A 
ATOM     17  C   UNL     1       4.941  -1.267  -6.476  0.00  0.00    +0.040 A 
ATOM     18  C   UNL     1       4.363  -1.978  -5.440  0.00  0.00    +0.048 A 
ATOM     19 CL   UNL     1       5.193  -3.337  -4.750  0.00  0.00    -0.083 Cl
ATOM     20 CL   UNL     1       5.008   0.715  -8.319  0.00  0.00    -0.083 Cl
ENDBRANCH   4  13
BRANCH   1  22
ATOM     21  C   UNL     1       0.720   0.785  -0.458  0.00  0.00    +0.025 C 
ATOM     22  C   UNL     1       0.656  -0.742  -0.389  0.00  0.00    +0.111 C 
ENDBRANCH   1  22
BRANCH  10  23
ATOM     23  C   UNL     1      -2.457  -1.765  -5.055  0.00  0.00    +0.160 C 
ATOM     24  C   UNL     1      -2.815  -3.194  -5.469  0.00  0.00    +0.038 C 
BRANCH  23  25
ATOM     25  C   UNL     1      -2.321  -0.905  -6.286  0.00  0.00    +0.237 C 
ATOM     26  O   UNL     1      -1.268  -0.353  -6.526  0.00  0.00    -0.273 OA
ATOM     27  N   UNL     1      -3.369  -0.750  -7.118  0.00  0.00    -0.284 N 
ATOM     28  H   UNL     1      -4.229  -1.136  -6.892  0.00  0.00    +0.155 HD
BRANCH  27  29
ATOM     29  C   UNL     1      -3.216  -0.033  -8.310  0.00  0.00    +0.033 A 
ATOM     30  C   UNL     1      -3.908  -0.420  -9.450  0.00  0.00    +0.023 A 
ATOM     31  C   UNL     1      -3.754   0.290 -10.624  0.00  0.00    +0.006 A 
ATOM     32  C   UNL     1      -2.913   1.387 -10.665  0.00  0.00    -0.045 A 
ATOM     33  C   UNL     1      -2.222   1.775  -9.532  0.00  0.00    +0.006 A 
ATOM     34  C   UNL     1      -2.376   1.073  -8.353  0.00  0.00    +0.023 A 
BRANCH  32  35
ATOM     35  C   UNL     1      -2.748   2.160 -11.948  0.00  0.00    +0.013 C 
ATOM     36  C   UNL     1      -3.182   3.611 -11.729  0.00  0.00    +0.012 C 
ATOM     37  C   UNL     1      -1.280   2.127 -12.379  0.00  0.00    +0.012 C 
ENDBRANCH  32  35
ENDBRANCH  27  29
ENDBRANCH  23  25
ENDBRANCH  10  23
TORSDOF 6
