REMARK  Name = ZINC36585069
REMARK  4 active torsions:
REMARK  status: ('A' for Active; 'I' for Inactive)
REMARK    1  A    between atoms: C_1  and  C_2
REMARK    2  A    between atoms: C_3  and  O_30
REMARK    3  A    between atoms: C_12  and  C_13
REMARK    4  A    between atoms: C_13  and  N_14
REMARK                            x       y       z     vdW  Elec       q    Type
REMARK                         _______ _______ _______ _____ _____    ______ ____
ROOT
ATOM      1  C   UNL     1       0.071  -4.351   2.466  0.00  0.00    +0.120 C 
ENDROOT
BRANCH   1   2
ATOM      2  N   UNL     1      -1.303  -4.861   2.359  0.00  0.00    -0.297 NA
ATOM      3  C   UNL     1      -1.310  -6.310   2.137  0.00  0.00    +0.090 C 
ATOM      4  C   UNL     1      -2.730  -6.830   1.966  0.00  0.00    +0.024 C 
ATOM      5  C   UNL     1      -3.599  -6.439   3.164  0.00  0.00    +0.017 C 
ATOM      6  C   UNL     1      -3.551  -4.912   3.291  0.00  0.00    +0.050 C 
ATOM      7  C   UNL     1      -2.091  -4.502   3.548  0.00  0.00    +0.094 C 
ATOM      8  C   UNL     1      -3.988  -4.291   1.984  0.00  0.00    +0.026 A 
ATOM      9  C   UNL     1      -4.572  -3.064   2.036  0.00  0.00    +0.022 A 
ATOM     10  C   UNL     1      -4.941  -2.403   0.859  0.00  0.00    +0.007 A 
ATOM     11  C   UNL     1      -4.683  -2.998  -0.341  0.00  0.00    +0.070 A 
ATOM     12  C   UNL     1      -4.076  -4.262  -0.359  0.00  0.00    +0.251 A 
ATOM     13  O   UNL     1      -3.783  -4.776  -1.426  0.00  0.00    -0.268 OA
ATOM     14  N   UNL     1      -3.811  -4.918   0.798  0.00  0.00    -0.312 N 
ATOM     15  C   UNL     1      -3.375  -6.306   0.695  0.00  0.00    +0.130 C 
ENDBRANCH   1   2
BRANCH   1  27
ATOM     16  C   UNL     1      -0.018   1.503   0.010  0.00  0.00    +0.051 C 
ATOM     17  C   UNL     1       0.002  -0.004   0.002  0.00  0.00    +0.034 A 
ATOM     18  C   UNL     1       0.006  -0.693  -1.200  0.00  0.00    +0.123 A 
ATOM     19  C   UNL     1       0.024  -2.086  -1.219  0.00  0.00    +0.046 A 
ATOM     20  C   UNL     1       0.039  -2.792  -0.051  0.00  0.00    +0.015 A 
ATOM     21  C   UNL     1       0.036  -2.113   1.173  0.00  0.00    +0.022 A 
ATOM     22  C   UNL     1       0.023  -0.706   1.198  0.00  0.00    +0.146 A 
ATOM     23  O   UNL     1       0.025  -0.054   2.380  0.00  0.00    -0.422 OA
ATOM     24  C   UNL     1       0.045  -0.719   3.546  0.00  0.00    +0.338 A 
ATOM     25  O   UNL     1       0.046  -0.089   4.588  0.00  0.00    -0.245 OA
ATOM     26  C   UNL     1       0.065  -2.128   3.595  0.00  0.00    +0.097 A 
ATOM     27  C   UNL     1       0.051  -2.845   2.441  0.00  0.00    -0.016 A 
BRANCH  18  28
ATOM     28  O   UNL     1      -0.009  -0.004  -2.370  0.00  0.00    -0.506 OA
ATOM     29  H   UNL     1       0.870   0.207  -2.713  0.00  0.00    +0.292 HD
ENDBRANCH  18  28
ENDBRANCH   1  27
TORSDOF 3
