REMARK  Name = ZINC07781391
REMARK  5 active torsions:
REMARK  status: ('A' for Active; 'I' for Inactive)
REMARK    1  A    between atoms: C_3  and  C_6
REMARK    2  A    between atoms: N_8  and  N_9
REMARK    3  A    between atoms: C_10  and  C_12
REMARK    4  A    between atoms: C_13  and  C_14
REMARK    5  A    between atoms: C_18  and  N_20
REMARK                            x       y       z     vdW  Elec       q    Type
REMARK                         _______ _______ _______ _____ _____    ______ ____
ROOT
ATOM      1  N   UNL     1       4.888   1.786  -0.033  0.00  0.00    -0.231 N 
ATOM      2  C   UNL     1       5.900   2.676  -0.038  0.00  0.00    +0.253 C 
ATOM      3  O   UNL     1       5.662   3.869  -0.031  0.00  0.00    -0.269 OA
ATOM      4  H   UNL     1       5.078   0.835  -0.039  0.00  0.00    +0.173 HD
ENDROOT
BRANCH   1   7
ATOM      5  C   UNL     1       2.548   1.345  -0.014  0.00  0.00    +0.267 C 
ATOM      6  O   UNL     1       2.787   0.152  -0.021  0.00  0.00    -0.268 OA
ATOM      7  N   UNL     1       3.561   2.235  -0.019  0.00  0.00    -0.230 N 
ATOM      8  H   UNL     1       3.371   3.186  -0.013  0.00  0.00    +0.173 HD
BRANCH   5  11
ATOM      9  C   UNL     1      -1.193   1.776   0.017  0.00  0.00    +0.008 A 
ATOM     10  C   UNL     1      -0.013   1.076   0.008  0.00  0.00    +0.021 A 
ATOM     11  C   UNL     1       1.160   1.815   0.001  0.00  0.00    +0.075 A 
ATOM     12  S   UNL     1       0.539   3.487   0.015  0.00  0.00    -0.092 S 
ATOM     13  C   UNL     1      -1.159   3.135   0.029  0.00  0.00    +0.046 A 
ENDBRANCH   5  11
ENDBRANCH   1   7
BRANCH   2  14
ATOM     14  C   UNL     1       7.287   2.207  -0.053  0.00  0.00    +0.069 C 
ATOM     15  C   UNL     1       8.300   3.097  -0.058  0.00  0.00    +0.013 C 
BRANCH  15  16
ATOM     16  C   UNL     1       9.694   2.625  -0.072  0.00  0.00    -0.023 A 
ATOM     17  C   UNL     1       9.972   1.254  -0.081  0.00  0.00    +0.009 A 
ATOM     18  C   UNL     1      11.279   0.820  -0.095  0.00  0.00    +0.023 A 
ATOM     19  C   UNL     1      12.318   1.737  -0.100  0.00  0.00    +0.071 A 
ATOM     20  C   UNL     1      12.050   3.096  -0.091  0.00  0.00    +0.145 A 
ATOM     21  C   UNL     1      10.746   3.545  -0.084  0.00  0.00    +0.042 A 
ATOM     22 CL   UNL     1      13.962   1.181  -0.117  0.00  0.00    -0.081 Cl
BRANCH  20  23
ATOM     23  N   UNL     1      13.166   4.069  -0.096  0.00  0.00    +0.058 N 
ATOM     24  O   UNL     1      12.932   5.264  -0.088  0.00  0.00    -0.126 OA
ATOM     25  O   UNL     1      14.318   3.674  -0.108  0.00  0.00    -0.126 OA
ENDBRANCH  20  23
ENDBRANCH  15  16
ENDBRANCH   2  14
TORSDOF 5
