REMARK  Name = ZINC06196056
REMARK  17 active torsions:
REMARK  status: ('A' for Active; 'I' for Inactive)
REMARK    1  A    between atoms: C_1  and  C_2
REMARK    2  A    between atoms: C_2  and  O_3
REMARK    3  A    between atoms: O_3  and  C_4
REMARK    4  A    between atoms: C_6  and  C_11
REMARK    5  A    between atoms: C_9  and  O_10
REMARK    6  A    between atoms: C_16  and  C_21
REMARK    7  A    between atoms: C_24  and  O_29
REMARK    8  A    between atoms: C_25  and  O_27
REMARK    9  A    between atoms: O_27  and  C_28
REMARK   10  A    between atoms: O_29  and  C_30
REMARK   11  A    between atoms: C_32  and  C_41
REMARK   12  A    between atoms: C_33  and  C_34
REMARK   13  A    between atoms: C_34  and  O_36
REMARK   14  A    between atoms: O_36  and  C_37
REMARK   15  A    between atoms: C_37  and  C_38
REMARK   16  A    between atoms: C_38  and  C_39
REMARK   17  A    between atoms: C_38  and  C_40
REMARK                            x       y       z     vdW  Elec       q    Type
REMARK                         _______ _______ _______ _____ _____    ______ ____
ROOT
ATOM      1  C   UNL     1       2.543  -2.800  -0.037  0.00  0.00    +0.092 C 
ATOM      2  C   UNL     1       2.638  -3.670   1.191  0.00  0.00    +0.024 C 
ATOM      3  C   UNL     1       2.433  -5.002   1.111  0.00  0.00    +0.016 C 
ATOM      4  C   UNL     1       2.530  -5.879   2.334  0.00  0.00    +0.059 C 
ATOM      5  C   UNL     1       2.118  -5.080   3.573  0.00  0.00    +0.032 C 
ATOM      6  C   UNL     1       3.035  -3.857   3.689  0.00  0.00    +0.088 C 
ATOM      7  C   UNL     1       2.944  -3.056   2.419  0.00  0.00    +0.162 C 
ATOM      8  O   UNL     1       3.138  -1.857   2.454  0.00  0.00    -0.292 OA
ATOM      9  N   UNL     1       2.136  -5.587  -0.091  0.00  0.00    -0.321 N 
ATOM     10  C   UNL     1       2.425  -4.951  -1.266  0.00  0.00    +0.016 C 
ATOM     11  C   UNL     1       2.631  -3.623  -1.288  0.00  0.00    +0.065 C 
ATOM     12  C   UNL     1       2.514  -5.744  -2.544  0.00  0.00    +0.061 C 
ATOM     13  H   UNL     1       1.660  -6.579  -0.117  0.00  0.00    +0.152 HD
ENDROOT
BRANCH   1  16
ATOM     14  C   UNL     1       0.002  -0.004   0.002  0.00  0.00    +0.162 A 
ATOM     15  C   UNL     1       1.210  -0.682  -0.013  0.00  0.00    +0.054 A 
ATOM     16  C   UNL     1       1.227  -2.064  -0.021  0.00  0.00    -0.032 A 
ATOM     17  C   UNL     1       0.041  -2.773  -0.013  0.00  0.00    +0.008 A 
ATOM     18  C   UNL     1      -1.168  -2.103   0.002  0.00  0.00    +0.049 A 
ATOM     19  C   UNL     1      -1.192  -0.718   0.015  0.00  0.00    +0.158 A 
BRANCH  19  20
ATOM     20  O   UNL     1      -2.381  -0.057   0.036  0.00  0.00    -0.503 OA
ATOM     21  H   UNL     1      -3.324  -0.622   0.046  0.00  0.00    +0.292 HD
ENDBRANCH  19  20
BRANCH  14  22
ATOM     22  O   UNL     1      -0.016   1.356   0.009  0.00  0.00    -0.489 OA
BRANCH  22  24
ATOM     23  C   UNL     1       1.027   3.536   0.011  0.00  0.00    +0.048 C 
ATOM     24  C   UNL     1       1.248   2.022   0.001  0.00  0.00    +0.226 C 
ENDBRANCH  22  24
ENDBRANCH  14  22
ENDBRANCH   1  16
BRANCH   5  25
ATOM     25  C   UNL     1       2.260  -5.942   4.801  0.00  0.00    -0.040 A 
ATOM     26  C   UNL     1       3.494  -6.466   5.138  0.00  0.00    +0.008 A 
ATOM     27  C   UNL     1       3.629  -7.257   6.263  0.00  0.00    +0.049 A 
ATOM     28  C   UNL     1       2.525  -7.526   7.057  0.00  0.00    +0.161 A 
ATOM     29  C   UNL     1       1.283  -6.998   6.719  0.00  0.00    +0.162 A 
ATOM     30  C   UNL     1       1.156  -6.202   5.592  0.00  0.00    +0.053 A 
BRANCH  29  31
ATOM     31  O   UNL     1       0.197  -7.260   7.494  0.00  0.00    -0.491 OA
ATOM     32  C   UNL     1      -1.046  -6.685   7.086  0.00  0.00    +0.277 C 
ENDBRANCH  29  31
BRANCH  28  33
ATOM     33  O   UNL     1       2.656  -8.305   8.165  0.00  0.00    -0.491 OA
ATOM     34  C   UNL     1       3.961  -8.812   8.450  0.00  0.00    +0.277 C 
ENDBRANCH  28  33
ENDBRANCH   5  25
BRANCH  11  35
ATOM     35  C   UNL     1       2.938  -2.989  -2.515  0.00  0.00    +0.338 C 
ATOM     36  O   UNL     1       3.013  -3.646  -3.537  0.00  0.00    -0.245 OA
BRANCH  35  37
ATOM     37  O   UNL     1       3.147  -1.657  -2.552  0.00  0.00    -0.461 OA
BRANCH  37  38
ATOM     38  C   UNL     1       3.452  -1.083  -3.825  0.00  0.00    +0.235 C 
BRANCH  38  39
ATOM     39  C   UNL     1       3.655   0.425  -3.669  0.00  0.00    +0.020 C 
ATOM     40  C   UNL     1       4.888   0.687  -2.801  0.00  0.00    +0.010 C 
ATOM     41  C   UNL     1       3.858   1.058  -5.048  0.00  0.00    +0.010 C 
ENDBRANCH  38  39
ENDBRANCH  37  38
ENDBRANCH  35  37
ENDBRANCH  11  35
TORSDOF 11
