REMARK  Name = ZINC35860520
REMARK  7 active torsions:
REMARK  status: ('A' for Active; 'I' for Inactive)
REMARK    1  A    between atoms: C_1  and  C_2
REMARK    2  A    between atoms: C_2  and  C_3
REMARK    3  A    between atoms: C_11  and  O_23
REMARK    4  A    between atoms: C_14  and  C_16
REMARK    5  A    between atoms: O_23  and  C_24
REMARK    6  A    between atoms: C_24  and  C_25
REMARK    7  A    between atoms: C_27  and  C_30
REMARK                            x       y       z     vdW  Elec       q    Type
REMARK                         _______ _______ _______ _____ _____    ______ ____
ROOT
ATOM      1  C   UNL     1      -3.155  -0.020  -0.295  0.00  0.00    +0.216 C 
ATOM      2  O   UNL     1      -4.228   0.533  -0.172  0.00  0.00    -0.276 OA
ATOM      3  N   UNL     1      -3.091  -1.365  -0.331  0.00  0.00    -0.290 N 
ATOM      4  C   UNL     1      -1.805  -2.067  -0.472  0.00  0.00    +0.113 C 
ATOM      5  C   UNL     1      -1.567  -2.874   0.803  0.00  0.00    +0.054 C 
ATOM      6  C   UNL     1      -2.798  -3.656   1.180  0.00  0.00    -0.040 A 
ATOM      7  C   UNL     1      -2.634  -4.742   2.032  0.00  0.00    +0.007 A 
ATOM      8  C   UNL     1      -3.719  -5.496   2.426  0.00  0.00    +0.046 A 
ATOM      9  C   UNL     1      -4.988  -5.169   1.970  0.00  0.00    +0.121 A 
ATOM     10  C   UNL     1      -5.151  -4.089   1.119  0.00  0.00    +0.051 A 
ATOM     11  C   UNL     1      -4.056  -3.336   0.720  0.00  0.00    -0.016 A 
ATOM     12  C   UNL     1      -4.300  -2.190  -0.223  0.00  0.00    +0.137 C 
ENDROOT
BRANCH  12  13
ATOM     13  C   UNL     1      -4.659  -2.733  -1.582  0.00  0.00    -0.022 A 
ATOM     14  C   UNL     1      -3.798  -3.600  -2.229  0.00  0.00    +0.008 A 
ATOM     15  C   UNL     1      -4.126  -4.099  -3.475  0.00  0.00    +0.038 A 
ATOM     16  C   UNL     1      -5.318  -3.730  -4.076  0.00  0.00    +0.123 A 
ATOM     17  C   UNL     1      -6.179  -2.861  -3.428  0.00  0.00    +0.038 A 
ATOM     18  C   UNL     1      -5.851  -2.368  -2.179  0.00  0.00    +0.008 A 
ATOM     19  F   UNL     1      -5.639  -4.217  -5.295  0.00  0.00    -0.205 F 
ENDBRANCH  12  13
BRANCH   1  21
ATOM     20  C   UNL     1      -2.244   2.286  -0.340  0.00  0.00    +0.013 C 
ATOM     21  C   UNL     1      -1.895   0.798  -0.408  0.00  0.00    +0.092 C 
ENDBRANCH   1  21
BRANCH   9  22
ATOM     22  O   UNL     1      -6.064  -5.904   2.356  0.00  0.00    -0.485 OA
BRANCH  22  23
ATOM     23  C   UNL     1      -5.816  -7.003   3.235  0.00  0.00    +0.291 C 
BRANCH  23  24
ATOM     24  C   UNL     1      -7.117  -7.695   3.551  0.00  0.00    +0.116 A 
ATOM     25  N   UNL     1      -7.678  -8.686   2.914  0.00  0.00    -0.236 NA
ATOM     26  C   UNL     1      -8.845  -9.155   3.368  0.00  0.00    +0.133 A 
ATOM     27  C   UNL     1      -9.348  -8.537   4.482  0.00  0.00    +0.080 A 
ATOM     28  S   UNL     1      -8.180  -7.376   4.811  0.00  0.00    -0.076 S 
BRANCH  26  29
ATOM     29  C   UNL     1      -9.547 -10.270   2.710  0.00  0.00    +0.266 C 
ATOM     30  O   UNL     1     -10.679 -10.559   3.048  0.00  0.00    -0.268 OA
ATOM     31  N   UNL     1      -8.935 -10.969   1.734  0.00  0.00    -0.295 N 
ATOM     32  C   UNL     1      -9.693 -11.962   0.972  0.00  0.00    +0.119 C 
ATOM     33  C   UNL     1      -9.811 -11.506  -0.487  0.00  0.00    +0.088 C 
ATOM     34  S   UNL     1      -8.139 -11.256  -1.155  0.00  0.00    -0.158 S 
ATOM     35  C   UNL     1      -7.379 -10.121   0.046  0.00  0.00    +0.088 C 
ATOM     36  C   UNL     1      -7.522 -10.721   1.444  0.00  0.00    +0.119 C 
ENDBRANCH  26  29
ENDBRANCH  23  24
ENDBRANCH  22  23
ENDBRANCH   9  22
TORSDOF 6
