REMARK  Name = ZINC59576810
REMARK  5 active torsions:
REMARK  status: ('A' for Active; 'I' for Inactive)
REMARK    1  A    between atoms: C_4  and  N_7
REMARK    2  A    between atoms: C_12  and  C_14
REMARK    3  A    between atoms: N_16  and  C_17
REMARK    4  A    between atoms: C_19  and  C_23
REMARK    5  A    between atoms: C_23  and  C_24
REMARK                            x       y       z     vdW  Elec       q    Type
REMARK                         _______ _______ _______ _____ _____    ______ ____
ROOT
ATOM      1  C   UNL     1       7.112   0.272  -0.277  0.00  0.00    +0.269 C 
ATOM      2  O   UNL     1       8.206  -0.259  -0.297  0.00  0.00    -0.268 OA
ATOM      3  N   UNL     1       7.013   1.613  -0.362  0.00  0.00    -0.265 N 
ATOM      4  H   UNL     1       6.141   2.037  -0.346  0.00  0.00    +0.157 HD
ENDROOT
BRANCH   1  10
ATOM      5  N   UNL     1       3.621  -0.650  -0.037  0.00  0.00    -0.196 N 
ATOM      6  C   UNL     1       3.623  -1.993   0.052  0.00  0.00    +0.272 A 
ATOM      7  O   UNL     1       2.571  -2.603   0.146  0.00  0.00    -0.266 OA
ATOM      8  C   UNL     1       4.850  -2.691   0.036  0.00  0.00    +0.074 A 
ATOM      9  C   UNL     1       5.998  -1.962  -0.071  0.00  0.00    +0.040 A 
ATOM     10  C   UNL     1       5.892  -0.553  -0.160  0.00  0.00    +0.147 A 
ATOM     11  N   UNL     1       4.710   0.023  -0.143  0.00  0.00    -0.159 NA
BRANCH   5  15
ATOM     12  C   UNL     1      -0.017   1.378   0.010  0.00  0.00    +0.000 A 
ATOM     13  C   UNL     1       0.920   1.666  -0.965  0.00  0.00    +0.002 A 
ATOM     14  C   UNL     1       2.128   0.996  -0.984  0.00  0.00    +0.028 A 
ATOM     15  C   UNL     1       2.400   0.031  -0.021  0.00  0.00    +0.069 A 
ATOM     16  C   UNL     1       1.456  -0.255   0.957  0.00  0.00    +0.028 A 
ATOM     17  C   UNL     1       0.251   0.418   0.970  0.00  0.00    +0.002 A 
ENDBRANCH   5  15
ENDBRANCH   1  10
BRANCH   3  18
ATOM     18  C   UNL     1       8.164   2.392  -0.473  0.00  0.00    +0.121 A 
ATOM     19  C   UNL     1       9.445   1.933  -0.513  0.00  0.00    +0.068 A 
ATOM     20  C   UNL     1      10.292   3.038  -0.628  0.00  0.00    +0.065 A 
ATOM     21  N   UNL     1       9.559   4.121  -0.657  0.00  0.00    -0.177 NA
ATOM     22  N   UNL     1       8.212   3.746  -0.566  0.00  0.00    -0.264 N 
ATOM     23  H   UNL     1       7.450   4.346  -0.567  0.00  0.00    +0.190 HD
BRANCH  20  24
ATOM     24  C   UNL     1      11.797   2.991  -0.706  0.00  0.00    +0.061 C 
BRANCH  24  25
ATOM     25  C   UNL     1      12.266   3.726  -1.963  0.00  0.00    -0.005 C 
ATOM     26  C   UNL     1      11.773   2.979  -3.204  0.00  0.00    +0.004 C 
ATOM     27  C   UNL     1      12.242   3.714  -4.461  0.00  0.00    +0.000 C 
ATOM     28  C   UNL     1      13.771   3.774  -4.476  0.00  0.00    +0.000 C 
ATOM     29  C   UNL     1      14.264   4.521  -3.235  0.00  0.00    +0.000 C 
ATOM     30  C   UNL     1      13.795   3.787  -1.978  0.00  0.00    +0.004 C 
ENDBRANCH  24  25
ENDBRANCH  20  24
ENDBRANCH   3  18
TORSDOF 5
