REMARK  Name = ZINC11306855
REMARK  11 active torsions:
REMARK  status: ('A' for Active; 'I' for Inactive)
REMARK    1  A    between atoms: C_1  and  C_2
REMARK    2  A    between atoms: C_2  and  N_26
REMARK    3  A    between atoms: C_3  and  C_4
REMARK    4  A    between atoms: C_3  and  C_6
REMARK    5  A    between atoms: C_6  and  C_8
REMARK    6  A    between atoms: C_8  and  O_9
REMARK    7  A    between atoms: O_9  and  C_10
REMARK    8  A    between atoms: C_10  and  C_12
REMARK    9  A    between atoms: C_12  and  N_13
REMARK   10  A    between atoms: N_13  and  S_14
REMARK   11  A    between atoms: S_14  and  C_17
REMARK                            x       y       z     vdW  Elec       q    Type
REMARK                         _______ _______ _______ _____ _____    ______ ____
ROOT
ATOM      1  C   UNL     1       2.227   5.169  -2.431  0.00  0.00    +0.226 C 
ENDROOT
BRANCH   1   2
ATOM      2  C   UNL     1       2.979   5.546  -3.682  0.00  0.00    +0.323 C 
ATOM      3  O   UNL     1       4.109   5.153  -3.849  0.00  0.00    -0.249 OA
BRANCH   2   4
ATOM      4  O   UNL     1       2.393   6.319  -4.610  0.00  0.00    -0.456 OA
BRANCH   4   5
ATOM      5  C   UNL     1       3.176   6.643  -5.788  0.00  0.00    +0.312 C 
BRANCH   5   6
ATOM      6  C   UNL     1       2.361   7.512  -6.711  0.00  0.00    +0.212 C 
ATOM      7  O   UNL     1       1.229   7.828  -6.404  0.00  0.00    -0.288 OA
BRANCH   6  10
ATOM      8  C   UNL     1       0.761   9.150  -8.401  0.00  0.00    +0.061 C 
ATOM      9  C   UNL     1       2.166   8.758  -8.781  0.00  0.00    +0.019 C 
ATOM     10  C   UNL     1       2.914   7.960  -7.935  0.00  0.00    +0.114 C 
BRANCH   9  11
ATOM     11  N   UNL     1       2.693   9.185  -9.947  0.00  0.00    -0.360 N 
ATOM     12  H   UNL     1       3.718   8.898 -10.225  0.00  0.00    +0.142 HD
ATOM     13  H   UNL     1       2.098   9.819 -10.621  0.00  0.00    +0.142 HD
ENDBRANCH   9  11
BRANCH  10  14
ATOM     14  C   UNL     1       4.249   7.587  -8.296  0.00  0.00    +0.104 C 
ATOM     15  N   UNL     1       5.308   7.292  -8.582  0.00  0.00    -0.191 NA
ENDBRANCH  10  14
ENDBRANCH   6  10
ENDBRANCH   5   6
ENDBRANCH   4   5
ENDBRANCH   2   4
ENDBRANCH   1   2
BRANCH   1  16
ATOM     16  N   UNL     1       3.077   4.328  -1.585  0.00  0.00    -0.179 NA
ATOM     17  H   UNL     1       3.889   3.737  -2.036  0.00  0.00    +0.149 HD
BRANCH  16  18
ATOM     18  S   UNL     1       2.671   4.069  -0.001  0.00  0.00    +0.062 S 
ATOM     19  O   UNL     1       2.388   5.343   0.559  0.00  0.00    -0.153 OA
ATOM     20  O   UNL     1       3.662   3.204   0.536  0.00  0.00    -0.153 OA
BRANCH  18  21
ATOM     21  C   UNL     1       1.157   3.167   0.008  0.00  0.00    +0.142 A 
ATOM     22  C   UNL     1       1.176   1.784   0.000  0.00  0.00    +0.070 A 
ATOM     23  C   UNL     1      -0.013   1.076   0.008  0.00  0.00    +0.037 A 
ATOM     24  C   UNL     1      -1.220   1.751   0.017  0.00  0.00    +0.021 A 
ATOM     25  C   UNL     1      -1.239   3.134   0.031  0.00  0.00    +0.037 A 
ATOM     26  C   UNL     1      -0.050   3.842   0.023  0.00  0.00    +0.070 A 
ATOM     27 CL   UNL     1      -0.074   5.578   0.033  0.00  0.00    -0.081 Cl
ATOM     28 BR   UNL     1      -2.844   0.783   0.020  0.00  0.00    -0.050 Br
ATOM     29 CL   UNL     1       2.691   0.936  -0.018  0.00  0.00    -0.081 Cl
ENDBRANCH  18  21
ENDBRANCH  16  18
ENDBRANCH   1  16
TORSDOF 10
