REMARK  Name = ZINC39687161
REMARK  7 active torsions:
REMARK  status: ('A' for Active; 'I' for Inactive)
REMARK    1  A    between atoms: C_1  and  C_2
REMARK    2  A    between atoms: C_2  and  C_4
REMARK    3  A    between atoms: C_2  and  N_12
REMARK    4  A    between atoms: C_4  and  C_5
REMARK    5  A    between atoms: C_13  and  C_15
REMARK    6  A    between atoms: C_26  and  C_28
REMARK    7  A    between atoms: C_31  and  C_33
REMARK                            x       y       z     vdW  Elec       q    Type
REMARK                         _______ _______ _______ _____ _____    ______ ____
ROOT
ATOM      1  C   UNL     1       2.698  -0.909   2.599  0.00  0.00    +0.100 C 
ATOM      2  C   UNL     1       2.467  -2.421   2.818  0.00  0.00    +0.121 C 
ATOM      3  N   UNL     1       3.663  -3.071   2.233  0.00  0.00    -0.294 N 
ATOM      4  C   UNL     1       4.788  -2.184   2.615  0.00  0.00    +0.115 C 
ATOM      5  C   UNL     1       4.223  -0.757   2.469  0.00  0.00    -0.004 C 
ATOM      6  C   UNL     1       4.582  -0.185   1.101  0.00  0.00    -0.010 C 
ATOM      7  C   UNL     1       6.099   0.010   1.018  0.00  0.00    -0.082 C 
ATOM      8  N   UNL     1       6.536   0.921   2.082  0.00  0.00    +0.379 N 
ATOM      9  C   UNL     1       6.271   0.322   3.395  0.00  0.00    -0.082 C 
ATOM     10  C   UNL     1       4.761   0.140   3.579  0.00  0.00    -0.010 C 
ATOM     11  C   UNL     1       3.717  -4.212   1.517  0.00  0.00    +0.282 C 
ATOM     12  O   UNL     1       4.793  -4.668   1.179  0.00  0.00    -0.267 OA
ATOM     13  H   UNL     1       7.526   1.096   1.988  0.00  0.00    -0.086 HD
ATOM     14  H   UNL     1       6.035   1.793   2.004  0.00  0.00    -0.086 HD
ENDROOT
BRANCH  11  15
ATOM     15  C   UNL     1       2.479  -4.902   1.145  0.00  0.00    +0.190 A 
ATOM     16  C   UNL     1       2.392  -6.120   0.507  0.00  0.00    +0.055 A 
ATOM     17  C   UNL     1       1.030  -6.397   0.351  0.00  0.00    +0.050 A 
ATOM     18  C   UNL     1       0.342  -5.350   0.893  0.00  0.00    +0.136 A 
ATOM     19  O   UNL     1       1.225  -4.458   1.374  0.00  0.00    -0.450 OA
BRANCH  18  20
ATOM     20  C   UNL     1      -1.128  -5.221   0.947  0.00  0.00    +0.017 A 
ATOM     21  C   UNL     1      -1.940  -6.274   0.520  0.00  0.00    +0.011 A 
ATOM     22  C   UNL     1      -3.313  -6.147   0.574  0.00  0.00    +0.001 A 
ATOM     23  C   UNL     1      -3.885  -4.981   1.050  0.00  0.00    +0.000 A 
ATOM     24  C   UNL     1      -3.086  -3.934   1.474  0.00  0.00    +0.001 A 
ATOM     25  C   UNL     1      -1.712  -4.049   1.431  0.00  0.00    +0.011 A 
ENDBRANCH  18  20
ENDBRANCH  11  15
BRANCH   1  27
ATOM     26  N   UNL     1       1.624   0.831   1.208  0.00  0.00    -0.312 N 
ATOM     27  C   UNL     1       2.016  -0.452   1.336  0.00  0.00    +0.218 C 
ATOM     28  O   UNL     1       1.819  -1.238   0.434  0.00  0.00    -0.275 OA
ATOM     29  H   UNL     1       1.715   1.443   1.955  0.00  0.00    +0.149 HD
BRANCH  26  31
ATOM     30  C   UNL     1       2.188   1.801  -0.966  0.00  0.00    +0.028 C 
ATOM     31  C   UNL     1       1.060   1.303  -0.060  0.00  0.00    +0.074 C 
BRANCH  31  32
ATOM     32  C   UNL     1       0.081   2.446   0.211  0.00  0.00    +0.060 C 
BRANCH  32  33
ATOM     33  C   UNL     1      -1.100   1.923   0.987  0.00  0.00    -0.010 A 
ATOM     34  C   UNL     1      -2.230   1.492   0.319  0.00  0.00    +0.006 A 
ATOM     35  C   UNL     1      -3.314   1.012   1.030  0.00  0.00    +0.000 A 
ATOM     36  C   UNL     1      -3.269   0.963   2.411  0.00  0.00    +0.003 A 
ATOM     37  C   UNL     1      -2.140   1.393   3.082  0.00  0.00    +0.038 A 
ATOM     38  C   UNL     1      -1.052   1.870   2.370  0.00  0.00    +0.127 A 
ATOM     39  F   UNL     1       0.054   2.286   3.024  0.00  0.00    -0.205 F 
ENDBRANCH  32  33
ENDBRANCH  31  32
ENDBRANCH  26  31
ENDBRANCH   1  27
TORSDOF 6
