REMARK  Name = ZINC01431898
REMARK  7 active torsions:
REMARK  status: ('A' for Active; 'I' for Inactive)
REMARK    1  A    between atoms: C_2  and  C_25
REMARK    2  A    between atoms: C_5  and  C_6
REMARK    3  A    between atoms: C_15  and  C_23
REMARK    4  A    between atoms: C_16  and  N_22
REMARK    5  A    between atoms: C_17  and  C_18
REMARK    6  A    between atoms: C_17  and  C_20
REMARK    7  A    between atoms: C_25  and  N_26
REMARK                            x       y       z     vdW  Elec       q    Type
REMARK                         _______ _______ _______ _____ _____    ______ ____
ROOT
ATOM      1  C   UNL     1      -3.866   2.606  -0.173  0.00  0.00    +0.073 C 
ATOM      2  C   UNL     1      -2.927   1.421   0.065  0.00  0.00    +0.031 C 
ATOM      3  C   UNL     1      -2.186   1.028  -1.192  0.00  0.00    +0.009 C 
ATOM      4  C   UNL     1      -0.771   1.602  -1.222  0.00  0.00    +0.005 C 
ATOM      5  C   UNL     1      -0.013   1.086   0.008  0.00  0.00    +0.027 C 
ATOM      6  C   UNL     1      -0.734   1.580   1.235  0.00  0.00    -0.022 C 
ATOM      7  C   UNL     1      -2.043   1.747   1.232  0.00  0.00    -0.029 C 
ATOM      8  C   UNL     1      -2.700   2.340   2.428  0.00  0.00    +0.074 C 
ATOM      9  C   UNL     1      -3.962   2.826   2.321  0.00  0.00    +0.054 C 
ATOM     10  C   UNL     1      -4.761   2.783   1.054  0.00  0.00    +0.189 C 
ENDROOT
BRANCH   1  15
ATOM     11  C   UNL     1      -4.809   3.045  -2.539  0.00  0.00    +0.016 A 
ATOM     12  C   UNL     1      -5.668   2.606  -3.529  0.00  0.00    -0.026 A 
ATOM     13  C   UNL     1      -6.396   1.482  -3.317  0.00  0.00    +0.050 A 
ATOM     14  S   UNL     1      -5.866   1.002  -1.681  0.00  0.00    -0.101 S 
ATOM     15  C   UNL     1      -4.718   2.338  -1.386  0.00  0.00    -0.003 A 
BRANCH  12  16
ATOM     16  C   UNL     1      -5.795   3.366  -4.824  0.00  0.00    +0.120 C 
BRANCH  16  17
ATOM     17  N   UNL     1      -4.817   2.850  -5.792  0.00  0.00    -0.294 NA
ATOM     18  C   UNL     1      -3.443   3.139  -5.357  0.00  0.00    +0.113 C 
ATOM     19  C   UNL     1      -2.458   2.534  -6.361  0.00  0.00    +0.175 C 
ATOM     20  O   UNL     1      -2.734   3.054  -7.664  0.00  0.00    -0.377 OA
ATOM     21  C   UNL     1      -4.064   2.790  -8.119  0.00  0.00    +0.175 C 
ATOM     22  C   UNL     1      -5.065   3.398  -7.133  0.00  0.00    +0.113 C 
ENDBRANCH  16  17
ENDBRANCH  12  16
ENDBRANCH   1  15
BRANCH   9  23
ATOM     23  N   UNL     1      -4.535   3.386   3.428  0.00  0.00    -0.358 N 
ATOM     24  H   UNL     1      -5.557   3.789   3.374  0.00  0.00    +0.142 HD
ATOM     25  H   UNL     1      -3.974   3.433   4.373  0.00  0.00    +0.142 HD
ENDBRANCH   9  23
BRANCH  10  26
ATOM     26  C   UNL     1      -5.709   1.659   1.123  0.00  0.00    +0.091 C 
ATOM     27  N   UNL     1      -6.441   0.791   1.175  0.00  0.00    -0.194 NA
ENDBRANCH  10  26
BRANCH  10  28
ATOM     28  C   UNL     1      -5.517   4.039   0.919  0.00  0.00    +0.091 C 
ATOM     29  N   UNL     1      -6.100   5.008   0.816  0.00  0.00    -0.194 NA
ENDBRANCH  10  28
BRANCH   8  30
ATOM     30  C   UNL     1      -2.007   2.396   3.680  0.00  0.00    +0.101 C 
ATOM     31  N   UNL     1      -1.457   2.441   4.673  0.00  0.00    -0.191 NA
ENDBRANCH   8  30
TORSDOF 7
