REMARK  Name = ZINC10514982
REMARK  5 active torsions:
REMARK  status: ('A' for Active; 'I' for Inactive)
REMARK    1  A    between atoms: C_1  and  O_2
REMARK    2  A    between atoms: O_2  and  C_3
REMARK    3  A    between atoms: C_13  and  C_15
REMARK    4  A    between atoms: N_20  and  S_21
REMARK    5  A    between atoms: S_21  and  C_24
REMARK                            x       y       z     vdW  Elec       q    Type
REMARK                         _______ _______ _______ _____ _____    ______ ____
ROOT
ATOM      1  C   UNL     1       3.637   0.560  -0.030  0.00  0.00    +0.147 A 
ATOM      2  C   UNL     1       4.456   1.664  -0.032  0.00  0.00    +0.049 A 
ATOM      3  C   UNL     1       3.937   2.950  -0.020  0.00  0.00    +0.025 A 
ATOM      4  C   UNL     1       2.565   3.128  -0.006  0.00  0.00    +0.057 A 
ATOM      5  C   UNL     1       1.737   2.030  -0.004  0.00  0.00    +0.063 A 
ATOM      6  C   UNL     1       2.227   0.706  -0.015  0.00  0.00    +0.123 A 
ATOM      7  N   UNL     1       1.288  -0.266  -0.012  0.00  0.00    -0.221 NA
ATOM      8  C   UNL     1       0.002  -0.004   0.002  0.00  0.00    +0.166 A 
ATOM      9  S   UNL     1      -0.022   1.783   0.012  0.00  0.00    -0.050 S 
ATOM     10  N   UNL     1      -1.065  -0.888   0.007  0.00  0.00    -0.263 N 
ATOM     11  C   UNL     1      -2.329  -0.419   0.022  0.00  0.00    +0.238 C 
ATOM     12  O   UNL     1      -2.532   0.776   0.030  0.00  0.00    -0.274 OA
ATOM     13 CL   UNL     1       1.892   4.728   0.010  0.00  0.00    -0.082 Cl
ATOM     14  H   UNL     1      -0.903  -1.845   0.000  0.00  0.00    +0.157 HD
ENDROOT
BRANCH  11  15
ATOM     15  C   UNL     1      -3.490  -1.380   0.027  0.00  0.00    +0.166 C 
ATOM     16  C   UNL     1      -3.439  -2.256   1.297  0.00  0.00    +0.031 C 
ATOM     17  C   UNL     1      -4.935  -2.382   1.692  0.00  0.00    +0.019 C 
ATOM     18  C   UNL     1      -5.478  -0.986   1.298  0.00  0.00    +0.110 C 
ATOM     19  N   UNL     1      -4.756  -0.635   0.061  0.00  0.00    -0.164 NA
BRANCH  19  20
ATOM     20  S   UNL     1      -5.284   0.425  -1.097  0.00  0.00    +0.068 S 
ATOM     21  O   UNL     1      -6.199   1.304  -0.457  0.00  0.00    -0.152 OA
ATOM     22  O   UNL     1      -4.127   0.892  -1.777  0.00  0.00    -0.152 OA
BRANCH  20  23
ATOM     23  C   UNL     1      -6.215  -0.505  -2.268  0.00  0.00    +0.143 A 
ATOM     24  C   UNL     1      -7.541  -0.786  -2.275  0.00  0.00    +0.036 A 
ATOM     25  C   UNL     1      -8.062  -1.540  -3.310  0.00  0.00    +0.010 A 
ATOM     26  C   UNL     1      -7.229  -1.985  -4.282  0.00  0.00    +0.047 A 
ATOM     27  S   UNL     1      -5.656  -1.328  -3.751  0.00  0.00    -0.077 S 
ENDBRANCH  20  23
ENDBRANCH  19  20
ENDBRANCH  11  15
BRANCH   1  29
ATOM     28  C   UNL     1       5.612  -0.765  -0.056  0.00  0.00    +0.277 C 
ATOM     29  O   UNL     1       4.185  -0.684  -0.042  0.00  0.00    -0.493 OA
ENDBRANCH   1  29
TORSDOF 4
