REMARK  Name = ZINC18051632
REMARK  7 active torsions:
REMARK  status: ('A' for Active; 'I' for Inactive)
REMARK    1  A    between atoms: C_1  and  C_2
REMARK    2  A    between atoms: C_2  and  C_4
REMARK    3  A    between atoms: C_2  and  O_21
REMARK    4  A    between atoms: N_6  and  N_7
REMARK    5  A    between atoms: C_8  and  C_10
REMARK    6  A    between atoms: C_10  and  C_11
REMARK    7  A    between atoms: O_21  and  C_22
REMARK                            x       y       z     vdW  Elec       q    Type
REMARK                         _______ _______ _______ _____ _____    ______ ____
ROOT
ATOM      1  C   UNL     1      -3.377  -0.699   0.947  0.00  0.00    +0.270 C 
ATOM      2  O   UNL     1      -3.096  -1.798   1.374  0.00  0.00    -0.270 OA
ATOM      3  N   UNL     1      -4.591  -0.169   1.197  0.00  0.00    -0.231 N 
ATOM      4  H   UNL     1      -4.816   0.711   0.855  0.00  0.00    +0.173 HD
ENDROOT
BRANCH   3   5
ATOM      5  N   UNL     1      -5.528  -0.889   1.950  0.00  0.00    -0.234 N 
ATOM      6  C   UNL     1      -6.742  -0.359   2.200  0.00  0.00    +0.233 C 
ATOM      7  O   UNL     1      -7.023   0.740   1.773  0.00  0.00    -0.274 OA
ATOM      8  H   UNL     1      -5.303  -1.768   2.292  0.00  0.00    +0.173 HD
BRANCH   6   9
ATOM      9  C   UNL     1      -7.749  -1.133   3.011  0.00  0.00    +0.134 C 
BRANCH   9  10
ATOM     10  C   UNL     1      -9.014  -0.325   3.144  0.00  0.00    -0.014 A 
ATOM     11  C   UNL     1      -9.345   0.476   4.169  0.00  0.00    +0.087 A 
ATOM     12  N   UNL     1     -10.568   1.046   3.939  0.00  0.00    -0.360 N 
ATOM     13  H   UNL     1     -11.016   1.664   4.538  0.00  0.00    +0.165 HD
ATOM     14  C   UNL     1     -11.070   0.608   2.735  0.00  0.00    +0.047 A 
ATOM     15  C   UNL     1     -10.119  -0.271   2.184  0.00  0.00    +0.003 A 
ATOM     16  C   UNL     1     -10.362  -0.875   0.949  0.00  0.00    +0.010 A 
ATOM     17  C   UNL     1     -11.524  -0.610   0.281  0.00  0.00    +0.001 A 
ATOM     18  C   UNL     1     -12.466   0.255   0.820  0.00  0.00    +0.002 A 
ATOM     19  C   UNL     1     -12.246   0.863   2.037  0.00  0.00    +0.026 A 
ENDBRANCH   9  10
ENDBRANCH   6   9
ENDBRANCH   3   5
BRANCH   1  21
ATOM     20  C   UNL     1      -2.943   0.359  -1.254  0.00  0.00    +0.062 C 
ATOM     21  C   UNL     1      -2.370   0.076   0.136  0.00  0.00    +0.257 C 
BRANCH  21  22
ATOM     22  O   UNL     1      -1.171  -0.691   0.010  0.00  0.00    -0.480 OA
BRANCH  22  23
ATOM     23  C   UNL     1      -0.020  -0.003  -0.215  0.00  0.00    +0.122 A 
ATOM     24  C   UNL     1      -0.072   1.379  -0.423  0.00  0.00    +0.046 A 
ATOM     25  C   UNL     1       1.062   2.094  -0.651  0.00  0.00    +0.012 A 
ATOM     26  C   UNL     1       2.306   1.439  -0.678  0.00  0.00    -0.018 A 
ATOM     27  C   UNL     1       3.497   2.148  -0.911  0.00  0.00    +0.008 A 
ATOM     28  C   UNL     1       4.684   1.482  -0.932  0.00  0.00    +0.001 A 
ATOM     29  C   UNL     1       4.738   0.105  -0.725  0.00  0.00    +0.001 A 
ATOM     30  C   UNL     1       3.605  -0.614  -0.497  0.00  0.00    +0.008 A 
ATOM     31  C   UNL     1       2.361   0.039  -0.468  0.00  0.00    -0.014 A 
ATOM     32  C   UNL     1       1.171  -0.671  -0.236  0.00  0.00    +0.054 A 
ENDBRANCH  22  23
ENDBRANCH  21  22
ENDBRANCH   1  21
TORSDOF 6
