REMARK  Name = ZINC17642223
REMARK  7 active torsions:
REMARK  status: ('A' for Active; 'I' for Inactive)
REMARK    1  A    between atoms: C_1  and  C_2
REMARK    2  A    between atoms: C_3  and  C_26
REMARK    3  A    between atoms: C_11  and  C_13
REMARK    4  A    between atoms: C_13  and  S_14
REMARK    5  A    between atoms: S_14  and  C_15
REMARK    6  A    between atoms: C_15  and  C_17
REMARK    7  A    between atoms: C_15  and  C_18
REMARK                            x       y       z     vdW  Elec       q    Type
REMARK                         _______ _______ _______ _____ _____    ______ ____
ROOT
ATOM      1  C   UNL     1      -2.859 -12.046  -2.756  0.00  0.00    +0.045 C 
ATOM      2  C   UNL     1      -1.891 -10.912  -2.532  0.00  0.00    -0.026 A 
ATOM      3  C   UNL     1      -0.581 -11.079  -2.775  0.00  0.00    -0.008 A 
ATOM      4  S   UNL     1       0.119  -9.491  -2.365  0.00  0.00    -0.073 S 
ATOM      5  C   UNL     1      -1.367  -8.651  -1.881  0.00  0.00    +0.116 A 
ATOM      6  C   UNL     1      -2.365  -9.627  -2.051  0.00  0.00    +0.075 A 
ATOM      7  C   UNL     1      -3.698  -9.213  -1.726  0.00  0.00    +0.260 A 
ATOM      8  O   UNL     1      -4.632  -9.988  -1.840  0.00  0.00    -0.267 OA
ATOM      9  N   UNL     1      -3.901  -7.957  -1.286  0.00  0.00    -0.310 N 
ATOM     10  H   UNL     1      -4.800  -7.672  -1.061  0.00  0.00    +0.170 HD
ATOM     11  C   UNL     1      -2.873  -7.079  -1.159  0.00  0.00    +0.121 A 
ATOM     12  N   UNL     1      -1.647  -7.426  -1.447  0.00  0.00    -0.226 NA
ATOM     13  C   UNL     1       0.127 -12.312  -3.273  0.00  0.00    +0.052 C 
ENDROOT
BRANCH  11  14
ATOM     14  C   UNL     1      -3.151  -5.681  -0.669  0.00  0.00    +0.144 C 
BRANCH  14  15
ATOM     15  S   UNL     1      -1.597  -4.747  -0.593  0.00  0.00    -0.141 S 
BRANCH  15  16
ATOM     16  C   UNL     1      -2.099  -3.110   0.005  0.00  0.00    +0.130 C 
ATOM     17  C   UNL     1      -2.642  -3.232   1.431  0.00  0.00    +0.029 C 
BRANCH  16  18
ATOM     18  C   UNL     1      -0.908  -2.186  -0.001  0.00  0.00    +0.231 C 
ATOM     19  O   UNL     1       0.215  -2.645  -0.014  0.00  0.00    -0.274 OA
ATOM     20  N   UNL     1      -1.090  -0.851   0.008  0.00  0.00    -0.264 N 
ATOM     21  C   UNL     1       0.002  -0.004   0.002  0.00  0.00    +0.156 C 
ATOM     22  N   UNL     1      -0.015   1.290   0.009  0.00  0.00    -0.262 NA
ATOM     23  C   UNL     1       1.198   2.074   0.002  0.00  0.00    +0.155 C 
ATOM     24  C   UNL     1       2.473   1.202  -0.015  0.00  0.00    +0.100 C 
ATOM     25  S   UNL     1       1.721  -0.471  -0.017  0.00  0.00    -0.089 S 
ATOM     26  H   UNL     1      -1.988  -0.484   0.018  0.00  0.00    +0.157 HD
ENDBRANCH  16  18
ENDBRANCH  15  16
ENDBRANCH  14  15
ENDBRANCH  11  14
TORSDOF 4
