REMARK  Name = ZINC60341701
REMARK  10 active torsions:
REMARK  status: ('A' for Active; 'I' for Inactive)
REMARK    1  A    between atoms: C_1  and  C_2
REMARK    2  A    between atoms: C_7  and  S_15
REMARK    3  A    between atoms: C_12  and  C_14
REMARK    4  A    between atoms: S_15  and  N_18
REMARK    5  A    between atoms: N_18  and  C_19
REMARK    6  A    between atoms: C_21  and  S_27
REMARK    7  A    between atoms: C_24  and  N_25
REMARK    8  A    between atoms: N_25  and  C_26
REMARK    9  A    between atoms: S_27  and  N_30
REMARK   10  A    between atoms: N_30  and  C_31
REMARK                            x       y       z     vdW  Elec       q    Type
REMARK                         _______ _______ _______ _____ _____    ______ ____
ROOT
ATOM      1  N   UNL     1       6.274  -2.634  -2.292  0.00  0.00    -0.214 N 
ATOM      2  H   UNL     1       6.431  -2.458  -3.233  0.00  0.00    +0.174 HD
ENDROOT
BRANCH   1   3
ATOM      3  C   UNL     1       7.090  -2.037  -1.323  0.00  0.00    +0.071 A 
ATOM      4  C   UNL     1       7.418  -2.729  -0.168  0.00  0.00    +0.054 A 
ATOM      5  C   UNL     1       8.224  -2.137   0.787  0.00  0.00    +0.107 A 
ATOM      6  C   UNL     1       8.705  -0.855   0.594  0.00  0.00    +0.030 A 
ATOM      7  C   UNL     1       8.382  -0.158  -0.555  0.00  0.00    +0.027 A 
ATOM      8  C   UNL     1       7.579  -0.745  -1.521  0.00  0.00    +0.050 A 
BRANCH   8   9
ATOM      9  N   UNL     1       7.255  -0.043  -2.688  0.00  0.00    -0.345 N 
ATOM     10  C   UNL     1       7.770   1.313  -2.893  0.00  0.00    +0.125 C 
ATOM     11  H   UNL     1       6.690  -0.454  -3.361  0.00  0.00    +0.146 HD
ENDBRANCH   8   9
BRANCH   5  12
ATOM     12  S   UNL     1       8.639  -3.019   2.255  0.00  0.00    +0.058 S 
ATOM     13  O   UNL     1       8.957  -2.044   3.239  0.00  0.00    -0.153 OA
ATOM     14  O   UNL     1       7.620  -3.991   2.447  0.00  0.00    -0.153 OA
BRANCH  12  15
ATOM     15  N   UNL     1      10.036  -3.853   1.946  0.00  0.00    -0.193 NA
ATOM     16  C   UNL     1      11.279  -3.126   1.677  0.00  0.00    +0.127 C 
ATOM     17  H   UNL     1      10.032  -4.823   1.944  0.00  0.00    +0.148 HD
ENDBRANCH  12  15
ENDBRANCH   5  12
ENDBRANCH   1   3
BRANCH   1  18
ATOM     18  S   UNL     1       5.042  -3.640  -1.831  0.00  0.00    +0.072 S 
ATOM     19  O   UNL     1       5.619  -4.630  -0.990  0.00  0.00    -0.150 OA
ATOM     20  O   UNL     1       4.324  -3.970  -3.012  0.00  0.00    -0.150 OA
BRANCH  18  26
ATOM     21  C   UNL     1       0.375   1.650   0.367  0.00  0.00    +0.029 C 
ATOM     22  C   UNL     1       0.327   0.121   0.375  0.00  0.00    +0.083 C 
ATOM     23  C   UNL     1       0.828  -0.436  -0.967  0.00  0.00    +0.059 C 
ATOM     24  C   UNL     1       2.037  -1.269  -0.607  0.00  0.00    -0.022 A 
ATOM     25  C   UNL     1       2.896  -2.009  -1.397  0.00  0.00    +0.034 A 
ATOM     26  C   UNL     1       3.949  -2.697  -0.822  0.00  0.00    +0.109 A 
ATOM     27  C   UNL     1       4.141  -2.643   0.546  0.00  0.00    +0.030 A 
ATOM     28  C   UNL     1       3.286  -1.906   1.338  0.00  0.00    +0.026 A 
ATOM     29  C   UNL     1       2.221  -1.208   0.765  0.00  0.00    +0.040 A 
ATOM     30  N   UNL     1       1.248  -0.411   1.382  0.00  0.00    -0.268 N 
ATOM     31  C   UNL     1       1.171  -0.168   2.706  0.00  0.00    +0.217 C 
ATOM     32  O   UNL     1       2.050  -0.557   3.446  0.00  0.00    -0.276 OA
ATOM     33  C   UNL     1      -0.006   0.587   3.266  0.00  0.00    +0.109 C 
ENDBRANCH  18  26
ENDBRANCH   1  18
TORSDOF 6
