REMARK  Name = ZINC19932137
REMARK  4 active torsions:
REMARK  status: ('A' for Active; 'I' for Inactive)
REMARK    1  A    between atoms: C_1  and  C_2
REMARK    2  A    between atoms: C_8  and  C_24
REMARK    3  A    between atoms: C_9  and  C_17
REMARK    4  A    between atoms: C_11  and  C_15
REMARK                            x       y       z     vdW  Elec       q    Type
REMARK                         _______ _______ _______ _____ _____    ______ ____
ROOT
ATOM      1  C   UNL     1       3.085   4.962   3.329  0.00  0.00    +0.040 C 
ATOM      2  C   UNL     1       1.700   4.523   2.848  0.00  0.00    +0.146 C 
ATOM      3  C   UNL     1       1.188   5.471   1.745  0.00  0.00    +0.196 C 
ATOM      4  O   UNL     1       1.015   4.632   0.582  0.00  0.00    -0.327 OA
ATOM      5  C   UNL     1       0.864   3.306   1.113  0.00  0.00    +0.295 C 
ATOM      6  O   UNL     1       1.775   3.225   2.221  0.00  0.00    -0.324 OA
ATOM      7  C   UNL     1       1.216   2.257   0.051  0.00  0.00    +0.167 C 
ATOM      8  C   UNL     1       0.406   2.228  -1.247  0.00  0.00    +0.080 C 
ATOM      9  C   UNL     1      -0.074   1.417  -0.043  0.00  0.00    +0.146 C 
ATOM     10  C   UNL     1      -1.030   2.043   0.942  0.00  0.00    +0.116 C 
ATOM     11  N   UNL     1      -0.506   3.055   1.534  0.00  0.00    -0.211 NA
ATOM     12  N   UNL     1      -2.307   1.599   1.162  0.00  0.00    -0.345 N 
ATOM     13  H   UNL     1      -2.947   2.108   1.898  0.00  0.00    +0.143 HD
ATOM     14  H   UNL     1      -2.693   0.735   0.602  0.00  0.00    +0.143 HD
ENDROOT
BRANCH   8  15
ATOM     15  C   UNL     1      -0.374   3.466  -1.607  0.00  0.00    -0.005 A 
ATOM     16  C   UNL     1       0.290   4.645  -1.888  0.00  0.00    +0.007 A 
ATOM     17  C   UNL     1      -0.425   5.779  -2.223  0.00  0.00    +0.000 A 
ATOM     18  C   UNL     1      -1.806   5.739  -2.267  0.00  0.00    +0.003 A 
ATOM     19  C   UNL     1      -2.473   4.563  -1.981  0.00  0.00    +0.038 A 
ATOM     20  C   UNL     1      -1.757   3.424  -1.651  0.00  0.00    +0.127 A 
ATOM     21  F   UNL     1      -2.408   2.274  -1.371  0.00  0.00    -0.205 F 
ENDBRANCH   8  15
BRANCH   9  22
ATOM     22  C   UNL     1      -0.028  -0.053  -0.101  0.00  0.00    +0.079 C 
ATOM     23  N   UNL     1       0.007  -1.188  -0.146  0.00  0.00    -0.195 NA
ENDBRANCH   9  22
BRANCH   7  24
ATOM     24  C   UNL     1       2.555   1.648   0.103  0.00  0.00    +0.080 C 
ATOM     25  N   UNL     1       3.589   1.178   0.144  0.00  0.00    -0.196 NA
ENDBRANCH   7  24
TORSDOF 3
