REMARK  Name = ZINC19419144
REMARK  4 active torsions:
REMARK  status: ('A' for Active; 'I' for Inactive)
REMARK    1  A    between atoms: C_1  and  C_2
REMARK    2  A    between atoms: C_2  and  C_3
REMARK    3  A    between atoms: C_3  and  C_4
REMARK    4  A    between atoms: C_4  and  N_5
REMARK                            x       y       z     vdW  Elec       q    Type
REMARK                         _______ _______ _______ _____ _____    ______ ____
ROOT
ATOM      1  N   UNL     1      -2.787  -2.571   0.015  0.00  0.00    -0.307 N 
ATOM      2  C   UNL     1      -3.408  -2.804   1.226  0.00  0.00    +0.056 A 
ATOM      3  C   UNL     1      -2.730  -2.559   2.417  0.00  0.00    +0.026 A 
ATOM      4  C   UNL     1      -3.353  -2.793   3.624  0.00  0.00    +0.002 A 
ATOM      5  C   UNL     1      -4.654  -3.273   3.667  0.00  0.00    +0.001 A 
ATOM      6  C   UNL     1      -5.339  -3.521   2.511  0.00  0.00    +0.013 A 
ATOM      7  C   UNL     1      -4.726  -3.290   1.276  0.00  0.00    +0.042 A 
ATOM      8  C   UNL     1      -5.443  -3.550   0.024  0.00  0.00    +0.157 A 
ATOM      9  C   UNL     1      -4.782  -3.302  -1.180  0.00  0.00    +0.130 A 
ATOM     10  C   UNL     1      -3.413  -2.791  -1.157  0.00  0.00    +0.266 A 
ATOM     11  O   UNL     1      -2.832  -2.567  -2.204  0.00  0.00    -0.267 OA
ATOM     12  C   UNL     1      -5.482  -3.555  -2.439  0.00  0.00    +0.216 A 
ATOM     13  C   UNL     1      -6.779  -4.033  -2.372  0.00  0.00    +0.149 A 
ATOM     14  C   UNL     1      -7.366  -4.255  -1.120  0.00  0.00    +0.355 A 
ATOM     15  O   UNL     1      -8.509  -4.677  -1.066  0.00  0.00    -0.244 OA
ATOM     16  O   UNL     1      -6.702  -4.014   0.023  0.00  0.00    -0.420 OA
ATOM     17 BR   UNL     1      -7.749  -4.385  -3.957  0.00  0.00    -0.039 Br
ATOM     18  O   UNL     1      -4.882  -3.329  -3.630  0.00  0.00    -0.286 OA
ENDROOT
BRANCH   1  19
ATOM     19  C   UNL     1      -1.413  -2.063   0.004  0.00  0.00    +0.125 C 
BRANCH  19  20
ATOM     20  C   UNL     1      -1.433  -0.534   0.013  0.00  0.00    +0.021 C 
BRANCH  20  22
ATOM     21  C   UNL     1      -0.019   1.526   0.010  0.00  0.00    +0.004 C 
ATOM     22  C   UNL     1       0.002  -0.004   0.002  0.00  0.00    -0.002 C 
ENDBRANCH  20  22
ENDBRANCH  19  20
ENDBRANCH   1  19
TORSDOF 3
