REMARK  Name = ZINC36586857
REMARK  14 active torsions:
REMARK  status: ('A' for Active; 'I' for Inactive)
REMARK    1  A    between atoms: C_1  and  C_2
REMARK    2  A    between atoms: C_5  and  S_8
REMARK    3  A    between atoms: S_8  and  C_11
REMARK    4  A    between atoms: C_11  and  N_12
REMARK    5  A    between atoms: C_13  and  C_15
REMARK    6  A    between atoms: C_15  and  C_17
REMARK    7  A    between atoms: C_15  and  N_23
REMARK    8  A    between atoms: N_23  and  C_34
REMARK    9  A    between atoms: C_24  and  C_26
REMARK   10  A    between atoms: C_30  and  O_33
REMARK   11  A    between atoms: C_31  and  O_32
REMARK   12  A    between atoms: C_34  and  C_35
REMARK   13  A    between atoms: C_34  and  C_36
REMARK   14  A    between atoms: C_34  and  C_37
REMARK                            x       y       z     vdW  Elec       q    Type
REMARK                         _______ _______ _______ _____ _____    ______ ____
ROOT
ATOM      1  C   UNL     1       2.231  -7.132   4.575  0.00  0.00    +0.166 C 
ENDROOT
BRANCH   1   2
ATOM      2  C   UNL     1       1.535  -8.204   5.415  0.00  0.00    +0.019 C 
ATOM      3  C   UNL     1       0.026  -8.144   5.170  0.00  0.00    +0.006 C 
ATOM      4  C   UNL     1      -0.670  -9.216   6.010  0.00  0.00    +0.000 C 
ATOM      5  C   UNL     1      -0.385  -8.968   7.492  0.00  0.00    +0.000 C 
ATOM      6  C   UNL     1       1.124  -9.027   7.738  0.00  0.00    +0.000 C 
ATOM      7  C   UNL     1       1.820  -7.955   6.898  0.00  0.00    +0.006 C 
ENDBRANCH   1   2
BRANCH   1   9
ATOM      8  N   UNL     1       0.737  -7.008   2.608  0.00  0.00    -0.295 N 
ATOM      9  C   UNL     1       1.933  -7.365   3.116  0.00  0.00    +0.235 C 
ATOM     10  O   UNL     1       2.770  -7.873   2.400  0.00  0.00    -0.274 OA
ATOM     11  H   UNL     1       0.051  -6.646   3.190  0.00  0.00    +0.150 HD
BRANCH   8  12
ATOM     12  C   UNL     1       0.473  -7.169   1.176  0.00  0.00    +0.278 C 
BRANCH  12  13
ATOM     13  S   UNL     1      -0.355  -8.757   0.888  0.00  0.00    +0.013 S 
ATOM     14  O   UNL     1       0.326  -9.796   1.577  0.00  0.00    -0.168 OA
ATOM     15  O   UNL     1      -0.686  -8.894  -0.487  0.00  0.00    -0.168 OA
BRANCH  13  20
ATOM     16  C   UNL     1      -5.669  -8.271   3.704  0.00  0.00    +0.044 C 
ATOM     17  C   UNL     1      -4.342  -8.392   3.001  0.00  0.00    -0.050 A 
ATOM     18  C   UNL     1      -4.178  -7.857   1.737  0.00  0.00    +0.005 A 
ATOM     19  C   UNL     1      -2.961  -7.968   1.092  0.00  0.00    +0.027 A 
ATOM     20  C   UNL     1      -1.907  -8.614   1.711  0.00  0.00    +0.090 A 
ATOM     21  C   UNL     1      -2.070  -9.149   2.975  0.00  0.00    +0.027 A 
ATOM     22  C   UNL     1      -3.287  -9.034   3.622  0.00  0.00    +0.005 A 
ENDBRANCH  13  20
ENDBRANCH  12  13
ENDBRANCH   8  12
ENDBRANCH   1   9
BRANCH   1  23
ATOM     23  N   UNL     1       3.678  -7.202   4.795  0.00  0.00    -0.281 N 
ATOM     24  C   UNL     1       4.327  -8.373   4.643  0.00  0.00    +0.251 C 
ATOM     25  O   UNL     1       3.932  -9.186   3.829  0.00  0.00    -0.270 OA
BRANCH  24  26
ATOM     26  C   UNL     1       5.516  -8.670   5.465  0.00  0.00    +0.082 A 
ATOM     27  C   UNL     1       6.509  -7.702   5.639  0.00  0.00    +0.017 A 
ATOM     28  C   UNL     1       7.617  -7.982   6.407  0.00  0.00    +0.005 A 
ATOM     29  C   UNL     1       7.755  -9.222   7.010  0.00  0.00    +0.049 A 
ATOM     30  C   UNL     1       6.781 -10.192   6.846  0.00  0.00    +0.159 A 
ATOM     31  C   UNL     1       5.653  -9.921   6.078  0.00  0.00    +0.171 A 
BRANCH  31  32
ATOM     32  O   UNL     1       4.692 -10.867   5.920  0.00  0.00    -0.503 OA
ATOM     33  H   UNL     1       4.832 -11.447   5.158  0.00  0.00    +0.292 HD
ENDBRANCH  31  32
BRANCH  30  34
ATOM     34  O   UNL     1       6.924 -11.407   7.441  0.00  0.00    -0.503 OA
ATOM     35  H   UNL     1       6.545 -11.457   8.329  0.00  0.00    +0.292 HD
ENDBRANCH  30  34
ENDBRANCH  24  26
BRANCH  23  36
ATOM     36  C   UNL     1       4.420  -5.999   5.180  0.00  0.00    +0.030 C 
ATOM     37  C   UNL     1       3.438  -4.852   5.430  0.00  0.00    +0.031 C 
ATOM     38  C   UNL     1       5.215  -6.277   6.458  0.00  0.00    +0.031 C 
ATOM     39  C   UNL     1       5.381  -5.610   4.056  0.00  0.00    +0.031 C 
ENDBRANCH  23  36
ENDBRANCH   1  23
TORSDOF 10
