REMARK  Name = ZINC40366776
REMARK  6 active torsions:
REMARK  status: ('A' for Active; 'I' for Inactive)
REMARK    1  A    between atoms: C_4  and  C_7
REMARK    2  A    between atoms: C_7  and  C_9
REMARK    3  A    between atoms: C_7  and  N_11
REMARK    4  A    between atoms: C_9  and  N_10
REMARK    5  A    between atoms: N_11  and  S_12
REMARK    6  A    between atoms: S_12  and  C_15
REMARK                            x       y       z     vdW  Elec       q    Type
REMARK                         _______ _______ _______ _____ _____    ______ ____
ROOT
ATOM      1  N   UNL     1       3.630  -1.873   0.845  0.00  0.00    -0.184 NA
ATOM      2  H   UNL     1       2.798  -2.365   0.924  0.00  0.00    +0.149 HD
ENDROOT
BRANCH   1   3
ATOM      3  S   UNL     1       4.959  -2.352   1.709  0.00  0.00    +0.059 S 
ATOM      4  O   UNL     1       4.560  -3.478   2.479  0.00  0.00    -0.153 OA
ATOM      5  O   UNL     1       6.043  -2.402   0.792  0.00  0.00    -0.153 OA
BRANCH   3   6
ATOM      6  C   UNL     1       5.328  -1.064   2.854  0.00  0.00    +0.108 A 
ATOM      7  C   UNL     1       6.181  -0.039   2.490  0.00  0.00    +0.031 A 
ATOM      8  C   UNL     1       6.472   0.972   3.386  0.00  0.00    +0.043 A 
ATOM      9  C   UNL     1       5.908   0.960   4.650  0.00  0.00    +0.159 A 
ATOM     10  C   UNL     1       5.052  -0.068   5.015  0.00  0.00    +0.160 A 
ATOM     11  C   UNL     1       4.759  -1.077   4.114  0.00  0.00    +0.069 A 
ATOM     12  F   UNL     1       4.500  -0.082   6.249  0.00  0.00    -0.202 F 
ATOM     13  F   UNL     1       6.192   1.948   5.527  0.00  0.00    -0.202 F 
ENDBRANCH   3   6
ENDBRANCH   1   3
BRANCH   1  14
ATOM     14  C   UNL     1       3.711  -0.707  -0.038  0.00  0.00    +0.089 C 
BRANCH  14  18
ATOM     15  C   UNL     1      -0.017   1.378   0.010  0.00  0.00    +0.000 A 
ATOM     16  C   UNL     1       1.171   2.086   0.002  0.00  0.00    +0.000 A 
ATOM     17  C   UNL     1       2.377   1.411  -0.013  0.00  0.00    +0.005 A 
ATOM     18  C   UNL     1       2.396   0.029  -0.020  0.00  0.00    -0.031 A 
ATOM     19  C   UNL     1       1.208  -0.679  -0.012  0.00  0.00    +0.005 A 
ATOM     20  C   UNL     1       0.002  -0.004   0.002  0.00  0.00    +0.000 A 
ENDBRANCH  14  18
BRANCH  14  21
ATOM     21  C   UNL     1       4.019  -1.168  -1.464  0.00  0.00    -0.061 C 
BRANCH  21  22
ATOM     22  N   UNL     1       5.239  -1.986  -1.461  0.00  0.00    +0.379 N 
ATOM     23  H   UNL     1       6.011  -1.439  -1.111  0.00  0.00    -0.090 HD
ATOM     24  H   UNL     1       5.102  -2.792  -0.870  0.00  0.00    -0.090 HD
ATOM     25  H   UNL     1       5.442  -2.290  -2.402  0.00  0.00    -0.090 HD
ENDBRANCH  21  22
ENDBRANCH  14  21
ENDBRANCH   1  14
TORSDOF 6
