REMARK  Name = ZINC12211392
REMARK  3 active torsions:
REMARK  status: ('A' for Active; 'I' for Inactive)
REMARK    1  A    between atoms: C_1  and  S_2
REMARK    2  A    between atoms: S_2  and  C_3
REMARK    3  A    between atoms: C_19  and  C_22
REMARK                            x       y       z     vdW  Elec       q    Type
REMARK                         _______ _______ _______ _____ _____    ______ ____
ROOT
ATOM      1  C   UNL     1       0.002  -0.004   0.026  0.00  0.00    +0.191 A 
ATOM      2  N   UNL     1      -1.146  -0.672   0.038  0.00  0.00    -0.206 NA
ATOM      3  C   UNL     1      -1.191  -1.993   0.003  0.00  0.00    +0.134 A 
ATOM      4  C   UNL     1       0.026  -2.729  -0.037  0.00  0.00    +0.051 A 
ATOM      5  C   UNL     1       0.215  -4.181  -0.074  0.00  0.00    -0.025 A 
ATOM      6  C   UNL     1       1.485  -4.632  -0.109  0.00  0.00    -0.004 A 
ATOM      7  S   UNL     1       2.494  -3.174  -0.095  0.00  0.00    -0.073 S 
ATOM      8  C   UNL     1       1.204  -1.957  -0.042  0.00  0.00    +0.115 A 
ATOM      9  N   UNL     1       1.167  -0.639  -0.011  0.00  0.00    -0.215 NA
ATOM     10  C   UNL     1       1.941  -6.059  -0.151  0.00  0.00    +0.043 C 
ATOM     11  C   UNL     1       0.755  -6.958   0.225  0.00  0.00    +0.005 C 
ATOM     12  C   UNL     1      -0.471  -6.516  -0.578  0.00  0.00    +0.005 C 
ATOM     13  C   UNL     1      -0.959  -5.157  -0.074  0.00  0.00    +0.037 C 
ATOM     14  N   UNL     1      -2.407  -2.651   0.012  0.00  0.00    -0.315 N 
ATOM     15  C   UNL     1      -3.216  -2.278  -1.156  0.00  0.00    +0.107 C 
ATOM     16  C   UNL     1      -4.487  -3.131  -1.191  0.00  0.00    +0.031 C 
ATOM     17  C   UNL     1      -5.282  -2.905   0.098  0.00  0.00    +0.078 C 
ATOM     18  C   UNL     1      -4.402  -3.254   1.300  0.00  0.00    +0.031 C 
ATOM     19  C   UNL     1      -3.134  -2.398   1.263  0.00  0.00    +0.107 C 
ENDROOT
BRANCH  17  20
ATOM     20  C   UNL     1      -6.505  -3.785   0.096  0.00  0.00    +0.214 C 
ATOM     21  O   UNL     1      -6.659  -4.612   0.971  0.00  0.00    -0.276 OA
ATOM     22  N   UNL     1      -7.429  -3.655  -0.876  0.00  0.00    -0.329 N 
ATOM     23  H   UNL     1      -7.306  -2.994  -1.576  0.00  0.00    +0.145 HD
ATOM     24  H   UNL     1      -8.216  -4.221  -0.877  0.00  0.00    +0.145 HD
ENDBRANCH  17  20
BRANCH   1  26
ATOM     25  C   UNL     1       1.757   2.096   0.040  0.00  0.00    +0.093 C 
ATOM     26  S   UNL     1      -0.021   1.757   0.067  0.00  0.00    -0.089 S 
ENDBRANCH   1  26
TORSDOF 2
