REMARK  Name = ZINC61824211
REMARK  2 active torsions:
REMARK  status: ('A' for Active; 'I' for Inactive)
REMARK    1  A    between atoms: C_1  and  N_2
REMARK    2  A    between atoms: C_6  and  C_9
REMARK                            x       y       z     vdW  Elec       q    Type
REMARK                         _______ _______ _______ _____ _____    ______ ____
ROOT
ATOM      1  C   UNL     1       2.434  -2.949   4.040  0.00  0.00    +0.267 C 
ATOM      2  O   UNL     1       1.796  -2.279   3.252  0.00  0.00    -0.268 OA
ATOM      3  N   UNL     1       2.495  -4.287   3.893  0.00  0.00    -0.296 N 
ATOM      4  C   UNL     1       1.942  -4.935   2.696  0.00  0.00    +0.108 C 
ATOM      5  C   UNL     1       0.959  -6.026   3.135  0.00  0.00    +0.026 C 
ATOM      6  C   UNL     1       1.662  -6.983   4.099  0.00  0.00    -0.026 C 
ATOM      7  C   UNL     1       0.693  -8.091   4.514  0.00  0.00    +0.007 C 
ATOM      8  C   UNL     1       0.236  -8.861   3.273  0.00  0.00    +0.001 C 
ATOM      9  C   UNL     1       1.452  -9.481   2.581  0.00  0.00    +0.000 C 
ATOM     10  C   UNL     1       2.422  -8.372   2.166  0.00  0.00    +0.001 C 
ATOM     11  C   UNL     1       2.878  -7.602   3.407  0.00  0.00    +0.007 C 
ATOM     12  C   UNL     1       2.119  -6.215   5.341  0.00  0.00    +0.026 C 
ATOM     13  C   UNL     1       3.120  -5.126   4.925  0.00  0.00    +0.108 C 
ENDROOT
BRANCH   1  19
ATOM     14  C   UNL     1       5.031   0.749   8.653  0.00  0.00    +0.127 C 
ATOM     15  N   UNL     1       5.192  -0.661   8.288  0.00  0.00    -0.331 N 
ATOM     16  C   UNL     1       4.483  -1.185   7.221  0.00  0.00    +0.141 A 
ATOM     17  C   UNL     1       3.618  -0.371   6.488  0.00  0.00    +0.047 A 
ATOM     18  C   UNL     1       2.931  -0.938   5.431  0.00  0.00    +0.038 A 
ATOM     19  C   UNL     1       3.145  -2.295   5.160  0.00  0.00    +0.148 A 
ATOM     20  N   UNL     1       3.988  -2.993   5.911  0.00  0.00    -0.143 NA
ATOM     21  N   UNL     1       4.629  -2.464   6.889  0.00  0.00    -0.134 NA
ATOM     22  H   UNL     1       5.796  -1.226   8.794  0.00  0.00    +0.147 HD
ENDBRANCH   1  19
TORSDOF 1
