REMARK  Name = ZINC06102552
REMARK  6 active torsions:
REMARK  status: ('A' for Active; 'I' for Inactive)
REMARK    1  A    between atoms: C_1  and  N_52
REMARK    2  A    between atoms: C_10  and  C_12
REMARK    3  A    between atoms: C_12  and  C_13
REMARK    4  A    between atoms: C_18  and  N_19
REMARK    5  A    between atoms: N_19  and  S_20
REMARK    6  A    between atoms: S_20  and  C_23
REMARK                            x       y       z     vdW  Elec       q    Type
REMARK                         _______ _______ _______ _____ _____    ______ ____
ROOT
ATOM      1  C   UNL     1       0.731   3.014  -0.302  0.00  0.00    -0.026 A 
ATOM      2  C   UNL     1       1.175   1.715  -0.145  0.00  0.00    +0.005 A 
ATOM      3  C   UNL     1       0.264   0.681  -0.024  0.00  0.00    +0.000 A 
ATOM      4  C   UNL     1      -1.093   0.943  -0.065  0.00  0.00    +0.002 A 
ATOM      5  C   UNL     1      -1.544   2.239  -0.216  0.00  0.00    +0.025 A 
ATOM      6  C   UNL     1      -0.632   3.280  -0.338  0.00  0.00    +0.051 A 
ENDROOT
BRANCH   6   7
ATOM      7  N   UNL     1      -1.085   4.592  -0.496  0.00  0.00    -0.216 N 
ATOM      8  H   UNL     1      -0.591   5.211  -1.057  0.00  0.00    +0.174 HD
BRANCH   7   9
ATOM      9  S   UNL     1      -2.463   5.091   0.274  0.00  0.00    +0.074 S 
ATOM     10  O   UNL     1      -2.371   4.625   1.614  0.00  0.00    -0.150 OA
ATOM     11  O   UNL     1      -2.632   6.465  -0.045  0.00  0.00    -0.150 OA
BRANCH   9  12
ATOM     12  C   UNL     1      -3.813   4.233  -0.465  0.00  0.00    +0.128 A 
ATOM     13  C   UNL     1      -4.551   3.333   0.280  0.00  0.00    +0.051 A 
ATOM     14  C   UNL     1      -5.611   2.660  -0.300  0.00  0.00    +0.061 A 
ATOM     15  C   UNL     1      -5.931   2.886  -1.628  0.00  0.00    +0.061 A 
ATOM     16  C   UNL     1      -5.192   3.786  -2.373  0.00  0.00    +0.043 A 
ATOM     17  C   UNL     1      -4.136   4.464  -1.790  0.00  0.00    +0.069 A 
ATOM     18 CL   UNL     1      -3.212   5.599  -2.724  0.00  0.00    -0.081 Cl
ATOM     19 CL   UNL     1      -7.261   2.040  -2.357  0.00  0.00    -0.082 Cl
ATOM     20 CL   UNL     1      -6.539   1.530   0.637  0.00  0.00    -0.082 Cl
ENDBRANCH   9  12
ENDBRANCH   7   9
ENDBRANCH   6   7
BRANCH   1  21
ATOM     21  C   UNL     1       1.723   4.139  -0.434  0.00  0.00    +0.026 C 
BRANCH  21  31
ATOM     22  C   UNL     1       0.522   6.482   0.802  0.00  0.00    -0.095 C 
ATOM     23  C   UNL     1       1.215   5.644   2.968  0.00  0.00    -0.074 C 
ATOM     24  C   UNL     1       1.271   4.354   3.787  0.00  0.00    +0.017 C 
ATOM     25  C   UNL     1       2.188   3.362   3.120  0.00  0.00    -0.047 A 
ATOM     26  C   UNL     1       2.651   2.286   3.863  0.00  0.00    +0.004 A 
ATOM     27  C   UNL     1       3.490   1.351   3.290  0.00  0.00    +0.000 A 
ATOM     28  C   UNL     1       3.870   1.489   1.968  0.00  0.00    +0.000 A 
ATOM     29  C   UNL     1       3.412   2.560   1.228  0.00  0.00    +0.002 A 
ATOM     30  C   UNL     1       2.570   3.501   1.803  0.00  0.00    -0.058 A 
ATOM     31  C   UNL     1       2.099   4.654   0.957  0.00  0.00    -0.033 C 
ATOM     32  N   UNL     1       0.914   5.278   1.570  0.00  0.00    +0.383 N 
ATOM     33  H   UNL     1       0.138   4.606   1.558  0.00  0.00    -0.081 HD
ENDBRANCH  21  31
ENDBRANCH   1  21
TORSDOF 5
