REMARK  Name = ZINC36977161
REMARK  4 active torsions:
REMARK  status: ('A' for Active; 'I' for Inactive)
REMARK    1  A    between atoms: C_1  and  C_2
REMARK    2  A    between atoms: C_2  and  C_4
REMARK    3  A    between atoms: C_2  and  N_14
REMARK    4  A    between atoms: N_14  and  C_15
REMARK                            x       y       z     vdW  Elec       q    Type
REMARK                         _______ _______ _______ _____ _____    ______ ____
ROOT
ATOM      1  C   UNL     1       0.542   1.819   0.354  0.00  0.00    -0.006 C 
ATOM      2  C   UNL     1       0.243   0.347   0.062  0.00  0.00    -0.006 C 
ENDROOT
BRANCH   2   3
ATOM      3  C   UNL     1       0.855  -0.036  -1.261  0.00  0.00    +0.092 A 
ATOM      4  C   UNL     1       0.188  -0.118  -2.420  0.00  0.00    +0.051 A 
ATOM      5  C   UNL     1       1.172  -0.520  -3.432  0.00  0.00    +0.021 A 
ATOM      6  C   UNL     1       1.114  -0.771  -4.802  0.00  0.00    +0.027 A 
ATOM      7  C   UNL     1       2.258  -1.141  -5.475  0.00  0.00    +0.019 A 
ATOM      8  C   UNL     1       3.462  -1.265  -4.793  0.00  0.00    +0.019 A 
ATOM      9  C   UNL     1       3.531  -1.019  -3.439  0.00  0.00    +0.048 A 
ATOM     10  C   UNL     1       2.390  -0.644  -2.742  0.00  0.00    +0.135 A 
ATOM     11  O   UNL     1       2.151  -0.340  -1.450  0.00  0.00    -0.461 OA
ATOM     12 BR   UNL     1       2.189  -1.484  -7.333  0.00  0.00    -0.050 Br
ENDBRANCH   2   3
BRANCH   2  13
ATOM     13  N   UNL     1       0.814  -0.489   1.126  0.00  0.00    +0.393 N 
ATOM     14  H   UNL     1       0.709  -1.462   0.882  0.00  0.00    -0.084 HD
ATOM     15  H   UNL     1       1.794  -0.273   1.234  0.00  0.00    -0.084 HD
BRANCH  13  16
ATOM     16  C   UNL     1       0.111  -0.222   2.389  0.00  0.00    +0.017 C 
ATOM     17  C   UNL     1      -1.103  -1.146   2.506  0.00  0.00    -0.007 C 
ATOM     18  C   UNL     1      -0.809  -2.501   1.889  0.00  0.00    +0.000 C 
ATOM     19  C   UNL     1       0.242  -3.300   2.636  0.00  0.00    +0.019 C 
ATOM     20  C   UNL     1       1.613  -2.630   2.531  0.00  0.00    +0.104 C 
ATOM     21  N   UNL     1       1.734  -1.632   3.607  0.00  0.00    -0.317 N 
ATOM     22  C   UNL     1       1.040  -0.491   3.554  0.00  0.00    +0.199 C 
ATOM     23  O   UNL     1       1.148   0.329   4.442  0.00  0.00    -0.278 OA
ATOM     24  H   UNL     1       2.322  -1.803   4.358  0.00  0.00    +0.149 HD
ENDBRANCH  13  16
ENDBRANCH   2  13
TORSDOF 3
