REMARK  Name = ZINC04157373
REMARK  9 active torsions:
REMARK  status: ('A' for Active; 'I' for Inactive)
REMARK    1  A    between atoms: C_1  and  C_2
REMARK    2  A    between atoms: C_9  and  C_18
REMARK    3  A    between atoms: C_10  and  N_11
REMARK    4  A    between atoms: N_11  and  C_12
REMARK    5  A    between atoms: C_23  and  O_24
REMARK    6  A    between atoms: O_24  and  S_25
REMARK    7  A    between atoms: S_25  and  C_28
REMARK    8  A    between atoms: C_31  and  O_34
REMARK    9  A    between atoms: O_34  and  C_35
REMARK                            x       y       z     vdW  Elec       q    Type
REMARK                         _______ _______ _______ _____ _____    ______ ____
ROOT
ATOM      1  C   UNL     1      -0.306   1.489   0.041  0.00  0.00    +0.044 C 
ATOM      2  C   UNL     1      -0.195  -0.013   0.024  0.00  0.00    -0.046 A 
ATOM      3  C   UNL     1      -0.346  -0.718  -1.184  0.00  0.00    +0.021 A 
ATOM      4  C   UNL     1      -0.246  -2.062  -1.206  0.00  0.00    +0.094 A 
ATOM      5  N   UNL     1       0.002  -2.761  -0.055  0.00  0.00    -0.289 N 
ATOM      6  C   UNL     1       0.155  -2.099   1.141  0.00  0.00    +0.117 A 
ATOM      7  C   UNL     1       0.058  -0.692   1.174  0.00  0.00    +0.048 A 
ATOM      8  N   UNL     1       0.384  -2.992   2.090  0.00  0.00    -0.338 N 
ATOM      9  C   UNL     1       0.386  -4.224   1.549  0.00  0.00    +0.090 A 
ATOM     10  C   UNL     1       0.147  -4.097   0.197  0.00  0.00    +0.129 A 
ATOM     11  H   UNL     1       0.528  -2.790   3.028  0.00  0.00    +0.167 HD
ENDROOT
BRANCH   9  12
ATOM     12  C   UNL     1       0.608  -5.495   2.279  0.00  0.00    +0.046 A 
ATOM     13  C   UNL     1      -0.311  -5.921   3.237  0.00  0.00    +0.014 A 
ATOM     14  C   UNL     1      -0.100  -7.105   3.914  0.00  0.00    +0.001 A 
ATOM     15  C   UNL     1       1.020  -7.872   3.644  0.00  0.00    +0.004 A 
ATOM     16  C   UNL     1       1.937  -7.458   2.696  0.00  0.00    +0.049 A 
ATOM     17  C   UNL     1       1.736  -6.275   2.005  0.00  0.00    +0.166 A 
BRANCH  17  18
ATOM     18  O   UNL     1       2.633  -5.870   1.068  0.00  0.00    -0.342 OA
BRANCH  18  19
ATOM     19  S   UNL     1       3.754  -5.000   1.619  0.00  0.00    +0.151 S 
ATOM     20  O   UNL     1       4.470  -4.501   0.498  0.00  0.00    -0.131 OA
ATOM     21  O   UNL     1       3.165  -4.145   2.589  0.00  0.00    -0.131 OA
BRANCH  19  22
ATOM     22  C   UNL     1       4.858  -6.063   2.489  0.00  0.00    +0.128 A 
ATOM     23  C   UNL     1       4.660  -6.312   3.835  0.00  0.00    +0.034 A 
ATOM     24  C   UNL     1       5.525  -7.144   4.519  0.00  0.00    +0.047 A 
ATOM     25  C   UNL     1       6.593  -7.730   3.855  0.00  0.00    +0.120 A 
ATOM     26  C   UNL     1       6.789  -7.479   2.505  0.00  0.00    +0.047 A 
ATOM     27  C   UNL     1       5.919  -6.650   1.824  0.00  0.00    +0.034 A 
BRANCH  25  28
ATOM     28  O   UNL     1       7.445  -8.549   4.526  0.00  0.00    -0.495 OA
ATOM     29  C   UNL     1       8.522  -9.117   3.779  0.00  0.00    +0.277 C 
ENDBRANCH  25  28
ENDBRANCH  19  22
ENDBRANCH  18  19
ENDBRANCH  17  18
ENDBRANCH   9  12
BRANCH  10  30
ATOM     30  N   UNL     1       0.067  -5.133  -0.734  0.00  0.00    -0.326 N 
ATOM     31  H   UNL     1       0.092  -6.056  -0.437  0.00  0.00    +0.148 HD
BRANCH  30  32
ATOM     32  C   UNL     1      -0.056  -4.827  -2.162  0.00  0.00    +0.072 C 
ATOM     33  C   UNL     1      -1.526  -4.578  -2.506  0.00  0.00    +0.022 C 
ATOM     34  C   UNL     1      -1.653  -4.259  -3.997  0.00  0.00    +0.002 C 
ATOM     35  C   UNL     1      -1.130  -5.439  -4.818  0.00  0.00    +0.000 C 
ATOM     36  C   UNL     1       0.340  -5.688  -4.474  0.00  0.00    +0.002 C 
ATOM     37  C   UNL     1       0.468  -6.008  -2.983  0.00  0.00    +0.022 C 
ENDBRANCH  30  32
ENDBRANCH  10  30
TORSDOF 7
