REMARK  Name = ZINC22101829
REMARK  9 active torsions:
REMARK  status: ('A' for Active; 'I' for Inactive)
REMARK    1  A    between atoms: C_1  and  C_2
REMARK    2  A    between atoms: C_3  and  C_33
REMARK    3  A    between atoms: N_9  and  C_28
REMARK    4  A    between atoms: C_10  and  S_12
REMARK    5  A    between atoms: S_12  and  C_13
REMARK    6  A    between atoms: C_13  and  C_15
REMARK    7  A    between atoms: C_13  and  C_16
REMARK    8  A    between atoms: N_18  and  C_19
REMARK    9  A    between atoms: C_24  and  N_25
REMARK                            x       y       z     vdW  Elec       q    Type
REMARK                         _______ _______ _______ _____ _____    ______ ____
ROOT
ATOM      1  C   UNL     1      -0.270   1.369  -0.252  0.00  0.00    +0.045 C 
ATOM      2  C   UNL     1      -0.076  -0.126  -0.238  0.00  0.00    -0.026 A 
ATOM      3  C   UNL     1       0.076  -0.801  -1.387  0.00  0.00    -0.008 A 
ATOM      4  S   UNL     1       0.266  -2.491  -0.852  0.00  0.00    -0.073 S 
ATOM      5  C   UNL     1       0.136  -2.241   0.900  0.00  0.00    +0.117 A 
ATOM      6  C   UNL     1      -0.046  -0.851   1.021  0.00  0.00    +0.075 A 
ATOM      7  C   UNL     1      -0.179  -0.353   2.355  0.00  0.00    +0.263 A 
ATOM      8  O   UNL     1      -0.344   0.837   2.557  0.00  0.00    -0.267 OA
ATOM      9  N   UNL     1      -0.119  -1.217   3.385  0.00  0.00    -0.284 N 
ATOM     10  C   UNL     1       0.066  -2.554   3.179  0.00  0.00    +0.174 A 
ATOM     11  N   UNL     1       0.181  -3.040   1.959  0.00  0.00    -0.216 NA
ATOM     12  C   UNL     1       0.083  -0.260  -2.793  0.00  0.00    +0.052 C 
ENDROOT
BRANCH   9  13
ATOM     13  C   UNL     1      -0.254  -0.714   4.754  0.00  0.00    +0.093 C 
ATOM     14  C   UNL     1       0.948   0.186   5.107  0.00  0.00    +0.025 C 
ATOM     15  C   UNL     1       0.445   1.623   4.818  0.00  0.00    +0.002 C 
ATOM     16  C   UNL     1      -1.029   1.570   5.290  0.00  0.00    +0.002 C 
ATOM     17  C   UNL     1      -1.511   0.166   4.871  0.00  0.00    +0.025 C 
ENDBRANCH   9  13
BRANCH  10  18
ATOM     18  S   UNL     1       0.137  -3.645   4.560  0.00  0.00    -0.075 S 
BRANCH  18  19
ATOM     19  C   UNL     1       0.388  -5.280   3.815  0.00  0.00    +0.137 C 
ATOM     20  C   UNL     1       1.749  -5.319   3.117  0.00  0.00    +0.029 C 
BRANCH  19  21
ATOM     21  C   UNL     1       0.345  -6.334   4.891  0.00  0.00    +0.230 C 
ATOM     22  O   UNL     1       0.528  -6.026   6.050  0.00  0.00    -0.274 OA
ATOM     23  N   UNL     1       0.104  -7.620   4.566  0.00  0.00    -0.283 N 
ATOM     24  H   UNL     1       0.028  -7.878   3.634  0.00  0.00    +0.155 HD
BRANCH  23  25
ATOM     25  C   UNL     1      -0.037  -8.582   5.573  0.00  0.00    +0.064 A 
ATOM     26  C   UNL     1       0.663  -8.448   6.765  0.00  0.00    +0.025 A 
ATOM     27  C   UNL     1       0.522  -9.399   7.756  0.00  0.00    +0.002 A 
ATOM     28  C   UNL     1      -0.315 -10.483   7.563  0.00  0.00    +0.002 A 
ATOM     29  C   UNL     1      -1.013 -10.619   6.377  0.00  0.00    +0.034 A 
ATOM     30  C   UNL     1      -0.881  -9.668   5.384  0.00  0.00    +0.147 A 
BRANCH  30  31
ATOM     31  N   UNL     1      -1.633  -9.810   4.117  0.00  0.00    +0.058 N 
ATOM     32  O   UNL     1      -2.268 -10.816   3.901  0.00  0.00    -0.126 OA
ATOM     33  O   UNL     1      -1.614  -8.920   3.299  0.00  0.00    -0.126 OA
ENDBRANCH  30  31
ENDBRANCH  23  25
ENDBRANCH  19  21
ENDBRANCH  18  19
ENDBRANCH  10  18
TORSDOF 6
