REMARK  Name = ZINC08596211
REMARK  8 active torsions:
REMARK  status: ('A' for Active; 'I' for Inactive)
REMARK    1  A    between atoms: C_1  and  C_2
REMARK    2  A    between atoms: C_7  and  C_8
REMARK    3  A    between atoms: C_8  and  S_9
REMARK    4  A    between atoms: S_9  and  C_12
REMARK    5  A    between atoms: C_12  and  C_13
REMARK    6  A    between atoms: C_20  and  C_25
REMARK    7  A    between atoms: N_27  and  C_28
REMARK    8  A    between atoms: C_28  and  C_29
REMARK                            x       y       z     vdW  Elec       q    Type
REMARK                         _______ _______ _______ _____ _____    ______ ____
ROOT
ATOM      1  C   UNL     1      -2.841   1.532   5.208  0.00  0.00    +0.178 C 
ATOM      2  C   UNL     1      -2.664   2.280   6.506  0.00  0.00    +0.239 C 
ATOM      3  O   UNL     1      -2.594   1.665   7.549  0.00  0.00    -0.273 OA
ATOM      4  N   UNL     1      -2.584   3.623   6.518  0.00  0.00    -0.282 N 
ATOM      5  C   UNL     1      -2.802   4.365   5.350  0.00  0.00    +0.055 A 
ATOM      6  C   UNL     1      -2.522   5.717   5.316  0.00  0.00    +0.038 A 
ATOM      7  C   UNL     1      -2.736   6.441   4.140  0.00  0.00    +0.039 A 
ATOM      8  C   UNL     1      -3.232   5.798   3.003  0.00  0.00    +0.015 A 
ATOM      9  C   UNL     1      -3.514   4.449   3.041  0.00  0.00    +0.025 A 
ATOM     10  C   UNL     1      -3.305   3.731   4.210  0.00  0.00    +0.049 A 
ATOM     11  N   UNL     1      -3.607   2.367   4.272  0.00  0.00    -0.330 N 
ATOM     12  H   UNL     1      -2.373   4.083   7.345  0.00  0.00    +0.155 HD
ATOM     13  H   UNL     1      -4.301   1.982   3.714  0.00  0.00    +0.147 HD
ENDROOT
BRANCH   7  14
ATOM     14  C   UNL     1      -2.439   7.886   4.099  0.00  0.00    +0.244 C 
ATOM     15  O   UNL     1      -2.008   8.446   5.088  0.00  0.00    -0.270 OA
ATOM     16  N   UNL     1      -2.646   8.585   2.965  0.00  0.00    -0.307 N 
ATOM     17  H   UNL     1      -2.990   8.138   2.176  0.00  0.00    +0.149 HD
BRANCH  16  18
ATOM     18  C   UNL     1      -2.351  10.019   2.925  0.00  0.00    +0.139 C 
BRANCH  18  19
ATOM     19  C   UNL     1      -2.666  10.558   1.553  0.00  0.00    -0.030 A 
ATOM     20  C   UNL     1      -1.694  10.560   0.571  0.00  0.00    +0.006 A 
ATOM     21  C   UNL     1      -1.983  11.054  -0.687  0.00  0.00    +0.020 A 
ATOM     22  C   UNL     1      -3.246  11.547  -0.963  0.00  0.00    +0.041 A 
ATOM     23  C   UNL     1      -4.218  11.545   0.021  0.00  0.00    +0.020 A 
ATOM     24  C   UNL     1      -3.930  11.045   1.277  0.00  0.00    +0.006 A 
ATOM     25 CL   UNL     1      -3.609  12.169  -2.542  0.00  0.00    -0.084 Cl
ENDBRANCH  18  19
ENDBRANCH  16  18
ENDBRANCH   7  14
BRANCH   1  26
ATOM     26  C   UNL     1      -1.469   1.216   4.609  0.00  0.00    +0.198 C 
BRANCH  26  27
ATOM     27  S   UNL     1      -1.684   0.321   3.046  0.00  0.00    -0.025 S 
ATOM     28  O   UNL     1      -2.316   1.188   2.114  0.00  0.00    -0.174 OA
ATOM     29  O   UNL     1      -2.276  -0.940   3.328  0.00  0.00    -0.174 OA
BRANCH  27  30
ATOM     30  C   UNL     1       0.025   0.045   2.504  0.00  0.00    +0.201 C 
BRANCH  30  37
ATOM     31  C   UNL     1      -0.018   1.503   0.010  0.00  0.00    +0.044 C 
ATOM     32  C   UNL     1       0.002  -0.004   0.002  0.00  0.00    -0.046 A 
ATOM     33  C   UNL     1       0.006  -0.689  -1.199  0.00  0.00    +0.003 A 
ATOM     34  C   UNL     1       0.025  -2.071  -1.207  0.00  0.00    +0.000 A 
ATOM     35  C   UNL     1       0.040  -2.768  -0.013  0.00  0.00    +0.000 A 
ATOM     36  C   UNL     1       0.037  -2.084   1.188  0.00  0.00    +0.005 A 
ATOM     37  C   UNL     1       0.023  -0.702   1.195  0.00  0.00    -0.024 A 
ENDBRANCH  30  37
ENDBRANCH  27  30
ENDBRANCH  26  27
ENDBRANCH   1  26
TORSDOF 7
