REMARK  Name = ZINC60348148
REMARK  5 active torsions:
REMARK  status: ('A' for Active; 'I' for Inactive)
REMARK    1  A    between atoms: C_1  and  C_2
REMARK    2  A    between atoms: N_4  and  C_5
REMARK    3  A    between atoms: C_5  and  C_7
REMARK    4  A    between atoms: C_5  and  C_18
REMARK    5  A    between atoms: C_7  and  C_8
REMARK                            x       y       z     vdW  Elec       q    Type
REMARK                         _______ _______ _______ _____ _____    ______ ____
ROOT
ATOM      1  C   UNL     1      -0.431  -2.645  -1.239  0.00  0.00    +0.236 C 
ATOM      2  O   UNL     1      -0.921  -2.288  -0.188  0.00  0.00    -0.274 OA
ATOM      3  N   UNL     1      -0.707  -3.868  -1.731  0.00  0.00    -0.298 N 
ATOM      4  C   UNL     1       0.008  -4.297  -2.933  0.00  0.00    +0.109 C 
ATOM      5  C   UNL     1       1.176  -5.160  -2.500  0.00  0.00    +0.038 C 
ATOM      6  C   UNL     1       0.732  -6.618  -2.346  0.00  0.00    +0.109 C 
ATOM      7  N   UNL     1      -0.586  -6.742  -1.705  0.00  0.00    -0.301 N 
ATOM      8  C   UNL     1      -0.988  -5.957  -0.551  0.00  0.00    +0.127 C 
ATOM      9  C   UNL     1      -1.670  -4.656  -1.043  0.00  0.00    +0.126 C 
ATOM     10  C   UNL     1      -1.482  -7.646  -2.225  0.00  0.00    +0.174 A 
ATOM     11  N   UNL     1      -2.740  -7.794  -1.815  0.00  0.00    -0.327 N 
ATOM     12  H   UNL     1      -3.169  -7.288  -1.107  0.00  0.00    +0.169 HD
ATOM     13  C   UNL     1      -3.325  -8.783  -2.561  0.00  0.00    +0.065 A 
ATOM     14  C   UNL     1      -4.595  -9.354  -2.576  0.00  0.00    +0.028 A 
ATOM     15  C   UNL     1      -4.882 -10.360  -3.473  0.00  0.00    +0.002 A 
ATOM     16  C   UNL     1      -3.915 -10.808  -4.361  0.00  0.00    +0.002 A 
ATOM     17  C   UNL     1      -2.654 -10.253  -4.359  0.00  0.00    +0.028 A 
ATOM     18  C   UNL     1      -2.347  -9.236  -3.460  0.00  0.00    +0.065 A 
ATOM     19  N   UNL     1      -1.220  -8.495  -3.216  0.00  0.00    -0.327 N 
ATOM     20  H   UNL     1      -0.375  -8.578  -3.683  0.00  0.00    +0.169 HD
ENDROOT
BRANCH   1  21
ATOM     21  C   UNL     1       0.488  -1.719  -1.994  0.00  0.00    +0.163 C 
BRANCH  21  25
ATOM     22  C   UNL     1       0.450   1.310   0.347  0.00  0.00    +0.109 C 
ATOM     23  C   UNL     1       0.006   0.193  -0.561  0.00  0.00    +0.211 C 
ATOM     24  O   UNL     1      -1.173   0.035  -0.797  0.00  0.00    -0.276 OA
ATOM     25  N   UNL     1       0.919  -0.632  -1.111  0.00  0.00    -0.304 N 
ATOM     26  H   UNL     1       1.862  -0.506  -0.923  0.00  0.00    +0.149 HD
ENDBRANCH  21  25
BRANCH  21  27
ATOM     27  C   UNL     1      -0.255  -1.134  -3.197  0.00  0.00    +0.069 C 
BRANCH  27  28
ATOM     28  C   UNL     1       0.698  -0.306  -4.021  0.00  0.00    -0.020 A 
ATOM     29  C   UNL     1       0.882   1.021  -3.934  0.00  0.00    +0.087 A 
ATOM     30  N   UNL     1       1.827   1.421  -4.840  0.00  0.00    -0.360 N 
ATOM     31  H   UNL     1       2.128   2.334  -4.964  0.00  0.00    +0.165 HD
ATOM     32  C   UNL     1       2.284   0.333  -5.550  0.00  0.00    +0.047 A 
ATOM     33  C   UNL     1       1.602  -0.797  -5.064  0.00  0.00    +0.003 A 
ATOM     34  C   UNL     1       1.870  -2.057  -5.601  0.00  0.00    +0.010 A 
ATOM     35  C   UNL     1       2.798  -2.187  -6.595  0.00  0.00    +0.001 A 
ATOM     36  C   UNL     1       3.477  -1.076  -7.076  0.00  0.00    +0.002 A 
ATOM     37  C   UNL     1       3.221   0.178  -6.566  0.00  0.00    +0.026 A 
ENDBRANCH  27  28
ENDBRANCH  21  27
ENDBRANCH   1  21
TORSDOF 4
