REMARK  Name = ZINC21258629
REMARK  13 active torsions:
REMARK  status: ('A' for Active; 'I' for Inactive)
REMARK    1  A    between atoms: C_1  and  C_2
REMARK    2  A    between atoms: C_2  and  N_3
REMARK    3  A    between atoms: N_3  and  C_4
REMARK    4  A    between atoms: N_3  and  C_6
REMARK    5  A    between atoms: C_4  and  C_5
REMARK    6  A    between atoms: C_9  and  C_12
REMARK    7  A    between atoms: C_17  and  C_22
REMARK    8  A    between atoms: C_25  and  O_30
REMARK    9  A    between atoms: C_26  and  O_28
REMARK   10  A    between atoms: O_28  and  C_29
REMARK   11  A    between atoms: O_30  and  C_31
REMARK   12  A    between atoms: C_31  and  C_32
REMARK   13  A    between atoms: C_31  and  C_33
REMARK                            x       y       z     vdW  Elec       q    Type
REMARK                         _______ _______ _______ _____ _____    ______ ____
ROOT
ATOM      1  C   UNL     1      -0.274   5.409   4.570  0.00  0.00    +0.136 C 
ATOM      2  C   UNL     1       1.018   5.364   5.351  0.00  0.00    +0.036 C 
ATOM      3  C   UNL     1       2.107   6.117   5.117  0.00  0.00    +0.017 C 
ATOM      4  C   UNL     1       3.344   5.976   5.987  0.00  0.00    +0.059 C 
ATOM      5  C   UNL     1       3.474   4.537   6.484  0.00  0.00    +0.032 C 
ATOM      6  C   UNL     1       2.211   4.205   7.288  0.00  0.00    +0.088 C 
ATOM      7  C   UNL     1       1.016   4.424   6.408  0.00  0.00    +0.163 C 
ATOM      8  O   UNL     1       0.011   3.771   6.610  0.00  0.00    -0.292 OA
ATOM      9  N   UNL     1       2.206   7.048   4.134  0.00  0.00    -0.316 N 
ATOM     10  C   UNL     1       1.818   6.855   2.813  0.00  0.00    +0.052 A 
ATOM     11  C   UNL     1       2.724   6.862   1.766  0.00  0.00    +0.025 A 
ATOM     12  C   UNL     1       2.263   6.712   0.470  0.00  0.00    +0.002 A 
ATOM     13  C   UNL     1       0.910   6.559   0.223  0.00  0.00    +0.002 A 
ATOM     14  C   UNL     1       0.006   6.535   1.270  0.00  0.00    +0.025 A 
ATOM     15  C   UNL     1       0.467   6.662   2.571  0.00  0.00    +0.049 A 
ATOM     16  N   UNL     1      -0.390   6.530   3.663  0.00  0.00    -0.331 N 
ATOM     17  H   UNL     1       2.619   8.043   4.358  0.00  0.00    +0.152 HD
ATOM     18  H   UNL     1      -1.164   7.294   3.830  0.00  0.00    +0.147 HD
ENDROOT
BRANCH   1  22
ATOM     19  C   UNL     1      -0.614   1.798   2.309  0.00  0.00    +0.030 A 
ATOM     20  C   UNL     1      -1.529   2.077   3.316  0.00  0.00    +0.023 A 
ATOM     21  C   UNL     1      -1.413   3.242   4.048  0.00  0.00    +0.007 A 
ATOM     22  C   UNL     1      -0.393   4.135   3.773  0.00  0.00    -0.023 A 
ATOM     23  C   UNL     1       0.516   3.863   2.768  0.00  0.00    +0.007 A 
ATOM     24  C   UNL     1       0.409   2.697   2.035  0.00  0.00    +0.023 A 
BRANCH  19  25
ATOM     25  N   UNL     1      -0.725   0.618   1.570  0.00  0.00    -0.330 N 
BRANCH  25  27
ATOM     26  C   UNL     1      -1.332  -1.335   2.911  0.00  0.00    +0.024 C 
ATOM     27  C   UNL     1      -1.804  -0.329   1.860  0.00  0.00    +0.102 C 
ENDBRANCH  25  27
BRANCH  25  28
ATOM     28  C   UNL     1       0.237   0.328   0.504  0.00  0.00    +0.102 C 
ATOM     29  C   UNL     1      -0.276   0.903  -0.818  0.00  0.00    +0.024 C 
ENDBRANCH  25  28
ENDBRANCH  19  25
ENDBRANCH   1  22
BRANCH   5  30
ATOM     30  C   UNL     1       4.689   4.408   7.365  0.00  0.00    -0.040 A 
ATOM     31  C   UNL     1       4.805   5.191   8.499  0.00  0.00    +0.008 A 
ATOM     32  C   UNL     1       5.918   5.076   9.311  0.00  0.00    +0.050 A 
ATOM     33  C   UNL     1       6.920   4.175   8.989  0.00  0.00    +0.162 A 
ATOM     34  C   UNL     1       6.803   3.387   7.849  0.00  0.00    +0.162 A 
ATOM     35  C   UNL     1       5.683   3.503   7.042  0.00  0.00    +0.053 A 
BRANCH  34  36
ATOM     36  O   UNL     1       7.784   2.501   7.529  0.00  0.00    -0.491 OA
ATOM     37  C   UNL     1       7.597   1.725   6.344  0.00  0.00    +0.277 C 
ENDBRANCH  34  36
BRANCH  33  38
ATOM     38  O   UNL     1       8.015   4.061   9.787  0.00  0.00    -0.486 OA
BRANCH  38  39
ATOM     39  C   UNL     1       8.126   4.983  10.873  0.00  0.00    +0.167 C 
ATOM     40  C   UNL     1       7.333   4.459  12.071  0.00  0.00    +0.051 C 
ATOM     41  C   UNL     1       9.598   5.137  11.263  0.00  0.00    +0.051 C 
ENDBRANCH  38  39
ENDBRANCH  33  38
ENDBRANCH   5  30
TORSDOF 8
