REMARK  Name = ZINC24780790
REMARK  10 active torsions:
REMARK  status: ('A' for Active; 'I' for Inactive)
REMARK    1  A    between atoms: C_1  and  C_2
REMARK    2  A    between atoms: C_2  and  N_3
REMARK    3  A    between atoms: N_3  and  C_4
REMARK    4  A    between atoms: N_3  and  S_6
REMARK    5  A    between atoms: C_4  and  C_5
REMARK    6  A    between atoms: S_6  and  C_9
REMARK    7  A    between atoms: C_12  and  O_32
REMARK    8  A    between atoms: C_13  and  N_15
REMARK    9  A    between atoms: C_16  and  C_18
REMARK   10  A    between atoms: C_18  and  C_19
REMARK                            x       y       z     vdW  Elec       q    Type
REMARK                         _______ _______ _______ _____ _____    ______ ____
ROOT
ATOM      1  N   UNL     1       1.196  -3.562  -4.213  0.00  0.00    -0.283 N 
ATOM      2  C   UNL     1       0.456  -3.908  -3.141  0.00  0.00    +0.219 C 
ATOM      3  O   UNL     1       0.599  -4.999  -2.631  0.00  0.00    -0.275 OA
ATOM      4  H   UNL     1       1.004  -2.611  -4.731  0.00  0.00    +0.155 HD
ENDROOT
BRANCH   1   9
ATOM      5  C   UNL     1       3.807  -6.154  -4.245  0.00  0.00    +0.107 A 
ATOM      6  C   UNL     1       4.220  -6.098  -5.563  0.00  0.00    +0.032 A 
ATOM      7  C   UNL     1       3.632  -5.204  -6.438  0.00  0.00    +0.049 A 
ATOM      8  C   UNL     1       2.628  -4.359  -5.995  0.00  0.00    +0.138 A 
ATOM      9  C   UNL     1       2.212  -4.414  -4.667  0.00  0.00    +0.077 A 
ATOM     10  C   UNL     1       2.810  -5.311  -3.793  0.00  0.00    +0.055 A 
BRANCH   5  11
ATOM     11  S   UNL     1       4.560  -7.298  -3.136  0.00  0.00    +0.061 S 
ATOM     12  O   UNL     1       3.621  -7.532  -2.095  0.00  0.00    -0.153 OA
ATOM     13  O   UNL     1       5.091  -8.347  -3.933  0.00  0.00    -0.153 OA
BRANCH  11  14
ATOM     14  N   UNL     1       5.853  -6.529  -2.443  0.00  0.00    -0.177 NA
BRANCH  14  16
ATOM     15  C   UNL     1       6.032  -6.664  -0.007  0.00  0.00    +0.022 C 
ATOM     16  C   UNL     1       5.676  -5.774  -1.200  0.00  0.00    +0.106 C 
ENDBRANCH  14  16
BRANCH  14  17
ATOM     17  C   UNL     1       7.173  -6.604  -3.072  0.00  0.00    +0.106 C 
ATOM     18  C   UNL     1       7.386  -5.376  -3.960  0.00  0.00    +0.022 C 
ENDBRANCH  14  17
ENDBRANCH  11  14
ENDBRANCH   5  11
BRANCH   8  19
ATOM     19  O   UNL     1       2.049  -3.478  -6.854  0.00  0.00    -0.505 OA
ATOM     20  H   UNL     1       1.252  -2.808  -6.501  0.00  0.00    +0.292 HD
ENDBRANCH   8  19
ENDBRANCH   1   9
BRANCH   2  21
ATOM     21  C   UNL     1      -0.551  -2.939  -2.576  0.00  0.00    +0.120 C 
BRANCH  21  22
ATOM     22  C   UNL     1      -1.251  -3.574  -1.373  0.00  0.00    +0.146 C 
ATOM     23  C   UNL     1      -2.343  -2.660  -0.881  0.00  0.00    +0.231 C 
ATOM     24  O   UNL     1      -3.484  -2.884  -1.226  0.00  0.00    -0.274 OA
ATOM     25  N   UNL     1      -2.115  -1.619  -0.086  0.00  0.00    -0.284 N 
ATOM     26  C   UNL     1      -0.901  -1.270   0.498  0.00  0.00    +0.048 A 
ATOM     27  C   UNL     1      -0.735   0.012   1.010  0.00  0.00    +0.044 A 
ATOM     28  C   UNL     1       0.461   0.380   1.597  0.00  0.00    +0.043 A 
ATOM     29  C   UNL     1       1.505  -0.524   1.686  0.00  0.00    +0.021 A 
ATOM     30  C   UNL     1       1.350  -1.805   1.190  0.00  0.00    +0.018 A 
ATOM     31  C   UNL     1       0.153  -2.179   0.602  0.00  0.00    +0.030 A 
ATOM     32  S   UNL     1      -0.054  -3.816  -0.026  0.00  0.00    -0.110 S 
ATOM     33 CL   UNL     1       0.655   1.987   2.224  0.00  0.00    -0.083 Cl
ATOM     34  H   UNL     1      -2.934  -0.930   0.167  0.00  0.00    +0.155 HD
ENDBRANCH  21  22
ENDBRANCH   2  21
TORSDOF 8
