REMARK  Name = ZINC04721303
REMARK  9 active torsions:
REMARK  status: ('A' for Active; 'I' for Inactive)
REMARK    1  A    between atoms: C_1  and  C_2
REMARK    2  A    between atoms: C_2  and  C_27
REMARK    3  A    between atoms: C_6  and  C_15
REMARK    4  A    between atoms: N_11  and  N_12
REMARK    5  A    between atoms: N_12  and  C_13
REMARK    6  A    between atoms: N_12  and  C_14
REMARK    7  A    between atoms: C_18  and  O_23
REMARK    8  A    between atoms: C_19  and  O_21
REMARK    9  A    between atoms: O_21  and  C_22
REMARK                            x       y       z     vdW  Elec       q    Type
REMARK                         _______ _______ _______ _____ _____    ______ ____
ROOT
ATOM      1  C   UNL     1      -3.305  -3.838   2.327  0.00  0.00    +0.011 C 
ATOM      2  C   UNL     1      -2.100  -3.510   3.210  0.00  0.00    -0.023 C 
ATOM      3  C   UNL     1      -0.808  -3.765   2.431  0.00  0.00    +0.059 C 
ATOM      4  C   UNL     1      -0.756  -2.861   1.225  0.00  0.00    +0.038 C 
ATOM      5  C   UNL     1      -1.354  -1.651   1.239  0.00  0.00    +0.022 C 
ATOM      6  C   UNL     1      -1.294  -0.774   0.010  0.00  0.00    +0.063 C 
ATOM      7  C   UNL     1      -1.371  -1.661  -1.237  0.00  0.00    +0.110 C 
ATOM      8  C   UNL     1      -0.361  -2.773  -1.104  0.00  0.00    +0.234 C 
ATOM      9  O   UNL     1       0.196  -3.208  -2.090  0.00  0.00    -0.274 OA
ATOM     10  N   UNL     1      -0.078  -3.283   0.109  0.00  0.00    -0.206 N 
ATOM     11  C   UNL     1      -2.037  -1.185   2.374  0.00  0.00    +0.162 C 
ATOM     12  O   UNL     1      -2.547  -0.082   2.355  0.00  0.00    -0.292 OA
ATOM     13  C   UNL     1      -2.145  -2.032   3.614  0.00  0.00    +0.086 C 
ATOM     14  C   UNL     1      -2.124  -4.386   4.464  0.00  0.00    +0.011 C 
ENDROOT
BRANCH   6  15
ATOM     15  C   UNL     1       0.002  -0.004   0.002  0.00  0.00    -0.036 A 
ATOM     16  C   UNL     1       1.207  -0.682  -0.013  0.00  0.00    +0.008 A 
ATOM     17  C   UNL     1       2.398   0.019  -0.020  0.00  0.00    +0.049 A 
ATOM     18  C   UNL     1       2.386   1.405  -0.013  0.00  0.00    +0.158 A 
ATOM     19  C   UNL     1       1.174   2.087   0.002  0.00  0.00    +0.162 A 
ATOM     20  C   UNL     1      -0.017   1.378   0.010  0.00  0.00    +0.053 A 
BRANCH  19  21
ATOM     21  O   UNL     1       1.157   3.447   0.010  0.00  0.00    -0.491 OA
ATOM     22  C   UNL     1      -0.124   4.080   0.026  0.00  0.00    +0.277 C 
ENDBRANCH  19  21
BRANCH  18  23
ATOM     23  O   UNL     1       3.557   2.096  -0.020  0.00  0.00    -0.503 OA
ATOM     24  H   UNL     1       3.888   2.301  -0.906  0.00  0.00    +0.292 HD
ENDBRANCH  18  23
ENDBRANCH   6  15
BRANCH  10  25
ATOM     25  N   UNL     1       0.897  -4.231   0.230  0.00  0.00    -0.226 NA
ATOM     26  C   UNL     1       0.576  -5.422  -0.568  0.00  0.00    +0.128 C 
ATOM     27  C   UNL     1       2.211  -3.687  -0.141  0.00  0.00    +0.128 C 
ENDBRANCH  10  25
TORSDOF 4
