REMARK  Name = ZINC65322840
REMARK  5 active torsions:
REMARK  status: ('A' for Active; 'I' for Inactive)
REMARK    1  A    between atoms: C_1  and  C_2
REMARK    2  A    between atoms: N_8  and  C_9
REMARK    3  A    between atoms: C_9  and  C_10
REMARK    4  A    between atoms: N_20  and  C_21
REMARK    5  A    between atoms: C_21  and  C_22
REMARK                            x       y       z     vdW  Elec       q    Type
REMARK                         _______ _______ _______ _____ _____    ______ ____
ROOT
ATOM      1  C   UNL     1       0.865  -0.347   3.613  0.00  0.00    +0.034 A 
ATOM      2  C   UNL     1       0.441   0.050   4.880  0.00  0.00    +0.093 A 
ATOM      3  C   UNL     1       1.175  -0.318   5.975  0.00  0.00    +0.276 A 
ATOM      4  O   UNL     1       0.789   0.051   7.217  0.00  0.00    -0.266 OA
ATOM      5  N   UNL     1       2.302  -1.062   5.792  0.00  0.00    -0.158 N 
ATOM      6  C   UNL     1       2.686  -1.431   4.534  0.00  0.00    +0.258 A 
ATOM      7  N   UNL     1       1.956  -1.070   3.472  0.00  0.00    -0.217 NA
ATOM      8  N   UNL     1       3.804  -2.140   4.654  0.00  0.00    -0.176 NA
ATOM      9  C   UNL     1       4.141  -2.232   5.939  0.00  0.00    +0.237 A 
ATOM     10  N   UNL     1       3.256  -1.591   6.671  0.00  0.00    -0.125 NA
ATOM     11  N   UNL     1       5.258  -2.904   6.430  0.00  0.00    -0.308 N 
ATOM     12  H   UNL     1       5.431  -2.923   7.385  0.00  0.00    +0.149 HD
ENDROOT
BRANCH   1  13
ATOM     13  C   UNL     1       0.067   0.050   2.397  0.00  0.00    -0.022 C 
BRANCH  13  20
ATOM     14  C   UNL     1      -0.019   1.526   0.010  0.00  0.00    -0.013 C 
ATOM     15  C   UNL     1       0.002  -0.004   0.002  0.00  0.00    -0.071 C 
ATOM     16  C   UNL     1       0.717  -0.497  -1.258  0.00  0.00    -0.016 C 
ATOM     17  C   UNL     1       0.735  -2.028  -1.262  0.00  0.00    -0.003 C 
ATOM     18  C   UNL     1       1.410  -2.524   0.020  0.00  0.00    -0.019 C 
ATOM     19  C   UNL     1       0.669  -1.956   1.232  0.00  0.00    -0.078 C 
ATOM     20  N   UNL     1       0.711  -0.490   1.192  0.00  0.00    +0.385 N 
ATOM     21  H   UNL     1       1.671  -0.182   1.159  0.00  0.00    -0.081 HD
ENDBRANCH  13  20
ENDBRANCH   1  13
BRANCH  11  22
ATOM     22  C   UNL     1       6.171  -3.582   5.507  0.00  0.00    +0.139 C 
BRANCH  22  23
ATOM     23  C   UNL     1       7.288  -4.226   6.287  0.00  0.00    -0.030 A 
ATOM     24  C   UNL     1       8.444  -3.516   6.552  0.00  0.00    +0.006 A 
ATOM     25  C   UNL     1       9.469  -4.106   7.268  0.00  0.00    +0.020 A 
ATOM     26  C   UNL     1       9.337  -5.408   7.718  0.00  0.00    +0.041 A 
ATOM     27  C   UNL     1       8.180  -6.117   7.452  0.00  0.00    +0.020 A 
ATOM     28  C   UNL     1       7.154  -5.524   6.741  0.00  0.00    +0.006 A 
ATOM     29 CL   UNL     1      10.624  -6.150   8.616  0.00  0.00    -0.084 Cl
ENDBRANCH  22  23
ENDBRANCH  11  22
TORSDOF 4
