REMARK  Name = ZINC63137793
REMARK  9 active torsions:
REMARK  status: ('A' for Active; 'I' for Inactive)
REMARK    1  A    between atoms: C_1  and  O_2
REMARK    2  A    between atoms: O_2  and  C_3
REMARK    3  A    between atoms: C_6  and  C_9
REMARK    4  A    between atoms: C_9  and  N_10
REMARK    5  A    between atoms: C_30  and  C_32
REMARK    6  A    between atoms: C_35  and  O_40
REMARK    7  A    between atoms: C_37  and  O_38
REMARK    8  A    between atoms: O_38  and  C_39
REMARK    9  A    between atoms: O_40  and  C_41
REMARK                            x       y       z     vdW  Elec       q    Type
REMARK                         _______ _______ _______ _____ _____    ______ ____
ROOT
ATOM      1  N   UNL     1       1.576  -2.711   5.258  0.00  0.00    -0.287 N 
ATOM      2  C   UNL     1       1.339  -1.715   6.319  0.00  0.00    +0.204 C 
ATOM      3  C   UNL     1      -0.152  -1.613   6.558  0.00  0.00    +0.234 C 
ATOM      4  O   UNL     1      -0.702  -0.539   6.688  0.00  0.00    -0.274 OA
ATOM      5  N   UNL     1      -0.854  -2.792   6.619  0.00  0.00    -0.279 N 
ATOM      6  C   UNL     1      -0.056  -3.996   6.526  0.00  0.00    +0.167 C 
ATOM      7  C   UNL     1       0.886  -3.886   5.354  0.00  0.00    +0.237 C 
ATOM      8  O   UNL     1       1.025  -4.784   4.551  0.00  0.00    -0.274 OA
ATOM      9  C   UNL     1      -0.761  -5.327   6.571  0.00  0.00    +0.065 C 
ATOM     10  C   UNL     1      -2.248  -5.121   6.480  0.00  0.00    -0.034 C 
ATOM     11  C   UNL     1      -3.198  -5.774   5.825  0.00  0.00    -0.001 A 
ATOM     12  C   UNL     1      -3.154  -6.976   4.975  0.00  0.00    +0.010 A 
ATOM     13  C   UNL     1      -4.338  -7.377   4.442  0.00  0.00    +0.001 A 
ATOM     14  C   UNL     1      -5.548  -6.711   4.666  0.00  0.00    +0.002 A 
ATOM     15  C   UNL     1      -5.681  -5.603   5.436  0.00  0.00    +0.026 A 
ATOM     16  C   UNL     1      -4.505  -5.087   6.055  0.00  0.00    +0.043 A 
ATOM     17  N   UNL     1      -4.348  -4.063   6.838  0.00  0.00    -0.375 N 
ATOM     18  C   UNL     1      -2.934  -3.981   7.229  0.00  0.00    +0.131 C 
ATOM     19  C   UNL     1      -2.303  -2.694   6.719  0.00  0.00    +0.137 C 
ATOM     20  H   UNL     1      -5.048  -3.454   7.119  0.00  0.00    +0.160 HD
ENDROOT
BRANCH  19  21
ATOM     21  C   UNL     1      -2.656  -1.547   7.630  0.00  0.00    +0.017 A 
ATOM     22  C   UNL     1      -3.616  -0.630   7.245  0.00  0.00    +0.013 A 
ATOM     23  C   UNL     1      -3.941   0.423   8.078  0.00  0.00    +0.046 A 
ATOM     24  C   UNL     1      -3.305   0.562   9.304  0.00  0.00    +0.124 A 
ATOM     25  C   UNL     1      -2.342  -0.356   9.692  0.00  0.00    +0.091 A 
ATOM     26  C   UNL     1      -2.021  -1.415   8.857  0.00  0.00    +0.129 A 
BRANCH  26  27
ATOM     27  O   UNL     1      -1.082  -2.321   9.237  0.00  0.00    -0.495 OA
ATOM     28  C   UNL     1      -0.469  -2.123  10.512  0.00  0.00    +0.277 C 
ENDBRANCH  26  27
BRANCH  24  29
ATOM     29  O   UNL     1      -3.625   1.598  10.123  0.00  0.00    -0.495 OA
ATOM     30  C   UNL     1      -4.626   2.507   9.659  0.00  0.00    +0.277 C 
ENDBRANCH  24  29
ENDBRANCH  19  21
BRANCH   1  31
ATOM     31  C   UNL     1       2.502  -2.451   4.152  0.00  0.00    +0.143 C 
BRANCH  31  35
ATOM     32  C   UNL     1       0.388  -0.603   0.930  0.00  0.00    +0.120 A 
ATOM     33  C   UNL     1       0.977   0.178   1.914  0.00  0.00    +0.046 A 
ATOM     34  C   UNL     1       1.659  -0.421   2.954  0.00  0.00    +0.009 A 
ATOM     35  C   UNL     1       1.756  -1.799   3.016  0.00  0.00    -0.030 A 
ATOM     36  C   UNL     1       1.170  -2.580   2.037  0.00  0.00    +0.009 A 
ATOM     37  C   UNL     1       0.481  -1.986   0.998  0.00  0.00    +0.046 A 
BRANCH  32  39
ATOM     38  C   UNL     1      -0.341   1.412  -0.099  0.00  0.00    +0.277 C 
ATOM     39  O   UNL     1      -0.285  -0.016  -0.094  0.00  0.00    -0.495 OA
ENDBRANCH  32  39
ENDBRANCH  31  35
ENDBRANCH   1  31
TORSDOF 6
