REMARK  Name = ZINC27988342
REMARK  3 active torsions:
REMARK  status: ('A' for Active; 'I' for Inactive)
REMARK    1  A    between atoms: C_1  and  N_2
REMARK    2  A    between atoms: N_10  and  C_11
REMARK    3  A    between atoms: C_11  and  C_13
REMARK                            x       y       z     vdW  Elec       q    Type
REMARK                         _______ _______ _______ _____ _____    ______ ____
ROOT
ATOM      1  C   UNL     1       1.436   3.421  -0.178  0.00  0.00    +0.105 C 
ATOM      2  N   UNL     1       1.379   1.964  -0.001  0.00  0.00    -0.300 NA
ATOM      3  C   UNL     1       2.154   1.276  -1.042  0.00  0.00    +0.090 C 
ATOM      4  C   UNL     1       2.401  -0.183  -0.646  0.00  0.00    +0.069 C 
ATOM      5  C   UNL     1       1.060  -0.810  -0.283  0.00  0.00    +0.030 A 
ATOM      6  C   UNL     1       0.002  -0.004   0.002  0.00  0.00    +0.026 A 
ATOM      7  S   UNL     1      -1.290  -1.166   0.345  0.00  0.00    -0.056 S 
ATOM      8  C   UNL     1      -0.351  -2.608   0.093  0.00  0.00    +0.164 A 
ATOM      9  N   UNL     1       0.831  -2.117  -0.222  0.00  0.00    -0.339 N 
ATOM     10  N   UNL     1      -0.746  -3.936   0.197  0.00  0.00    -0.152 NA
ATOM     11  C   UNL     1      -0.018   1.486   0.010  0.00  0.00    +0.128 C 
ATOM     12  H   UNL     1       1.642  -2.828  -0.439  0.00  0.00    +0.167 HD
ENDROOT
BRANCH  10  13
ATOM     13  C   UNL     1      -2.015  -4.237   0.536  0.00  0.00    +0.272 C 
ATOM     14  O   UNL     1      -2.815  -3.346   0.751  0.00  0.00    -0.268 OA
BRANCH  13  15
ATOM     15  C   UNL     1      -2.434  -5.645   0.646  0.00  0.00    +0.076 A 
ATOM     16  C   UNL     1      -3.766  -6.150   1.008  0.00  0.00    +0.054 A 
ATOM     17  C   UNL     1      -3.674  -7.489   0.975  0.00  0.00    +0.195 A 
ATOM     18  O   UNL     1      -2.422  -7.836   0.641  0.00  0.00    -0.470 OA
ATOM     19  C   UNL     1      -1.664  -6.753   0.440  0.00  0.00    +0.208 A 
ENDBRANCH  13  15
ENDBRANCH  10  13
TORSDOF 2
