REMARK  Name = ZINC06135971
REMARK  12 active torsions:
REMARK  status: ('A' for Active; 'I' for Inactive)
REMARK    1  A    between atoms: C_1  and  N_2
REMARK    2  A    between atoms: N_2  and  C_3
REMARK    3  A    between atoms: N_2  and  C_4
REMARK    4  A    between atoms: C_7  and  C_10
REMARK    5  A    between atoms: C_10  and  C_12
REMARK    6  A    between atoms: C_10  and  N_22
REMARK    7  A    between atoms: N_14  and  C_15
REMARK    8  A    between atoms: C_15  and  C_16
REMARK    9  A    between atoms: N_22  and  C_23
REMARK   10  A    between atoms: C_29  and  C_31
REMARK   11  A    between atoms: C_32  and  N_39
REMARK   12  A    between atoms: C_33  and  C_36
REMARK                            x       y       z     vdW  Elec       q    Type
REMARK                         _______ _______ _______ _____ _____    ______ ____
ROOT
ATOM      1  N   UNL     1      -6.068  -2.075   0.864  0.00  0.00    -0.251 N 
ATOM      2  C   UNL     1      -6.806  -2.948   1.579  0.00  0.00    +0.262 C 
ATOM      3  O   UNL     1      -6.953  -4.089   1.182  0.00  0.00    -0.269 OA
ENDROOT
BRANCH   1   4
ATOM      4  C   UNL     1      -5.966  -0.743   1.276  0.00  0.00    +0.038 A 
ATOM      5  C   UNL     1      -7.081   0.084   1.241  0.00  0.00    +0.023 A 
ATOM      6  C   UNL     1      -6.976   1.399   1.649  0.00  0.00    +0.002 A 
ATOM      7  C   UNL     1      -5.763   1.893   2.094  0.00  0.00    +0.000 A 
ATOM      8  C   UNL     1      -4.651   1.072   2.130  0.00  0.00    +0.002 A 
ATOM      9  C   UNL     1      -4.750  -0.246   1.728  0.00  0.00    +0.023 A 
ENDBRANCH   1   4
BRANCH   2  10
ATOM     10  C   UNL     1      -7.429  -2.523   2.833  0.00  0.00    +0.116 A 
ATOM     11  C   UNL     1      -8.321  -3.213   3.656  0.00  0.00    +0.076 A 
ATOM     12  C   UNL     1      -8.710  -2.491   4.782  0.00  0.00    +0.155 A 
ATOM     13  N   UNL     1      -8.232  -1.278   4.972  0.00  0.00    -0.203 NA
ATOM     14  S   UNL     1      -7.247  -0.989   3.721  0.00  0.00    +0.019 S 
BRANCH  12  15
ATOM     15  C   UNL     1      -9.650  -3.079   5.754  0.00  0.00    +0.262 C 
ATOM     16  O   UNL     1     -10.049  -4.217   5.601  0.00  0.00    -0.269 OA
ATOM     17  N   UNL     1     -10.066  -2.355   6.811  0.00  0.00    -0.324 N 
ATOM     18  H   UNL     1      -9.748  -1.447   6.933  0.00  0.00    +0.145 HD
ATOM     19  H   UNL     1     -10.685  -2.742   7.451  0.00  0.00    +0.145 HD
ENDBRANCH  12  15
BRANCH  11  20
ATOM     20  N   UNL     1      -8.776  -4.495   3.379  0.00  0.00    -0.355 N 
ATOM     21  H   UNL     1      -8.385  -5.002   2.650  0.00  0.00    +0.142 HD
ATOM     22  H   UNL     1      -9.484  -4.885   3.915  0.00  0.00    +0.142 HD
ENDBRANCH  11  20
ENDBRANCH   2  10
BRANCH   1  23
ATOM     23  C   UNL     1      -5.374  -2.523  -0.347  0.00  0.00    +0.197 C 
BRANCH  23  27
ATOM     24  C   UNL     1      -2.794   0.586  -1.742  0.00  0.00    +0.029 A 
ATOM     25  C   UNL     1      -2.281  -0.677  -1.474  0.00  0.00    +0.023 A 
ATOM     26  C   UNL     1      -3.117  -1.679  -1.023  0.00  0.00    +0.008 A 
ATOM     27  C   UNL     1      -4.464  -1.427  -0.838  0.00  0.00    -0.018 A 
ATOM     28  C   UNL     1      -4.978  -0.170  -1.103  0.00  0.00    +0.008 A 
ATOM     29  C   UNL     1      -4.146   0.838  -1.549  0.00  0.00    +0.023 A 
BRANCH  24  31
ATOM     30  C   UNL     1      -2.492   2.934  -2.473  0.00  0.00    +0.129 C 
ATOM     31  N   UNL     1      -1.950   1.601  -2.197  0.00  0.00    -0.336 N 
ATOM     32  C   UNL     1      -0.524   1.334  -2.400  0.00  0.00    +0.129 C 
ENDBRANCH  24  31
ENDBRANCH  23  27
BRANCH  23  33
ATOM     33  C   UNL     1      -6.386  -2.852  -1.414  0.00  0.00    +0.239 C 
ATOM     34  O   UNL     1      -7.571  -2.725  -1.186  0.00  0.00    -0.273 OA
ATOM     35  N   UNL     1      -5.975  -3.287  -2.621  0.00  0.00    -0.311 N 
ATOM     36  H   UNL     1      -5.028  -3.388  -2.804  0.00  0.00    +0.149 HD
BRANCH  35  37
ATOM     37  C   UNL     1      -6.959  -3.606  -3.659  0.00  0.00    +0.135 C 
BRANCH  37  38
ATOM     38  C   UNL     1      -6.234  -4.073  -4.922  0.00  0.00    +0.135 C 
ATOM     39  C   UNL     1      -7.256  -4.384  -6.045  0.00  0.00    +0.035 C 
ATOM     40  C   UNL     1      -6.374  -4.189  -7.308  0.00  0.00    +0.031 C 
ATOM     41  C   UNL     1      -5.431  -3.046  -6.877  0.00  0.00    +0.160 C 
ATOM     42  O   UNL     1      -5.410  -3.018  -5.443  0.00  0.00    -0.375 OA
ENDBRANCH  37  38
ENDBRANCH  35  37
ENDBRANCH  23  33
ENDBRANCH   1  23
TORSDOF 10
