REMARK  Name = ZINC04523653
REMARK  6 active torsions:
REMARK  status: ('A' for Active; 'I' for Inactive)
REMARK    1  A    between atoms: C_1  and  C_2
REMARK    2  A    between atoms: C_2  and  C_3
REMARK    3  A    between atoms: C_2  and  C_4
REMARK    4  A    between atoms: C_2  and  C_5
REMARK    5  A    between atoms: C_17  and  C_20
REMARK    6  A    between atoms: C_23  and  C_25
REMARK                            x       y       z     vdW  Elec       q    Type
REMARK                         _______ _______ _______ _____ _____    ______ ____
ROOT
ATOM      1  C   UNL     1      -3.916  -1.699  -0.375  0.00  0.00    -0.000 C 
ATOM      2  C   UNL     1      -2.903  -2.497   0.451  0.00  0.00    +0.009 C 
ATOM      3  C   UNL     1      -1.482  -2.169  -0.010  0.00  0.00    +0.037 C 
ATOM      4  C   UNL     1      -1.298  -0.656   0.001  0.00  0.00    -0.023 A 
ATOM      5  C   UNL     1      -2.366   0.172   0.013  0.00  0.00    -0.004 A 
ATOM      6  S   UNL     1      -1.679   1.807   0.021  0.00  0.00    -0.078 S 
ATOM      7  C   UNL     1      -0.017   1.399   0.010  0.00  0.00    +0.080 A 
ATOM      8  C   UNL     1       0.002  -0.004   0.002  0.00  0.00    +0.068 A 
ATOM      9  C   UNL     1       1.326  -0.669  -0.002  0.00  0.00    +0.248 C 
ATOM     10  O   UNL     1       1.433  -1.870   0.163  0.00  0.00    -0.270 OA
ATOM     11  N   UNL     1       2.409   0.113  -0.196  0.00  0.00    -0.287 N 
ATOM     12  C   UNL     1       2.333   1.525  -0.556  0.00  0.00    +0.227 C 
ATOM     13  N   UNL     1       1.125   2.158   0.003  0.00  0.00    -0.314 N 
ATOM     14  C   UNL     1      -3.812  -0.217   0.014  0.00  0.00    +0.046 C 
ATOM     15  H   UNL     1       3.287  -0.285  -0.089  0.00  0.00    +0.151 HD
ATOM     16  H   UNL     1       1.137   3.064   0.348  0.00  0.00    +0.149 HD
ENDROOT
BRANCH  12  17
ATOM     17  C   UNL     1       2.304   1.649  -2.058  0.00  0.00    +0.144 A 
ATOM     18  C   UNL     1       2.881   0.798  -2.928  0.00  0.00    +0.049 A 
ATOM     19  C   UNL     1       2.611   1.285  -4.223  0.00  0.00    +0.050 A 
ATOM     20  C   UNL     1       1.877   2.419  -4.069  0.00  0.00    +0.135 A 
ATOM     21  O   UNL     1       1.694   2.625  -2.751  0.00  0.00    -0.456 OA
BRANCH  20  22
ATOM     22  C   UNL     1       1.363   3.274  -5.160  0.00  0.00    +0.017 A 
ATOM     23  C   UNL     1       1.626   2.945  -6.491  0.00  0.00    +0.014 A 
ATOM     24  C   UNL     1       1.140   3.744  -7.505  0.00  0.00    +0.039 A 
ATOM     25  C   UNL     1       0.402   4.877  -7.204  0.00  0.00    +0.123 A 
ATOM     26  C   UNL     1       0.142   5.211  -5.885  0.00  0.00    +0.039 A 
ATOM     27  C   UNL     1       0.619   4.417  -4.863  0.00  0.00    +0.014 A 
ATOM     28  F   UNL     1      -0.067   5.659  -8.201  0.00  0.00    -0.205 F 
ENDBRANCH  20  22
ENDBRANCH  12  17
BRANCH   1  30
ATOM     29  C   UNL     1      -6.340  -1.397  -0.898  0.00  0.00    +0.011 C 
ATOM     30  C   UNL     1      -5.329  -2.208  -0.086  0.00  0.00    -0.035 C 
ATOM     31  C   UNL     1      -5.429  -3.684  -0.475  0.00  0.00    +0.011 C 
ATOM     32  C   UNL     1      -5.631  -2.053   1.406  0.00  0.00    +0.011 C 
ENDBRANCH   1  30
TORSDOF 3
