REMARK  Name = ZINC18167553
REMARK  3 active torsions:
REMARK  status: ('A' for Active; 'I' for Inactive)
REMARK    1  A    between atoms: C_6  and  N_7
REMARK    2  A    between atoms: N_10  and  C_13
REMARK    3  A    between atoms: N_22  and  O_23
REMARK                            x       y       z     vdW  Elec       q    Type
REMARK                         _______ _______ _______ _____ _____    ______ ____
ROOT
ATOM      1  N   UNL     1      -1.200  -0.720   0.010  0.00  0.00    -0.327 N 
ATOM      2  C   UNL     1      -1.206  -2.187  -0.102  0.00  0.00    +0.120 C 
ATOM      3  C   UNL     1      -2.059  -2.758   1.036  0.00  0.00    +0.104 C 
ATOM      4  N   UNL     1      -3.385  -2.128   1.012  0.00  0.00    -0.291 NA
ATOM      5  C   UNL     1      -3.294  -0.683   1.258  0.00  0.00    +0.104 C 
ATOM      6  C   UNL     1      -2.491  -0.027   0.136  0.00  0.00    +0.120 C 
ENDROOT
BRANCH   1  12
ATOM      7  C   UNL     1      -0.017   1.384  -0.005  0.00  0.00    +0.027 A 
ATOM      8  C   UNL     1       1.170   2.093  -0.013  0.00  0.00    +0.051 A 
ATOM      9  C   UNL     1       2.381   1.421  -0.013  0.00  0.00    +0.166 A 
ATOM     10  C   UNL     1       2.403   0.028  -0.006  0.00  0.00    +0.168 A 
ATOM     11  C   UNL     1       1.214  -0.682   0.002  0.00  0.00    +0.072 A 
ATOM     12  C   UNL     1       0.002  -0.004   0.002  0.00  0.00    +0.033 A 
ATOM     13  O   UNL     1       3.704  -0.388  -0.009  0.00  0.00    -0.453 OA
ATOM     14  C   UNL     1       4.472   0.755  -0.430  0.00  0.00    +0.466 C 
ATOM     15  O   UNL     1       3.669   1.877  -0.020  0.00  0.00    -0.453 OA
ENDBRANCH   1  12
BRANCH   4  16
ATOM     16  C   UNL     1      -4.290  -2.770   1.976  0.00  0.00    +0.105 C 
ATOM     17  C   UNL     1      -5.685  -2.098   1.915  0.00  0.00    +0.029 C 
ATOM     18  C   UNL     1      -6.604  -2.904   2.849  0.00  0.00    +0.029 C 
ATOM     19  C   UNL     1      -5.952  -2.942   4.212  0.00  0.00    -0.031 C 
ATOM     20  C   UNL     1      -5.416  -4.072   4.614  0.00  0.00    -0.031 C 
ATOM     21  C   UNL     1      -5.498  -5.259   3.692  0.00  0.00    +0.033 C 
ATOM     22  C   UNL     1      -4.379  -5.285   2.683  0.00  0.00    +0.060 C 
ATOM     23  C   UNL     1      -4.462  -4.232   1.623  0.00  0.00    +0.075 C 
ATOM     24  N   UNL     1      -4.683  -4.571   0.409  0.00  0.00    -0.095 NA
BRANCH  24  25
ATOM     25  O   UNL     1      -4.845  -5.937   0.073  0.00  0.00    -0.409 OA
ATOM     26  H   UNL     1      -5.008  -6.094  -0.867  0.00  0.00    +0.328 HD
ENDBRANCH  24  25
ENDBRANCH   4  16
TORSDOF 3
