REMARK  Name = ZINC39674271
REMARK  8 active torsions:
REMARK  status: ('A' for Active; 'I' for Inactive)
REMARK    1  A    between atoms: C_1  and  C_2
REMARK    2  A    between atoms: C_4  and  C_9
REMARK    3  A    between atoms: C_5  and  C_8
REMARK    4  A    between atoms: C_9  and  C_11
REMARK    5  A    between atoms: C_9  and  N_12
REMARK    6  A    between atoms: C_13  and  C_15
REMARK    7  A    between atoms: C_26  and  C_28
REMARK    8  A    between atoms: C_31  and  C_35
REMARK                            x       y       z     vdW  Elec       q    Type
REMARK                         _______ _______ _______ _____ _____    ______ ____
ROOT
ATOM      1  C   UNL     1      -0.256   2.635  -4.308  0.00  0.00    +0.100 C 
ATOM      2  C   UNL     1      -1.463   3.468  -3.822  0.00  0.00    +0.121 C 
ATOM      3  N   UNL     1      -1.754   4.394  -4.942  0.00  0.00    -0.296 N 
ATOM      4  C   UNL     1      -1.554   3.573  -6.160  0.00  0.00    +0.115 C 
ATOM      5  C   UNL     1      -0.320   2.705  -5.843  0.00  0.00    -0.004 C 
ATOM      6  C   UNL     1      -0.494   1.308  -6.430  0.00  0.00    -0.010 C 
ATOM      7  C   UNL     1      -0.496   1.397  -7.959  0.00  0.00    -0.082 C 
ATOM      8  N   UNL     1       0.767   1.989  -8.418  0.00  0.00    +0.379 N 
ATOM      9  C   UNL     1       0.882   3.367  -7.925  0.00  0.00    -0.082 C 
ATOM     10  C   UNL     1       0.942   3.361  -6.395  0.00  0.00    -0.010 C 
ATOM     11  C   UNL     1      -2.118   5.690  -4.869  0.00  0.00    +0.247 C 
ATOM     12  O   UNL     1      -2.135   6.257  -3.795  0.00  0.00    -0.270 OA
ATOM     13  H   UNL     1       1.540   1.443  -8.068  0.00  0.00    -0.086 HD
ATOM     14  H   UNL     1       0.789   1.991  -9.426  0.00  0.00    -0.086 HD
ENDROOT
BRANCH  11  15
ATOM     15  C   UNL     1      -2.498   6.421  -6.097  0.00  0.00    +0.040 A 
ATOM     16  C   UNL     1      -2.887   5.719  -7.239  0.00  0.00    +0.014 A 
ATOM     17  C   UNL     1      -3.240   6.406  -8.382  0.00  0.00    +0.016 A 
ATOM     18  C   UNL     1      -3.210   7.789  -8.399  0.00  0.00    +0.090 A 
ATOM     19  C   UNL     1      -2.824   8.493  -7.270  0.00  0.00    +0.136 A 
ATOM     20  C   UNL     1      -2.473   7.816  -6.117  0.00  0.00    +0.052 A 
ATOM     21  F   UNL     1      -2.796   9.843  -7.294  0.00  0.00    -0.205 F 
BRANCH  18  22
ATOM     22  C   UNL     1      -3.597   8.532  -9.651  0.00  0.00    +0.420 C 
ATOM     23  F   UNL     1      -3.946   7.615 -10.649  0.00  0.00    -0.166 F 
ATOM     24  F   UNL     1      -4.689   9.364  -9.381  0.00  0.00    -0.166 F 
ATOM     25  F   UNL     1      -2.517   9.307 -10.087  0.00  0.00    -0.166 F 
ENDBRANCH  18  22
ENDBRANCH  11  15
BRANCH   1  27
ATOM     26  N   UNL     1       0.717   0.437  -3.723  0.00  0.00    -0.309 N 
ATOM     27  C   UNL     1      -0.383   1.207  -3.843  0.00  0.00    +0.219 C 
ATOM     28  O   UNL     1      -1.475   0.751  -3.576  0.00  0.00    -0.275 OA
ATOM     29  H   UNL     1       1.590   0.802  -3.937  0.00  0.00    +0.149 HD
BRANCH  26  30
ATOM     30  C   UNL     1       0.593  -0.951  -3.271  0.00  0.00    +0.100 C 
ATOM     31  C   UNL     1       0.455  -0.981  -1.748  0.00  0.00    +0.033 C 
BRANCH  30  34
ATOM     32  C   UNL     1       3.697  -0.069  -3.874  0.00  0.00    +0.039 C 
ATOM     33  C   UNL     1       3.269  -1.432  -3.326  0.00  0.00    +0.154 C 
ATOM     34  C   UNL     1       1.821  -1.723  -3.679  0.00  0.00    -0.001 C 
ATOM     35  C   UNL     1       1.889  -2.822  -4.434  0.00  0.00    +0.063 C 
ATOM     36  N   UNL     1       3.171  -3.225  -4.580  0.00  0.00    -0.159 NA
ATOM     37  N   UNL     1       4.003  -2.518  -4.000  0.00  0.00    -0.180 NA
ATOM     38  C   UNL     1       0.698  -3.518  -5.041  0.00  0.00    +0.067 C 
ENDBRANCH  30  34
ENDBRANCH  26  30
ENDBRANCH   1  27
TORSDOF 5
