REMARK  Name = ZINC20724069
REMARK  5 active torsions:
REMARK  status: ('A' for Active; 'I' for Inactive)
REMARK    1  A    between atoms: C_1  and  C_2
REMARK    2  A    between atoms: C_8  and  C_12
REMARK    3  A    between atoms: C_12  and  C_14
REMARK    4  A    between atoms: C_12  and  N_17
REMARK    5  A    between atoms: C_20  and  C_23
REMARK                            x       y       z     vdW  Elec       q    Type
REMARK                         _______ _______ _______ _____ _____    ______ ____
ROOT
ATOM      1  N   UNL     1      -3.167   3.799   0.153  0.00  0.00    +0.392 N 
ATOM      2  C   UNL     1      -3.391   3.011   1.372  0.00  0.00    -0.076 C 
ATOM      3  C   UNL     1      -4.827   2.483   1.383  0.00  0.00    -0.006 C 
ATOM      4  C   UNL     1      -5.800   3.664   1.330  0.00  0.00    +0.072 C 
ATOM      5  C   UNL     1      -5.514   4.495   0.077  0.00  0.00    -0.006 C 
ATOM      6  C   UNL     1      -4.058   4.965   0.103  0.00  0.00    -0.076 C 
ATOM      7  H   UNL     1      -3.405   3.158  -0.709  0.00  0.00    -0.080 HD
ENDROOT
BRANCH   4   8
ATOM      8  C   UNL     1      -7.215   3.149   1.281  0.00  0.00    +0.200 A 
ATOM      9  N   UNL     1      -7.694   2.382   0.348  0.00  0.00    -0.213 NA
ATOM     10  C   UNL     1      -8.998   2.113   0.627  0.00  0.00    +0.110 A 
ATOM     11  C   UNL     1      -9.987   1.360  -0.008  0.00  0.00    +0.031 A 
ATOM     12  C   UNL     1     -11.248   1.288   0.540  0.00  0.00    +0.002 A 
ATOM     13  C   UNL     1     -11.541   1.959   1.719  0.00  0.00    +0.004 A 
ATOM     14  C   UNL     1     -10.574   2.706   2.358  0.00  0.00    +0.048 A 
ATOM     15  C   UNL     1      -9.299   2.790   1.819  0.00  0.00    +0.155 A 
ATOM     16  O   UNL     1      -8.163   3.421   2.192  0.00  0.00    -0.439 OA
ENDBRANCH   4   8
BRANCH   1  17
ATOM     17  C   UNL     1      -1.760   4.206   0.040  0.00  0.00    +0.080 C 
BRANCH  17  25
ATOM     18  C   UNL     1       2.397   8.087  -0.642  0.00  0.00    +0.044 C 
ATOM     19  C   UNL     1       1.306   7.426  -1.444  0.00  0.00    -0.050 A 
ATOM     20  C   UNL     1       1.133   7.762  -2.780  0.00  0.00    +0.005 A 
ATOM     21  C   UNL     1       0.142   7.169  -3.531  0.00  0.00    +0.026 A 
ATOM     22  C   UNL     1      -0.696   6.225  -2.947  0.00  0.00    +0.047 A 
ATOM     23  C   UNL     1      -0.516   5.888  -1.593  0.00  0.00    +0.002 A 
ATOM     24  C   UNL     1       0.495   6.501  -0.851  0.00  0.00    +0.013 A 
ATOM     25  C   UNL     1      -1.538   4.883  -1.288  0.00  0.00    -0.025 A 
ATOM     26  C   UNL     1      -2.243   4.685  -2.413  0.00  0.00    +0.086 A 
ATOM     27  N   UNL     1      -1.750   5.474  -3.417  0.00  0.00    -0.360 N 
ATOM     28  H   UNL     1      -2.071   5.571  -4.465  0.00  0.00    +0.165 HD
ENDBRANCH  17  25
BRANCH  17  29
ATOM     29  C   UNL     1      -0.876   2.989   0.137  0.00  0.00    +0.347 C 
ATOM     30  O   UNL     1      -1.287   1.913  -0.226  0.00  0.00    -0.248 OA
ATOM     31  O   UNL     1       0.369   3.102   0.627  0.00  0.00    -0.248 OA
ENDBRANCH  17  29
ENDBRANCH   1  17
TORSDOF 4
