REMARK  Name = ZINC21134896
REMARK  7 active torsions:
REMARK  status: ('A' for Active; 'I' for Inactive)
REMARK    1  A    between atoms: C_1  and  C_2
REMARK    2  A    between atoms: C_2  and  N_3
REMARK    3  A    between atoms: C_13  and  S_14
REMARK    4  A    between atoms: S_14  and  C_15
REMARK    5  A    between atoms: C_15  and  C_16
REMARK    6  A    between atoms: N_18  and  C_19
REMARK    7  A    between atoms: C_22  and  N_26
REMARK                            x       y       z     vdW  Elec       q    Type
REMARK                         _______ _______ _______ _____ _____    ______ ____
ROOT
ATOM      1  S   UNL     1      -5.970   7.823   0.410  0.00  0.00    -0.078 S 
ENDROOT
BRANCH   1  12
ATOM      2  N   UNL     1      -7.835   9.753   0.658  0.00  0.00    -0.288 N 
ATOM      3  C   UNL     1      -9.090  10.248   0.760  0.00  0.00    +0.262 A 
ATOM      4  O   UNL     1      -9.289  11.444   0.867  0.00  0.00    -0.267 OA
ATOM      5  C   UNL     1     -10.203   9.290   0.738  0.00  0.00    +0.066 A 
ATOM      6  C   UNL     1     -11.531   9.701   0.836  0.00  0.00    +0.030 A 
ATOM      7  C   UNL     1     -12.536   8.758   0.809  0.00  0.00    +0.019 A 
ATOM      8  C   UNL     1     -12.233   7.407   0.685  0.00  0.00    +0.017 A 
ATOM      9  C   UNL     1     -10.939   6.983   0.587  0.00  0.00    +0.029 A 
ATOM     10  C   UNL     1      -9.898   7.915   0.612  0.00  0.00    +0.079 A 
ATOM     11  N   UNL     1      -8.602   7.534   0.511  0.00  0.00    -0.223 NA
ATOM     12  C   UNL     1      -7.627   8.409   0.539  0.00  0.00    +0.173 A 
ATOM     13 BR   UNL     1     -14.341   9.306   0.942  0.00  0.00    -0.050 Br
BRANCH   2  15
ATOM     14  C   UNL     1      -6.361  11.101  -0.754  0.00  0.00    +0.027 C 
ATOM     15  C   UNL     1      -6.689  10.666   0.676  0.00  0.00    +0.124 C 
ENDBRANCH   2  15
ENDBRANCH   1  12
BRANCH   1  16
ATOM     16  C   UNL     1      -6.275   6.043   0.281  0.00  0.00    +0.173 C 
BRANCH  16  17
ATOM     17  C   UNL     1      -4.961   5.316   0.158  0.00  0.00    +0.228 C 
ATOM     18  O   UNL     1      -3.921   5.939   0.157  0.00  0.00    -0.275 OA
ATOM     19  N   UNL     1      -4.942   3.973   0.048  0.00  0.00    -0.284 N 
ATOM     20  H   UNL     1      -5.886   3.415  -0.043  0.00  0.00    +0.155 HD
BRANCH  19  21
ATOM     21  C   UNL     1      -3.721   3.288   0.050  0.00  0.00    +0.052 A 
ATOM     22  C   UNL     1      -2.607   3.853   0.656  0.00  0.00    +0.027 A 
ATOM     23  C   UNL     1      -1.405   3.172   0.660  0.00  0.00    +0.034 A 
ATOM     24  C   UNL     1      -1.308   1.934   0.052  0.00  0.00    +0.128 A 
ATOM     25  C   UNL     1      -2.414   1.368  -0.553  0.00  0.00    +0.054 A 
ATOM     26  C   UNL     1      -3.622   2.041  -0.556  0.00  0.00    +0.064 A 
ATOM     27 CL   UNL     1      -5.011   1.330  -1.315  0.00  0.00    -0.082 Cl
BRANCH  24  28
ATOM     28  N   UNL     1      -0.016   1.210   0.054  0.00  0.00    +0.056 N 
ATOM     29  O   UNL     1       0.070   0.117  -0.476  0.00  0.00    -0.126 OA
ATOM     30  O   UNL     1       0.961   1.710   0.582  0.00  0.00    -0.126 OA
ENDBRANCH  24  28
ENDBRANCH  19  21
ENDBRANCH  16  17
ENDBRANCH   1  16
TORSDOF 6
