REMARK  Name = ZINC29477822
REMARK  5 active torsions:
REMARK  status: ('A' for Active; 'I' for Inactive)
REMARK    1  A    between atoms: C_2  and  C_3
REMARK    2  A    between atoms: C_3  and  N_4
REMARK    3  A    between atoms: C_5  and  S_7
REMARK    4  A    between atoms: S_7  and  C_8
REMARK    5  A    between atoms: C_8  and  C_9
REMARK                            x       y       z     vdW  Elec       q    Type
REMARK                         _______ _______ _______ _____ _____    ______ ____
ROOT
ATOM      1  C   UNL     1       1.695   2.139   0.114  0.00  0.00    +0.113 C 
ENDROOT
BRANCH   1   2
ATOM      2  C   UNL     1       1.868   3.635   0.168  0.00  0.00    -0.020 A 
ATOM      3  C   UNL     1       1.826   4.291   1.383  0.00  0.00    +0.055 A 
ATOM      4  C   UNL     1       1.987   5.667   1.436  0.00  0.00    +0.162 A 
ATOM      5  C   UNL     1       2.191   6.385   0.263  0.00  0.00    +0.163 A 
ATOM      6  C   UNL     1       2.231   5.722  -0.954  0.00  0.00    +0.065 A 
ATOM      7  C   UNL     1       2.075   4.348  -0.999  0.00  0.00    +0.026 A 
ATOM      8 BR   UNL     1       2.137   3.445  -2.659  0.00  0.00    -0.050 Br
ATOM      9  O   UNL     1       2.355   7.736   0.293  0.00  0.00    -0.485 OA
ATOM     10  C   UNL     1       1.936   8.409   1.486  0.00  0.00    +0.270 C 
ATOM     11  C   UNL     1       2.474   7.627   2.692  0.00  0.00    +0.270 C 
ATOM     12  O   UNL     1       1.939   6.300   2.640  0.00  0.00    -0.485 OA
ENDBRANCH   1   2
BRANCH   1  13
ATOM     13  S   UNL     1      -0.061   1.742  -0.075  0.00  0.00    -0.088 S 
BRANCH  13  15
ATOM     14  N   UNL     1       1.179  -0.617  -0.005  0.00  0.00    -0.365 N 
ATOM     15  C   UNL     1       0.025  -0.018  -0.108  0.00  0.00    +0.126 C 
ATOM     16  N   UNL     1      -1.125  -0.761  -0.243  0.00  0.00    -0.339 N 
ATOM     17  H   UNL     1      -2.098  -0.256  -0.330  0.00  0.00    +0.144 HD
ATOM     18  H   UNL     1      -1.071  -1.859  -0.264  0.00  0.00    +0.144 HD
ATOM     19  H   UNL     1       2.092  -0.026   0.166  0.00  0.00    +0.162 HD
BRANCH  14  20
ATOM     20  C   UNL     1       1.261  -2.075  -0.117  0.00  0.00    +0.141 C 
BRANCH  20  22
ATOM     21  C   UNL     1       3.086  -3.225  -1.260  0.00  0.00    +0.005 C 
ATOM     22  C   UNL     1       2.041  -2.441  -1.353  0.00  0.00    -0.014 C 
ENDBRANCH  20  22
ENDBRANCH  14  20
ENDBRANCH  13  15
ENDBRANCH   1  13
TORSDOF 5
