REMARK  Name = ZINC59461868
REMARK  7 active torsions:
REMARK  status: ('A' for Active; 'I' for Inactive)
REMARK    1  A    between atoms: C_4  and  C_7
REMARK    2  A    between atoms: C_14  and  C_23
REMARK    3  A    between atoms: C_15  and  C_17
REMARK    4  A    between atoms: C_23  and  C_25
REMARK    5  A    between atoms: C_23  and  C_31
REMARK    6  A    between atoms: C_31  and  C_33
REMARK    7  A    between atoms: C_31  and  C_35
REMARK                            x       y       z     vdW  Elec       q    Type
REMARK                         _______ _______ _______ _____ _____    ______ ____
ROOT
ATOM      1  C   UNL     1       4.012   1.244  -1.589  0.00  0.00    +0.080 A 
ATOM      2  C   UNL     1       3.623  -0.067  -1.618  0.00  0.00    +0.077 A 
ATOM      3  S   UNL     1       5.168  -0.879  -1.229  0.00  0.00    -0.056 S 
ATOM      4  C   UNL     1       6.163   0.597  -1.070  0.00  0.00    +0.196 A 
ATOM      5  N   UNL     1       5.275   1.541  -1.321  0.00  0.00    -0.221 NA
ATOM      6  N   UNL     1       7.512   0.718  -0.768  0.00  0.00    -0.194 N 
ATOM      7  C   UNL     1       8.365  -0.298  -0.527  0.00  0.00    +0.278 A 
ATOM      8  C   UNL     1       9.634   0.252  -0.262  0.00  0.00    +0.053 A 
ATOM      9  C   UNL     1       9.531   1.609  -0.348  0.00  0.00    +0.072 A 
ATOM     10  N   UNL     1       8.229   1.918  -0.665  0.00  0.00    -0.287 N 
ATOM     11  O   UNL     1       8.086  -1.484  -0.536  0.00  0.00    -0.265 OA
ATOM     12  H   UNL     1       7.869   2.809  -0.794  0.00  0.00    +0.188 HD
ENDROOT
BRANCH   1  16
ATOM     13  C   UNL     1       1.200   4.334  -2.375  0.00  0.00    +0.000 A 
ATOM     14  C   UNL     1       2.516   4.655  -2.094  0.00  0.00    +0.001 A 
ATOM     15  C   UNL     1       3.433   3.656  -1.838  0.00  0.00    +0.010 A 
ATOM     16  C   UNL     1       3.031   2.322  -1.863  0.00  0.00    +0.001 A 
ATOM     17  C   UNL     1       1.704   2.004  -2.146  0.00  0.00    +0.010 A 
ATOM     18  C   UNL     1       0.796   3.012  -2.401  0.00  0.00    +0.001 A 
ENDBRANCH   1  16
BRANCH   9  19
ATOM     19  C   UNL     1      10.628   2.577  -0.141  0.00  0.00    +0.000 A 
ATOM     20  C   UNL     1      11.860   2.386  -0.769  0.00  0.00    +0.010 A 
ATOM     21  C   UNL     1      12.880   3.294  -0.572  0.00  0.00    +0.001 A 
ATOM     22  C   UNL     1      12.683   4.393   0.246  0.00  0.00    +0.000 A 
ATOM     23  C   UNL     1      11.464   4.589   0.870  0.00  0.00    +0.001 A 
ATOM     24  C   UNL     1      10.434   3.692   0.677  0.00  0.00    +0.010 A 
ENDBRANCH   9  19
BRANCH   8  25
ATOM     25  C   UNL     1      10.886  -0.523   0.059  0.00  0.00    +0.082 C 
BRANCH  25  26
ATOM     26  C   UNL     1      11.270  -1.371  -1.127  0.00  0.00    -0.038 A 
ATOM     27  C   UNL     1      10.502  -2.468  -1.469  0.00  0.00    +0.004 A 
ATOM     28  C   UNL     1      10.854  -3.246  -2.556  0.00  0.00    +0.000 A 
ATOM     29  C   UNL     1      11.973  -2.926  -3.301  0.00  0.00    +0.000 A 
ATOM     30  C   UNL     1      12.741  -1.828  -2.960  0.00  0.00    +0.000 A 
ATOM     31  C   UNL     1      12.386  -1.048  -1.875  0.00  0.00    +0.004 A 
ENDBRANCH  25  26
BRANCH  25  32
ATOM     32  C   UNL     1      10.632  -1.423   1.269  0.00  0.00    +0.189 C 
BRANCH  32  33
ATOM     33  C   UNL     1      10.248  -0.576   2.454  0.00  0.00    +0.228 C 
ATOM     34  O   UNL     1      10.925  -0.598   3.461  0.00  0.00    -0.275 OA
ATOM     35  N   UNL     1       9.153   0.208   2.396  0.00  0.00    -0.328 N 
ATOM     36  H   UNL     1       8.612   0.227   1.591  0.00  0.00    +0.145 HD
ATOM     37  H   UNL     1       8.906   0.754   3.159  0.00  0.00    +0.145 HD
ENDBRANCH  32  33
BRANCH  32  38
ATOM     38  C   UNL     1      11.855  -2.180   1.583  0.00  0.00    +0.076 C 
ATOM     39  N   UNL     1      12.799  -2.765   1.825  0.00  0.00    -0.196 NA
ENDBRANCH  32  38
ENDBRANCH  25  32
ENDBRANCH   8  25
TORSDOF 7
