REMARK  Name = ZINC00104610
REMARK  3 active torsions:
REMARK  status: ('A' for Active; 'I' for Inactive)
REMARK    1  A    between atoms: C_1  and  O_2
REMARK    2  A    between atoms: O_2  and  C_3
REMARK    3  A    between atoms: C_8  and  C_9
REMARK                            x       y       z     vdW  Elec       q    Type
REMARK                         _______ _______ _______ _____ _____    ______ ____
ROOT
ATOM      1  C   UNL     1       4.832   4.290   0.012  0.00  0.00    +0.063 C 
ATOM      2  C   UNL     1       4.558   5.696   0.553  0.00  0.00    +0.109 C 
ATOM      3  C   UNL     1       3.388   6.299  -0.180  0.00  0.00    +0.218 C 
ATOM      4  O   UNL     1       3.373   7.490  -0.410  0.00  0.00    -0.275 OA
ATOM      5  N   UNL     1       2.361   5.528  -0.582  0.00  0.00    -0.285 N 
ATOM      6  C   UNL     1       2.350   4.158  -0.285  0.00  0.00    +0.041 A 
ATOM      7  C   UNL     1       3.543   3.507  -0.001  0.00  0.00    -0.015 A 
ATOM      8  C   UNL     1       3.545   2.155   0.276  0.00  0.00    +0.055 A 
ATOM      9  C   UNL     1       2.354   1.442   0.273  0.00  0.00    +0.162 A 
ATOM     10  C   UNL     1       1.157   2.093   0.002  0.00  0.00    +0.164 A 
ATOM     11  C   UNL     1       1.157   3.452  -0.280  0.00  0.00    +0.073 A 
ATOM     12  O   UNL     1      -0.017   1.415   0.010  0.00  0.00    -0.485 OA
ATOM     13  C   UNL     1       0.002  -0.004   0.002  0.00  0.00    +0.270 C 
ATOM     14  C   UNL     1       1.155  -0.556   0.827  0.00  0.00    +0.270 C 
ATOM     15  O   UNL     1       2.373   0.112   0.538  0.00  0.00    -0.485 OA
ATOM     16  H   UNL     1       1.626   5.921  -1.079  0.00  0.00    +0.155 HD
ENDROOT
BRANCH   1  22
ATOM     17  C   UNL     1       7.040   3.156   0.369  0.00  0.00    +0.124 A 
ATOM     18  C   UNL     1       7.962   2.518   1.186  0.00  0.00    +0.046 A 
ATOM     19  C   UNL     1       7.677   2.321   2.523  0.00  0.00    +0.004 A 
ATOM     20  C   UNL     1       6.475   2.760   3.047  0.00  0.00    +0.001 A 
ATOM     21  C   UNL     1       5.557   3.401   2.236  0.00  0.00    +0.008 A 
ATOM     22  C   UNL     1       5.835   3.595   0.897  0.00  0.00    +0.002 A 
BRANCH  17  24
ATOM     23  C   UNL     1       8.578   2.874  -1.422  0.00  0.00    +0.277 C 
ATOM     24  O   UNL     1       7.318   3.352  -0.947  0.00  0.00    -0.495 OA
ENDBRANCH  17  24
ENDBRANCH   1  22
TORSDOF 2
