REMARK  Name = ZINC37267202
REMARK  5 active torsions:
REMARK  status: ('A' for Active; 'I' for Inactive)
REMARK    1  A    between atoms: C_1  and  N_2
REMARK    2  A    between atoms: C_5  and  N_8
REMARK    3  A    between atoms: N_8  and  S_9
REMARK    4  A    between atoms: S_9  and  C_12
REMARK    5  A    between atoms: C_15  and  N_19
REMARK                            x       y       z     vdW  Elec       q    Type
REMARK                         _______ _______ _______ _____ _____    ______ ____
ROOT
ATOM      1  S   UNL     1       2.518  -4.964   0.429  0.00  0.00    +0.060 S 
ATOM      2  O   UNL     1       2.274  -6.348   0.218  0.00  0.00    -0.153 OA
ATOM      3  O   UNL     1       3.596  -4.277  -0.192  0.00  0.00    -0.153 OA
ENDROOT
BRANCH   1   4
ATOM      4  C   UNL     1       2.717  -4.748   2.167  0.00  0.00    +0.119 A 
ATOM      5  C   UNL     1       3.807  -4.051   2.655  0.00  0.00    +0.031 A 
ATOM      6  C   UNL     1       3.966  -3.880   4.016  0.00  0.00    +0.025 A 
ATOM      7  C   UNL     1       3.030  -4.408   4.896  0.00  0.00    +0.026 A 
ATOM      8  C   UNL     1       1.936  -5.108   4.403  0.00  0.00    +0.040 A 
ATOM      9  C   UNL     1       1.780  -5.271   3.039  0.00  0.00    +0.046 A 
ATOM     10 BR   UNL     1       0.287  -6.217   2.366  0.00  0.00    -0.048 Br
BRANCH   7  11
ATOM     11  N   UNL     1       3.189  -4.237   6.273  0.00  0.00    -0.358 N 
ATOM     12  H   UNL     1       3.953  -3.749   6.616  0.00  0.00    +0.142 HD
ATOM     13  H   UNL     1       2.534  -4.607   6.886  0.00  0.00    +0.142 HD
ENDBRANCH   7  11
ENDBRANCH   1   4
BRANCH   1  14
ATOM     14  N   UNL     1       1.134  -4.167  -0.008  0.00  0.00    -0.187 NA
ATOM     15  H   UNL     1       0.380  -4.663  -0.362  0.00  0.00    +0.148 HD
BRANCH  14  20
ATOM     16  C   UNL     1      -0.688   1.170  -0.126  0.00  0.00    -0.096 C 
ATOM     17  N   UNL     1      -0.486  -0.282  -0.222  0.00  0.00    +0.378 N 
ATOM     18  C   UNL     1       0.682  -0.557  -1.067  0.00  0.00    -0.078 C 
ATOM     19  C   UNL     1       0.849  -2.069  -1.236  0.00  0.00    +0.002 C 
ATOM     20  C   UNL     1       1.050  -2.712   0.139  0.00  0.00    +0.073 C 
ATOM     21  C   UNL     1      -0.140  -2.356   1.036  0.00  0.00    +0.002 C 
ATOM     22  C   UNL     1      -0.270  -0.834   1.121  0.00  0.00    -0.078 C 
ATOM     23  H   UNL     1      -1.303  -0.708  -0.632  0.00  0.00    -0.082 HD
ENDBRANCH  14  20
ENDBRANCH   1  14
TORSDOF 4
