REMARK  Name = ZINC09065493
REMARK  10 active torsions:
REMARK  status: ('A' for Active; 'I' for Inactive)
REMARK    1  A    between atoms: C_1  and  C_2
REMARK    2  A    between atoms: C_14  and  C_16
REMARK    3  A    between atoms: C_19  and  C_22
REMARK    4  A    between atoms: C_22  and  O_24
REMARK    5  A    between atoms: O_24  and  C_25
REMARK    6  A    between atoms: C_29  and  C_32
REMARK    7  A    between atoms: C_35  and  O_40
REMARK    8  A    between atoms: C_36  and  O_38
REMARK    9  A    between atoms: O_38  and  C_39
REMARK   10  A    between atoms: O_40  and  C_41
REMARK                            x       y       z     vdW  Elec       q    Type
REMARK                         _______ _______ _______ _____ _____    ______ ____
ROOT
ATOM      1  C   UNL     1       4.485   5.543   0.370  0.00  0.00    +0.110 C 
ATOM      2  C   UNL     1       4.392   4.139   0.909  0.00  0.00    +0.218 C 
ATOM      3  O   UNL     1       4.732   3.904   2.050  0.00  0.00    -0.276 OA
ATOM      4  N   UNL     1       3.930   3.145   0.125  0.00  0.00    -0.258 N 
ATOM      5  C   UNL     1       3.543   3.426  -1.184  0.00  0.00    +0.058 A 
ATOM      6  C   UNL     1       4.463   3.839  -2.136  0.00  0.00    +0.025 A 
ATOM      7  C   UNL     1       4.044   4.060  -3.436  0.00  0.00    +0.002 A 
ATOM      8  C   UNL     1       2.721   3.867  -3.790  0.00  0.00    +0.002 A 
ATOM      9  C   UNL     1       1.796   3.473  -2.838  0.00  0.00    +0.025 A 
ATOM     10  C   UNL     1       2.209   3.275  -1.532  0.00  0.00    +0.053 A 
ATOM     11  N   UNL     1       1.322   2.960  -0.510  0.00  0.00    -0.316 N 
ATOM     12  C   UNL     1       1.341   1.807   0.208  0.00  0.00    +0.017 C 
ATOM     13  C   UNL     1       2.439   1.257   0.753  0.00  0.00    +0.037 C 
ATOM     14  C   UNL     1       3.845   1.800   0.653  0.00  0.00    +0.146 C 
ATOM     15  C   UNL     1       2.342   0.059   1.500  0.00  0.00    +0.163 C 
ATOM     16  O   UNL     1       3.348  -0.404   2.001  0.00  0.00    -0.292 OA
ATOM     17  C   UNL     1       1.040  -0.658   1.696  0.00  0.00    +0.088 C 
ATOM     18  C   UNL     1       0.138  -0.363   0.491  0.00  0.00    +0.032 C 
ATOM     19  C   UNL     1      -0.019   1.153   0.389  0.00  0.00    +0.059 C 
ATOM     20  H   UNL     1       0.530   3.670  -0.230  0.00  0.00    +0.152 HD
ENDROOT
BRANCH  14  21
ATOM     21  C   UNL     1       4.648   0.888  -0.238  0.00  0.00    -0.022 A 
ATOM     22  C   UNL     1       4.293   0.737  -1.567  0.00  0.00    +0.006 A 
ATOM     23  C   UNL     1       5.026  -0.093  -2.390  0.00  0.00    +0.015 A 
ATOM     24  C   UNL     1       6.122  -0.790  -1.876  0.00  0.00    +0.059 A 
ATOM     25  C   UNL     1       6.471  -0.637  -0.533  0.00  0.00    +0.015 A 
ATOM     26  C   UNL     1       5.732   0.201   0.277  0.00  0.00    +0.006 A 
BRANCH  24  27
ATOM     27  C   UNL     1       6.909  -1.684  -2.750  0.00  0.00    +0.339 C 
ATOM     28  O   UNL     1       7.862  -2.288  -2.300  0.00  0.00    -0.245 OA
BRANCH  27  29
ATOM     29  O   UNL     1       6.569  -1.829  -4.045  0.00  0.00    -0.464 OA
ATOM     30  C   UNL     1       7.387  -2.724  -4.845  0.00  0.00    +0.280 C 
ENDBRANCH  27  29
ENDBRANCH  24  27
ENDBRANCH  14  21
BRANCH  18  31
ATOM     31  C   UNL     1      -1.211  -1.003   0.693  0.00  0.00    -0.040 A 
ATOM     32  C   UNL     1      -1.973  -0.675   1.799  0.00  0.00    +0.008 A 
ATOM     33  C   UNL     1      -3.211  -1.260   1.988  0.00  0.00    +0.049 A 
ATOM     34  C   UNL     1      -3.692  -2.177   1.068  0.00  0.00    +0.161 A 
ATOM     35  C   UNL     1      -2.926  -2.507  -0.046  0.00  0.00    +0.162 A 
ATOM     36  C   UNL     1      -1.687  -1.914  -0.232  0.00  0.00    +0.053 A 
BRANCH  35  37
ATOM     37  O   UNL     1      -3.393  -3.407  -0.952  0.00  0.00    -0.491 OA
ATOM     38  C   UNL     1      -2.553  -3.697  -2.071  0.00  0.00    +0.277 C 
ENDBRANCH  35  37
BRANCH  34  39
ATOM     39  O   UNL     1      -4.910  -2.753   1.252  0.00  0.00    -0.491 OA
ATOM     40  C   UNL     1      -5.641  -2.366   2.417  0.00  0.00    +0.277 C 
ENDBRANCH  34  39
ENDBRANCH  18  31
TORSDOF 6
