REMARK  Name = ZINC12483452
REMARK  8 active torsions:
REMARK  status: ('A' for Active; 'I' for Inactive)
REMARK    1  A    between atoms: C_4  and  C_7
REMARK    2  A    between atoms: C_7  and  C_8
REMARK    3  A    between atoms: N_11  and  C_14
REMARK    4  A    between atoms: C_16  and  O_36
REMARK    5  A    between atoms: C_18  and  N_27
REMARK    6  A    between atoms: N_27  and  C_28
REMARK    7  A    between atoms: C_28  and  C_29
REMARK    8  A    between atoms: C_34  and  O_35
REMARK                            x       y       z     vdW  Elec       q    Type
REMARK                         _______ _______ _______ _____ _____    ______ ____
ROOT
ATOM      1  C   UNL     1       6.834  -2.925   4.448  0.00  0.00    +0.019 C 
ATOM      2  C   UNL     1       7.537  -4.286   4.436  0.00  0.00    +0.125 C 
ATOM      3  C   UNL     1       6.537  -5.369   4.015  0.00  0.00    +0.112 C 
ATOM      4  C   UNL     1       5.286  -5.250   4.901  0.00  0.00    +0.166 C 
ATOM      5  C   UNL     1       5.759  -5.091   6.365  0.00  0.00    +0.196 C 
ATOM      6  O   UNL     1       5.891  -3.671   6.560  0.00  0.00    -0.350 OA
ATOM      7  C   UNL     1       5.548  -3.034   5.282  0.00  0.00    +0.240 C 
ATOM      8  O   UNL     1       4.673  -3.970   4.607  0.00  0.00    -0.346 OA
ENDROOT
BRANCH   1  12
ATOM      9  C   UNL     1       6.622  -0.768   0.779  0.00  0.00    -0.010 C 
ATOM     10  C   UNL     1       5.378  -0.866   1.668  0.00  0.00    -0.015 C 
ATOM     11  C   UNL     1       5.803  -1.240   3.090  0.00  0.00    -0.078 C 
ATOM     12  N   UNL     1       6.497  -2.533   3.073  0.00  0.00    +0.387 N 
ATOM     13  C   UNL     1       7.728  -2.427   2.280  0.00  0.00    -0.078 C 
ATOM     14  C   UNL     1       7.378  -2.099   0.827  0.00  0.00    -0.015 C 
ATOM     15  H   UNL     1       5.894  -3.232   2.664  0.00  0.00    -0.081 HD
BRANCH   9  16
ATOM     16  C   UNL     1       6.198  -0.473  -0.662  0.00  0.00    +0.038 C 
BRANCH  16  20
ATOM     17  C   UNL     1       4.399   3.397  -0.853  0.00  0.00    +0.000 A 
ATOM     18  C   UNL     1       5.762   3.259  -1.036  0.00  0.00    +0.000 A 
ATOM     19  C   UNL     1       6.344   2.007  -0.974  0.00  0.00    +0.003 A 
ATOM     20  C   UNL     1       5.563   0.893  -0.729  0.00  0.00    -0.047 A 
ATOM     21  C   UNL     1       4.200   1.031  -0.545  0.00  0.00    +0.003 A 
ATOM     22  C   UNL     1       3.618   2.283  -0.608  0.00  0.00    +0.000 A 
ENDBRANCH  16  20
ENDBRANCH   9  16
ENDBRANCH   1  12
BRANCH   3  23
ATOM     23  N   UNL     1       6.168  -5.178   2.606  0.00  0.00    -0.305 NA
ATOM     24  H   UNL     1       5.216  -4.854   2.522  0.00  0.00    +0.123 HD
BRANCH  23  25
ATOM     25  C   UNL     1       6.374  -6.412   1.836  0.00  0.00    +0.120 C 
BRANCH  25  26
ATOM     26  C   UNL     1       5.986  -6.178   0.399  0.00  0.00    +0.008 A 
ATOM     27  C   UNL     1       4.752  -6.598  -0.061  0.00  0.00    +0.008 A 
ATOM     28  C   UNL     1       4.396  -6.384  -1.380  0.00  0.00    +0.001 A 
ATOM     29  C   UNL     1       5.272  -5.750  -2.241  0.00  0.00    +0.004 A 
ATOM     30  C   UNL     1       6.506  -5.327  -1.786  0.00  0.00    +0.046 A 
ATOM     31  C   UNL     1       6.864  -5.536  -0.462  0.00  0.00    +0.121 A 
BRANCH  31  32
ATOM     32  O   UNL     1       8.075  -5.117  -0.010  0.00  0.00    -0.506 OA
ATOM     33  H   UNL     1       8.778  -5.774  -0.101  0.00  0.00    +0.292 HD
ENDBRANCH  31  32
ENDBRANCH  25  26
ENDBRANCH  23  25
ENDBRANCH   3  23
BRANCH   2  34
ATOM     34  O   UNL     1       8.033  -4.578   5.744  0.00  0.00    -0.392 OA
ATOM     35  H   UNL     1       8.491  -5.427   5.811  0.00  0.00    +0.210 HD
ENDBRANCH   2  34
TORSDOF 8
