REMARK  Name = ZINC65329924
REMARK  9 active torsions:
REMARK  status: ('A' for Active; 'I' for Inactive)
REMARK    1  A    between atoms: C_1  and  C_2
REMARK    2  A    between atoms: C_5  and  N_8
REMARK    3  A    between atoms: N_10  and  C_11
REMARK    4  A    between atoms: C_11  and  C_12
REMARK    5  A    between atoms: C_12  and  C_13
REMARK    6  A    between atoms: N_22  and  C_23
REMARK    7  A    between atoms: C_23  and  C_25
REMARK    8  A    between atoms: C_28  and  N_31
REMARK    9  A    between atoms: C_32  and  C_34
REMARK                            x       y       z     vdW  Elec       q    Type
REMARK                         _______ _______ _______ _____ _____    ______ ____
ROOT
ATOM      1  N   UNL     1       0.892  -4.420   1.201  0.00  0.00    -0.328 N 
ATOM      2  C   UNL     1       0.922  -5.236   2.296  0.00  0.00    +0.194 C 
ATOM      3  N   UNL     1       0.986  -6.589   2.136  0.00  0.00    -0.357 N 
ATOM      4  N   UNL     1       0.890  -4.713   3.512  0.00  0.00    -0.143 NA
ATOM      5  H   UNL     1       0.677  -7.176   2.845  0.00  0.00    +0.162 HD
ATOM      6  H   UNL     1       1.451  -3.628   1.171  0.00  0.00    +0.169 HD
ENDROOT
BRANCH   1  11
ATOM      7  C   UNL     1      -2.501  -5.666  -3.171  0.00  0.00    +0.044 C 
ATOM      8  C   UNL     1      -1.600  -5.335  -2.009  0.00  0.00    -0.050 A 
ATOM      9  C   UNL     1      -0.438  -4.615  -2.221  0.00  0.00    +0.005 A 
ATOM     10  C   UNL     1       0.390  -4.310  -1.158  0.00  0.00    +0.026 A 
ATOM     11  C   UNL     1       0.055  -4.727   0.123  0.00  0.00    +0.042 A 
ATOM     12  C   UNL     1      -1.112  -5.450   0.332  0.00  0.00    +0.026 A 
ATOM     13  C   UNL     1      -1.939  -5.747  -0.733  0.00  0.00    +0.005 A 
ENDBRANCH   1  11
BRANCH   4  14
ATOM     14  C   UNL     1       0.877  -3.382   3.670  0.00  0.00    +0.270 C 
ATOM     15  O   UNL     1       0.799  -2.655   2.696  0.00  0.00    -0.268 OA
BRANCH  14  16
ATOM     16  C   UNL     1       0.956  -2.797   5.026  0.00  0.00    +0.039 A 
ATOM     17  C   UNL     1       1.157  -3.624   6.133  0.00  0.00    +0.015 A 
ATOM     18  C   UNL     1       1.231  -3.076   7.395  0.00  0.00    +0.024 A 
ATOM     19  C   UNL     1       1.105  -1.701   7.566  0.00  0.00    +0.033 A 
ATOM     20  C   UNL     1       0.904  -0.876   6.465  0.00  0.00    +0.024 A 
ATOM     21  C   UNL     1       0.836  -1.417   5.200  0.00  0.00    +0.015 A 
BRANCH  19  22
ATOM     22  N   UNL     1       1.180  -1.149   8.845  0.00  0.00    -0.286 N 
ATOM     23  C   UNL     1       1.997  -1.695   9.768  0.00  0.00    +0.214 C 
ATOM     24  O   UNL     1       2.734  -2.608   9.461  0.00  0.00    -0.276 OA
ATOM     25  C   UNL     1       1.994  -1.171  11.181  0.00  0.00    +0.109 C 
ATOM     26  H   UNL     1       0.644  -0.373   9.070  0.00  0.00    +0.155 HD
ENDBRANCH  19  22
ENDBRANCH  14  16
ENDBRANCH   4  14
BRANCH   3  27
ATOM     27  C   UNL     1       1.520  -7.157   0.896  0.00  0.00    +0.120 C 
BRANCH  27  28
ATOM     28  C   UNL     1       1.373  -8.679   0.927  0.00  0.00    +0.054 C 
BRANCH  28  29
ATOM     29  C   UNL     1       2.032  -9.272  -0.292  0.00  0.00    -0.040 C 
ATOM     30  C   UNL     1       3.308  -9.707  -0.397  0.00  0.00    -0.001 A 
ATOM     31  C   UNL     1       4.423  -9.756   0.557  0.00  0.00    +0.010 A 
ATOM     32  C   UNL     1       5.612 -10.258   0.151  0.00  0.00    +0.001 A 
ATOM     33  C   UNL     1       5.805 -10.731  -1.154  0.00  0.00    +0.002 A 
ATOM     34  C   UNL     1       4.829 -10.719  -2.086  0.00  0.00    +0.026 A 
ATOM     35  C   UNL     1       3.538 -10.213  -1.769  0.00  0.00    +0.043 A 
ATOM     36  N   UNL     1       2.446 -10.096  -2.485  0.00  0.00    -0.380 N 
ATOM     37  C   UNL     1       1.397  -9.507  -1.645  0.00  0.00    +0.144 C 
ATOM     38  H   UNL     1       2.347 -10.359  -3.413  0.00  0.00    +0.160 HD
ENDBRANCH  28  29
ENDBRANCH  27  28
ENDBRANCH   3  27
TORSDOF 7
