REMARK  Name = ZINC01784777
REMARK  7 active torsions:
REMARK  status: ('A' for Active; 'I' for Inactive)
REMARK    1  A    between atoms: C_1  and  C_2
REMARK    2  A    between atoms: C_5  and  S_8
REMARK    3  A    between atoms: S_8  and  N_11
REMARK    4  A    between atoms: N_24  and  S_27
REMARK    5  A    between atoms: S_27  and  C_30
REMARK    6  A    between atoms: C_33  and  O_36
REMARK    7  A    between atoms: O_36  and  C_37
REMARK                            x       y       z     vdW  Elec       q    Type
REMARK                         _______ _______ _______ _____ _____    ______ ____
ROOT
ATOM      1  N   UNL     1      -4.816  -4.320  10.556  0.00  0.00    -0.106 NA
ATOM      2  C   UNL     1      -3.746  -4.236   9.818  0.00  0.00    +0.186 C 
ATOM      3  N   UNL     1      -3.041  -5.256   9.212  0.00  0.00    -0.259 N 
ATOM      4  C   UNL     1      -1.968  -4.996   8.485  0.00  0.00    +0.257 C 
ATOM      5  O   UNL     1      -1.338  -5.879   7.938  0.00  0.00    -0.269 OA
ATOM      6  C   UNL     1      -1.567  -3.568   8.374  0.00  0.00    +0.090 C 
ATOM      7  C   UNL     1      -0.503  -3.006   7.695  0.00  0.00    +0.067 C 
ATOM      8  C   UNL     1       0.618  -3.711   7.039  0.00  0.00    +0.012 A 
ATOM      9  C   UNL     1       0.948  -5.057   6.898  0.00  0.00    +0.010 A 
ATOM     10  C   UNL     1       2.091  -5.413   6.212  0.00  0.00    +0.001 A 
ATOM     11  C   UNL     1       2.907  -4.436   5.667  0.00  0.00    +0.002 A 
ATOM     12  C   UNL     1       2.590  -3.099   5.800  0.00  0.00    +0.026 A 
ATOM     13  C   UNL     1       1.442  -2.719   6.488  0.00  0.00    +0.068 A 
ATOM     14  N   UNL     1       0.901  -1.468   6.763  0.00  0.00    -0.135 N 
ATOM     15  C   UNL     1      -0.236  -1.572   7.472  0.00  0.00    +0.272 C 
ATOM     16  O   UNL     1      -0.924  -0.646   7.859  0.00  0.00    -0.268 OA
ATOM     17  S   UNL     1      -2.836  -2.773   9.349  0.00  0.00    -0.047 S 
ATOM     18  H   UNL     1      -3.339  -6.174   9.317  0.00  0.00    +0.157 HD
ENDROOT
BRANCH   1  19
ATOM     19  S   UNL     1      -5.495  -5.798  10.864  0.00  0.00    +0.101 S 
ATOM     20  O   UNL     1      -5.979  -6.289   9.622  0.00  0.00    -0.146 OA
ATOM     21  O   UNL     1      -4.560  -6.518  11.655  0.00  0.00    -0.146 OA
BRANCH  19  26
ATOM     22  C   UNL     1     -10.331  -4.850  14.346  0.00  0.00    +0.044 C 
ATOM     23  C   UNL     1      -9.123  -5.087  13.476  0.00  0.00    -0.050 A 
ATOM     24  C   UNL     1      -9.251  -5.085  12.100  0.00  0.00    +0.005 A 
ATOM     25  C   UNL     1      -8.144  -5.302  11.302  0.00  0.00    +0.029 A 
ATOM     26  C   UNL     1      -6.907  -5.521  11.881  0.00  0.00    +0.113 A 
ATOM     27  C   UNL     1      -6.780  -5.528  13.257  0.00  0.00    +0.029 A 
ATOM     28  C   UNL     1      -7.887  -5.306  14.055  0.00  0.00    +0.005 A 
ENDBRANCH  19  26
ENDBRANCH   1  19
BRANCH  14  29
ATOM     29  S   UNL     1       1.576  -0.034   6.285  0.00  0.00    +0.081 S 
ATOM     30  O   UNL     1       2.962  -0.281   6.092  0.00  0.00    -0.149 OA
ATOM     31  O   UNL     1       1.097   0.960   7.181  0.00  0.00    -0.149 OA
BRANCH  29  32
ATOM     32  C   UNL     1       0.909   0.353   4.700  0.00  0.00    +0.109 A 
ATOM     33  C   UNL     1      -0.250   1.101   4.603  0.00  0.00    +0.032 A 
ATOM     34  C   UNL     1      -0.775   1.406   3.362  0.00  0.00    +0.047 A 
ATOM     35  C   UNL     1      -0.138   0.960   2.213  0.00  0.00    +0.120 A 
ATOM     36  C   UNL     1       1.021   0.205   2.313  0.00  0.00    +0.047 A 
ATOM     37  C   UNL     1       1.545  -0.092   3.556  0.00  0.00    +0.032 A 
BRANCH  35  38
ATOM     38  O   UNL     1      -0.653   1.259   0.991  0.00  0.00    -0.495 OA
ATOM     39  C   UNL     1       0.056   0.767  -0.149  0.00  0.00    +0.277 C 
ENDBRANCH  35  38
ENDBRANCH  29  32
ENDBRANCH  14  29
TORSDOF 5
