REMARK  Name = ZINC17992996
REMARK  10 active torsions:
REMARK  status: ('A' for Active; 'I' for Inactive)
REMARK    1  A    between atoms: C_1  and  C_2
REMARK    2  A    between atoms: C_4  and  C_36
REMARK    3  A    between atoms: N_10  and  C_11
REMARK    4  A    between atoms: C_11  and  C_13
REMARK    5  A    between atoms: C_16  and  S_19
REMARK    6  A    between atoms: S_19  and  N_22
REMARK    7  A    between atoms: C_24  and  C_31
REMARK    8  A    between atoms: C_27  and  C_30
REMARK    9  A    between atoms: N_32  and  C_33
REMARK   10  A    between atoms: C_33  and  C_34
REMARK                            x       y       z     vdW  Elec       q    Type
REMARK                         _______ _______ _______ _____ _____    ______ ____
ROOT
ATOM      1  C   UNL     1       1.249  -6.197   2.983  0.00  0.00    +0.269 C 
ATOM      2  O   UNL     1       1.170  -5.337   3.843  0.00  0.00    -0.268 OA
ENDROOT
BRANCH   1  12
ATOM      3  C   UNL     1      -0.429   1.472   0.027  0.00  0.00    +0.044 C 
ATOM      4  C   UNL     1      -0.160  -0.011   0.006  0.00  0.00    -0.049 A 
ATOM      5  C   UNL     1      -0.142  -0.701  -1.194  0.00  0.00    +0.008 A 
ATOM      6  C   UNL     1       0.102  -2.054  -1.234  0.00  0.00    -0.026 A 
ATOM      7  C   UNL     1       0.341  -2.772  -0.054  0.00  0.00    +0.061 A 
ATOM      8  C   UNL     1       0.318  -2.048   1.147  0.00  0.00    +0.039 A 
ATOM      9  C   UNL     1       0.079  -0.695   1.185  0.00  0.00    +0.020 A 
ATOM     10  S   UNL     1       0.657  -3.286   2.371  0.00  0.00    -0.052 S 
ATOM     11  C   UNL     1       0.809  -4.618   1.357  0.00  0.00    +0.168 A 
ATOM     12  N   UNL     1       1.072  -5.876   1.698  0.00  0.00    -0.152 NA
ATOM     13  N   UNL     1       0.604  -4.119   0.111  0.00  0.00    -0.309 N 
ATOM     14  C   UNL     1       0.113  -2.772  -2.559  0.00  0.00    +0.046 C 
BRANCH  13  15
ATOM     15  C   UNL     1       0.660  -5.004  -1.054  0.00  0.00    +0.212 C 
BRANCH  15  16
ATOM     16  C   UNL     1      -0.695  -5.488  -1.369  0.00  0.00    -0.084 C 
ATOM     17  C   UNL     1      -1.775  -5.873  -1.619  0.00  0.00    +0.005 C 
ENDBRANCH  15  16
ENDBRANCH  13  15
ENDBRANCH   1  12
BRANCH   1  18
ATOM     18  C   UNL     1       1.542  -7.598   3.363  0.00  0.00    +0.039 A 
ATOM     19  C   UNL     1       1.639  -8.584   2.381  0.00  0.00    +0.015 A 
ATOM     20  C   UNL     1       1.911  -9.888   2.741  0.00  0.00    +0.029 A 
ATOM     21  C   UNL     1       2.088 -10.219   4.072  0.00  0.00    +0.106 A 
ATOM     22  C   UNL     1       1.993  -9.245   5.051  0.00  0.00    +0.029 A 
ATOM     23  C   UNL     1       1.728  -7.937   4.703  0.00  0.00    +0.015 A 
BRANCH  21  24
ATOM     24  S   UNL     1       2.436 -11.886   4.524  0.00  0.00    +0.061 S 
ATOM     25  O   UNL     1       2.019 -12.036   5.874  0.00  0.00    -0.153 OA
ATOM     26  O   UNL     1       1.933 -12.704   3.476  0.00  0.00    -0.153 OA
BRANCH  24  27
ATOM     27  N   UNL     1       4.082 -12.063   4.514  0.00  0.00    -0.172 NA
ATOM     28  C   UNL     1       4.793 -12.476   3.294  0.00  0.00    +0.140 C 
ATOM     29  C   UNL     1       5.717 -13.647   3.645  0.00  0.00    +0.131 C 
ATOM     30  O   UNL     1       6.532 -13.285   4.762  0.00  0.00    -0.371 OA
ATOM     31  C   UNL     1       5.798 -13.015   5.959  0.00  0.00    +0.131 C 
ATOM     32  C   UNL     1       4.879 -11.806   5.725  0.00  0.00    +0.140 C 
ATOM     33  C   UNL     1       6.772 -12.702   7.097  0.00  0.00    +0.039 C 
ATOM     34  C   UNL     1       6.608 -13.973   2.445  0.00  0.00    +0.039 C 
ENDBRANCH  24  27
ENDBRANCH  21  24
ENDBRANCH   1  18
TORSDOF 6
