REMARK  Name = ZINC03582941
REMARK  8 active torsions:
REMARK  status: ('A' for Active; 'I' for Inactive)
REMARK    1  A    between atoms: C_5  and  N_7
REMARK    2  A    between atoms: N_10  and  C_13
REMARK    3  A    between atoms: C_13  and  C_14
REMARK    4  A    between atoms: N_16  and  C_17
REMARK    5  A    between atoms: C_17  and  C_18
REMARK    6  A    between atoms: C_18  and  C_19
REMARK    7  A    between atoms: C_22  and  S_25
REMARK    8  A    between atoms: S_25  and  N_28
REMARK                            x       y       z     vdW  Elec       q    Type
REMARK                         _______ _______ _______ _____ _____    ______ ____
ROOT
ATOM      1  C   UNL     1      -0.414  -6.716  -1.207  0.00  0.00    +0.196 C 
ATOM      2  O   UNL     1       0.502  -6.484  -1.967  0.00  0.00    -0.278 OA
ATOM      3  N   UNL     1      -1.205  -7.788  -1.411  0.00  0.00    -0.317 N 
ATOM      4  H   UNL     1      -1.937  -7.973  -0.803  0.00  0.00    +0.149 HD
ENDROOT
BRANCH   1   5
ATOM      5  C   UNL     1      -0.667  -5.805  -0.033  0.00  0.00    +0.019 C 
BRANCH   5   9
ATOM      6  N   UNL     1       1.236  -2.079  -0.021  0.00  0.00    -0.331 N 
ATOM      7  C   UNL     1       1.254  -2.842   1.236  0.00  0.00    +0.086 C 
ATOM      8  C   UNL     1       0.150  -3.903   1.176  0.00  0.00    -0.059 C 
ATOM      9  N   UNL     1       0.323  -4.720  -0.032  0.00  0.00    +0.387 N 
ATOM     10  C   UNL     1       0.138  -3.890  -1.228  0.00  0.00    -0.059 C 
ATOM     11  C   UNL     1       1.236  -2.828  -1.287  0.00  0.00    +0.086 C 
ATOM     12  H   UNL     1       1.252  -5.116  -0.039  0.00  0.00    -0.081 HD
BRANCH   6  17
ATOM     13  C   UNL     1      -0.017   1.377   0.010  0.00  0.00    +0.002 A 
ATOM     14  C   UNL     1       1.170   2.087   0.002  0.00  0.00    +0.003 A 
ATOM     15  C   UNL     1       2.380   1.418  -0.013  0.00  0.00    +0.040 A 
ATOM     16  C   UNL     1       2.406   0.035  -0.021  0.00  0.00    +0.144 A 
ATOM     17  C   UNL     1       1.214  -0.681  -0.013  0.00  0.00    +0.065 A 
ATOM     18  C   UNL     1       0.002  -0.004   0.002  0.00  0.00    +0.026 A 
ATOM     19  F   UNL     1       3.588  -0.619  -0.036  0.00  0.00    -0.204 F 
ENDBRANCH   6  17
ENDBRANCH   5   9
ENDBRANCH   1   5
BRANCH   3  20
ATOM     20  C   UNL     1      -0.958  -8.673  -2.552  0.00  0.00    +0.109 C 
BRANCH  20  21
ATOM     21  C   UNL     1      -1.990  -9.803  -2.553  0.00  0.00    +0.054 C 
BRANCH  21  22
ATOM     22  C   UNL     1      -1.736 -10.713  -3.727  0.00  0.00    -0.046 A 
ATOM     23  C   UNL     1      -2.345 -10.461  -4.942  0.00  0.00    +0.005 A 
ATOM     24  C   UNL     1      -2.112 -11.296  -6.019  0.00  0.00    +0.029 A 
ATOM     25  C   UNL     1      -1.270 -12.384  -5.880  0.00  0.00    +0.105 A 
ATOM     26  C   UNL     1      -0.661 -12.636  -4.665  0.00  0.00    +0.029 A 
ATOM     27  C   UNL     1      -0.890 -11.798  -3.590  0.00  0.00    +0.005 A 
BRANCH  25  28
ATOM     28  S   UNL     1      -0.975 -13.449  -7.252  0.00  0.00    +0.056 S 
ATOM     29  O   UNL     1      -0.580 -14.704  -6.714  0.00  0.00    -0.153 OA
ATOM     30  O   UNL     1      -2.090 -13.310  -8.122  0.00  0.00    -0.153 OA
BRANCH  28  31
ATOM     31  N   UNL     1       0.337 -12.849  -8.065  0.00  0.00    -0.204 NA
ATOM     32  H   UNL     1       0.925 -13.450  -8.547  0.00  0.00    +0.144 HD
ATOM     33  H   UNL     1       0.517 -11.896  -8.057  0.00  0.00    +0.144 HD
ENDBRANCH  28  31
ENDBRANCH  25  28
ENDBRANCH  21  22
ENDBRANCH  20  21
ENDBRANCH   3  20
TORSDOF 8
