REMARK  Name = ZINC19644041
REMARK  6 active torsions:
REMARK  status: ('A' for Active; 'I' for Inactive)
REMARK    1  A    between atoms: C_1  and  C_2
REMARK    2  A    between atoms: C_3  and  C_24
REMARK    3  A    between atoms: C_4  and  C_14
REMARK    4  A    between atoms: C_24  and  O_26
REMARK    5  A    between atoms: O_26  and  C_27
REMARK    6  A    between atoms: C_27  and  C_28
REMARK                            x       y       z     vdW  Elec       q    Type
REMARK                         _______ _______ _______ _____ _____    ______ ____
ROOT
ATOM      1  C   UNL     1       0.410   3.263  -4.342  0.00  0.00    +0.061 C 
ATOM      2  C   UNL     1      -0.521   2.641  -3.333  0.00  0.00    +0.016 C 
ATOM      3  C   UNL     1      -1.842   2.880  -3.408  0.00  0.00    +0.065 C 
ATOM      4  C   UNL     1      -2.800   2.272  -2.426  0.00  0.00    +0.094 C 
ATOM      5  C   UNL     1      -2.076   1.784  -1.196  0.00  0.00    +0.024 C 
ATOM      6  C   UNL     1      -0.741   1.585  -1.215  0.00  0.00    +0.015 C 
ATOM      7  N   UNL     1      -0.017   1.837  -2.349  0.00  0.00    -0.321 N 
ATOM      8  C   UNL     1      -0.013   1.086   0.008  0.00  0.00    +0.051 C 
ATOM      9  C   UNL     1      -0.728   1.579   1.268  0.00  0.00    +0.014 C 
ATOM     10  C   UNL     1      -2.174   1.073   1.236  0.00  0.00    +0.080 C 
ATOM     11  C   UNL     1      -2.829   1.545  -0.033  0.00  0.00    +0.162 C 
ATOM     12  O   UNL     1      -4.031   1.723  -0.053  0.00  0.00    -0.292 OA
ATOM     13  H   UNL     1       0.979   1.385  -2.465  0.00  0.00    +0.152 HD
ENDROOT
BRANCH   4  14
ATOM     14  C   UNL     1      -3.506   1.111  -3.078  0.00  0.00    -0.013 A 
ATOM     15  C   UNL     1      -2.776   0.036  -3.550  0.00  0.00    +0.055 A 
ATOM     16  C   UNL     1      -3.423  -1.032  -4.149  0.00  0.00    +0.167 A 
ATOM     17  C   UNL     1      -4.810  -1.020  -4.275  0.00  0.00    +0.168 A 
ATOM     18  C   UNL     1      -5.536   0.059  -3.800  0.00  0.00    +0.069 A 
ATOM     19  C   UNL     1      -4.884   1.121  -3.197  0.00  0.00    +0.049 A 
ATOM     20 CL   UNL     1      -5.797   2.470  -2.596  0.00  0.00    -0.083 Cl
ATOM     21  O   UNL     1      -5.202  -2.173  -4.892  0.00  0.00    -0.453 OA
ATOM     22  C   UNL     1      -4.014  -2.702  -5.509  0.00  0.00    +0.466 C 
ATOM     23  O   UNL     1      -2.946  -2.192  -4.688  0.00  0.00    -0.453 OA
ENDBRANCH   4  14
BRANCH   3  24
ATOM     24  C   UNL     1      -2.338   3.721  -4.431  0.00  0.00    +0.338 C 
ATOM     25  O   UNL     1      -1.571   4.221  -5.233  0.00  0.00    -0.245 OA
BRANCH  24  26
ATOM     26  O   UNL     1      -3.662   3.970  -4.517  0.00  0.00    -0.459 OA
BRANCH  26  27
ATOM     27  C   UNL     1      -4.093   4.829  -5.575  0.00  0.00    +0.264 C 
BRANCH  27  28
ATOM     28  C   UNL     1      -5.613   4.992  -5.512  0.00  0.00    +0.156 C 
ATOM     29  C   UNL     1      -6.074   6.013  -6.570  0.00  0.00    +0.037 C 
ATOM     30  C   UNL     1      -7.067   5.221  -7.455  0.00  0.00    +0.031 C 
ATOM     31  C   UNL     1      -7.474   4.053  -6.521  0.00  0.00    +0.160 C 
ATOM     32  O   UNL     1      -6.252   3.741  -5.819  0.00  0.00    -0.373 OA
ENDBRANCH  27  28
ENDBRANCH  26  27
ENDBRANCH  24  26
ENDBRANCH   3  24
TORSDOF 5
