REMARK  Name = ZINC20719734
REMARK  6 active torsions:
REMARK  status: ('A' for Active; 'I' for Inactive)
REMARK    1  A    between atoms: C_1  and  C_2
REMARK    2  A    between atoms: C_5  and  N_9
REMARK    3  A    between atoms: C_7  and  C_8
REMARK    4  A    between atoms: N_9  and  S_10
REMARK    5  A    between atoms: S_10  and  C_13
REMARK    6  A    between atoms: C_26  and  C_29
REMARK                            x       y       z     vdW  Elec       q    Type
REMARK                         _______ _______ _______ _____ _____    ______ ____
ROOT
ATOM      1  C   UNL     1      -3.285  -2.238  -1.850  0.00  0.00    +0.109 A 
ATOM      2  C   UNL     1      -3.962  -1.246  -2.536  0.00  0.00    +0.030 A 
ATOM      3  C   UNL     1      -3.468   0.043  -2.539  0.00  0.00    +0.025 A 
ATOM      4  C   UNL     1      -2.295   0.339  -1.855  0.00  0.00    +0.031 A 
ATOM      5  C   UNL     1      -1.615  -0.651  -1.164  0.00  0.00    -0.018 A 
ATOM      6  C   UNL     1      -2.121  -1.944  -1.169  0.00  0.00    +0.034 A 
ATOM      7  C   UNL     1      -0.351  -0.378  -0.411  0.00  0.00    +0.049 C 
ATOM      8  C   UNL     1       0.855  -0.913  -1.145  0.00  0.00    -0.023 C 
ATOM      9  C   UNL     1       1.876  -0.106  -0.989  0.00  0.00    -0.030 C 
ATOM     10  C   UNL     1       1.490   1.077  -0.123  0.00  0.00    +0.033 C 
ATOM     11  C   UNL     1      -0.061   1.126  -0.249  0.00  0.00    +0.029 C 
ATOM     12  C   UNL     1      -0.389   1.865  -1.549  0.00  0.00    +0.107 C 
ATOM     13  N   UNL     1      -1.803   1.649  -1.874  0.00  0.00    -0.336 N 
ATOM     14  H   UNL     1      -2.447   2.504  -2.124  0.00  0.00    +0.147 HD
ENDROOT
BRANCH  12  15
ATOM     15  C   UNL     1       0.472   1.332  -2.664  0.00  0.00    -0.002 A 
ATOM     16  C   UNL     1       0.164   0.330  -3.502  0.00  0.00    +0.089 A 
ATOM     17  N   UNL     1       1.190   0.126  -4.384  0.00  0.00    -0.360 N 
ATOM     18  H   UNL     1       1.110  -0.661  -5.149  0.00  0.00    +0.165 HD
ATOM     19  C   UNL     1       2.210   1.015  -4.129  0.00  0.00    +0.047 A 
ATOM     20  C   UNL     1       1.803   1.813  -3.044  0.00  0.00    +0.005 A 
ATOM     21  C   UNL     1       2.645   2.818  -2.564  0.00  0.00    +0.010 A 
ATOM     22  C   UNL     1       3.861   3.023  -3.153  0.00  0.00    +0.001 A 
ATOM     23  C   UNL     1       4.266   2.240  -4.225  0.00  0.00    +0.002 A 
ATOM     24  C   UNL     1       3.454   1.238  -4.710  0.00  0.00    +0.026 A 
ENDBRANCH  12  15
BRANCH   1  25
ATOM     25  S   UNL     1      -3.910  -3.885  -1.845  0.00  0.00    +0.072 S 
ATOM     26  O   UNL     1      -4.806  -3.983  -2.945  0.00  0.00    -0.150 OA
ATOM     27  O   UNL     1      -2.789  -4.745  -1.698  0.00  0.00    -0.150 OA
BRANCH  25  28
ATOM     28  N   UNL     1      -4.823  -4.059  -0.475  0.00  0.00    -0.216 N 
ATOM     29  H   UNL     1      -5.897  -4.283  -0.554  0.00  0.00    +0.174 HD
BRANCH  28  34
ATOM     30  C   UNL     1      -2.415  -3.496   4.628  0.00  0.00    +0.044 C 
ATOM     31  C   UNL     1      -3.055  -3.645   3.272  0.00  0.00    -0.047 A 
ATOM     32  C   UNL     1      -2.440  -4.412   2.300  0.00  0.00    +0.005 A 
ATOM     33  C   UNL     1      -3.026  -4.555   1.058  0.00  0.00    +0.025 A 
ATOM     34  C   UNL     1      -4.230  -3.919   0.782  0.00  0.00    +0.048 A 
ATOM     35  C   UNL     1      -4.845  -3.150   1.761  0.00  0.00    +0.028 A 
ATOM     36  C   UNL     1      -4.255  -3.014   3.003  0.00  0.00    -0.046 A 
ATOM     37  C   UNL     1      -4.922  -2.179   4.065  0.00  0.00    +0.044 C 
ENDBRANCH  28  34
ENDBRANCH  25  28
ENDBRANCH   1  25
TORSDOF 4
