REMARK  Name = ZINC51173259
REMARK  3 active torsions:
REMARK  status: ('A' for Active; 'I' for Inactive)
REMARK    1  A    between atoms: C_5  and  C_6
REMARK    2  A    between atoms: N_11  and  S_14
REMARK    3  A    between atoms: S_14  and  N_17
REMARK                            x       y       z     vdW  Elec       q    Type
REMARK                         _______ _______ _______ _____ _____    ______ ____
ROOT
ATOM      1  C   UNL     1      -1.123  -0.943   0.008  0.00  0.00    +0.253 C 
ATOM      2  O   UNL     1      -2.260  -0.528   0.140  0.00  0.00    -0.269 OA
ATOM      3  N   UNL     1      -0.896  -2.266  -0.103  0.00  0.00    -0.295 N 
ATOM      4  C   UNL     1       0.476  -2.792  -0.115  0.00  0.00    +0.125 C 
ATOM      5  C   UNL     1       0.608  -3.842   0.995  0.00  0.00    +0.129 C 
ATOM      6  N   UNL     1      -0.513  -4.786   0.884  0.00  0.00    -0.164 NA
ATOM      7  C   UNL     1      -1.885  -4.261   0.896  0.00  0.00    +0.129 C 
ATOM      8  C   UNL     1      -2.017  -3.211  -0.208  0.00  0.00    +0.125 C 
ENDROOT
BRANCH   1  13
ATOM      9  C   UNL     1       0.077   1.287   0.476  0.00  0.00    +0.022 A 
ATOM     10  C   UNL     1       1.275   1.932   0.286  0.00  0.00    +0.028 A 
ATOM     11  C   UNL     1       2.276   1.286  -0.365  0.00  0.00    +0.079 A 
ATOM     12  S   UNL     1       1.621  -0.216  -0.739  0.00  0.00    -0.072 S 
ATOM     13  C   UNL     1      -0.001  -0.002  -0.030  0.00  0.00    +0.075 A 
ATOM     14 CL   UNL     1       3.868   1.875  -0.728  0.00  0.00    -0.076 Cl
ENDBRANCH   1  13
BRANCH   6  15
ATOM     15  S   UNL     1      -0.234  -6.413   0.748  0.00  0.00    +0.095 S 
ATOM     16  O   UNL     1      -1.380  -6.970   0.117  0.00  0.00    -0.141 OA
ATOM     17  O   UNL     1       1.075  -6.558   0.214  0.00  0.00    -0.141 OA
BRANCH  15  18
ATOM     18  N   UNL     1      -0.191  -7.033   2.283  0.00  0.00    -0.193 NA
ATOM     19  H   UNL     1      -0.470  -7.948   2.444  0.00  0.00    +0.145 HD
ATOM     20  H   UNL     1       0.113  -6.481   3.020  0.00  0.00    +0.145 HD
ENDBRANCH  15  18
ENDBRANCH   6  15
TORSDOF 3
