REMARK  Name = ZINC05346020
REMARK  8 active torsions:
REMARK  status: ('A' for Active; 'I' for Inactive)
REMARK    1  A    between atoms: C_1  and  C_2
REMARK    2  A    between atoms: C_2  and  C_3
REMARK    3  A    between atoms: C_3  and  C_5
REMARK    4  A    between atoms: C_3  and  N_6
REMARK    5  A    between atoms: C_18  and  C_25
REMARK    6  A    between atoms: C_26  and  C_28
REMARK    7  A    between atoms: C_28  and  C_29
REMARK    8  A    between atoms: C_28  and  C_30
REMARK                            x       y       z     vdW  Elec       q    Type
REMARK                         _______ _______ _______ _____ _____    ______ ____
ROOT
ATOM      1  N   UNL     1       0.526  -0.089   0.040  0.00  0.00    -0.239 N 
ATOM      2  C   UNL     1      -0.743   0.327  -0.047  0.00  0.00    +0.224 C 
ATOM      3  O   UNL     1      -1.716  -0.394  -0.069  0.00  0.00    -0.275 OA
ATOM      4  C   UNL     1      -0.773   1.838  -0.112  0.00  0.00    +0.073 C 
ATOM      5  C   UNL     1       0.729   2.229  -0.040  0.00  0.00    +0.088 C 
ATOM      6  C   UNL     1       1.433   0.894   0.050  0.00  0.00    +0.225 C 
ATOM      7  O   UNL     1       2.634   0.739   0.120  0.00  0.00    -0.275 OA
ATOM      8  C   UNL     1       1.025   2.883  -1.394  0.00  0.00    +0.050 C 
ATOM      9  C   UNL     1       1.682   1.921  -2.343  0.00  0.00    -0.027 A 
ATOM     10  C   UNL     1       1.311   0.703  -2.866  0.00  0.00    +0.008 A 
ATOM     11  C   UNL     1       2.153   0.040  -3.741  0.00  0.00    -0.050 A 
ATOM     12  C   UNL     1       3.368   0.604  -4.088  0.00  0.00    +0.005 A 
ATOM     13  C   UNL     1       3.744   1.823  -3.565  0.00  0.00    +0.024 A 
ATOM     14  C   UNL     1       2.902   2.497  -2.683  0.00  0.00    +0.036 A 
ATOM     15  N   UNL     1       3.057   3.723  -2.031  0.00  0.00    -0.286 N 
ATOM     16  C   UNL     1       1.998   4.022  -1.255  0.00  0.00    +0.211 C 
ATOM     17  O   UNL     1       1.856   5.016  -0.574  0.00  0.00    -0.277 OA
ATOM     18  C   UNL     1       1.749  -1.294  -4.315  0.00  0.00    +0.044 C 
ATOM     19  C   UNL     1      -1.228   2.275  -1.521  0.00  0.00    -0.055 C 
ATOM     20  H   UNL     1       3.836   4.292  -2.127  0.00  0.00    +0.155 HD
ATOM     21  N   UNL     1      -0.269   3.317  -1.894  0.00  0.00    +0.394 N 
ATOM     22  H   UNL     1      -0.238   3.422  -2.915  0.00  0.00    -0.083 HD
ATOM     23  H   UNL     1      -0.533   4.212  -1.465  0.00  0.00    -0.083 HD
ENDROOT
BRANCH  19  24
ATOM     24  C   UNL     1      -2.656   2.821  -1.474  0.00  0.00    -0.031 C 
ATOM     25  C   UNL     1      -3.086   3.248  -2.879  0.00  0.00    +0.005 C 
ATOM     26  C   UNL     1      -3.602   1.734  -0.959  0.00  0.00    +0.005 C 
ENDBRANCH  19  24
BRANCH   1  27
ATOM     27  C   UNL     1       0.892  -1.506   0.119  0.00  0.00    +0.081 C 
ATOM     28  C   UNL     1       1.818  -1.859  -1.046  0.00  0.00    +0.028 C 
BRANCH  27  30
ATOM     29  C   UNL     1       0.643  -1.545   2.605  0.00  0.00    +0.006 C 
ATOM     30  C   UNL     1       1.611  -1.774   1.442  0.00  0.00    +0.019 C 
ENDBRANCH  27  30
ENDBRANCH   1  27
TORSDOF 3
