REMARK  Name = ZINC01058611
REMARK  8 active torsions:
REMARK  status: ('A' for Active; 'I' for Inactive)
REMARK    1  A    between atoms: C_1  and  C_2
REMARK    2  A    between atoms: C_2  and  O_3
REMARK    3  A    between atoms: O_3  and  C_4
REMARK    4  A    between atoms: C_4  and  C_6
REMARK    5  A    between atoms: C_7  and  C_21
REMARK    6  A    between atoms: C_12  and  C_14
REMARK    7  A    between atoms: C_21  and  N_22
REMARK    8  A    between atoms: C_25  and  C_28
REMARK                            x       y       z     vdW  Elec       q    Type
REMARK                         _______ _______ _______ _____ _____    ______ ____
ROOT
ATOM      1  C   UNL     1       1.547  -2.360   2.382  0.00  0.00    +0.076 C 
ATOM      2  C   UNL     1       1.513  -3.685   2.645  0.00  0.00    +0.008 C 
ATOM      3  N   UNL     1       2.087  -4.195   3.774  0.00  0.00    -0.274 N 
ATOM      4  C   UNL     1       2.714  -3.447   4.691  0.00  0.00    +0.304 C 
ATOM      5  O   UNL     1       3.194  -3.992   5.666  0.00  0.00    -0.252 OA
ATOM      6  N   UNL     1       2.829  -2.110   4.569  0.00  0.00    -0.288 N 
ATOM      7  C   UNL     1       2.249  -1.462   3.381  0.00  0.00    +0.143 C 
ATOM      8  H   UNL     1       2.037  -5.152   3.921  0.00  0.00    +0.156 HD
ATOM      9  H   UNL     1       3.287  -1.587   5.245  0.00  0.00    +0.151 HD
ENDROOT
BRANCH   7  10
ATOM     10  C   UNL     1       1.256  -0.433   3.857  0.00  0.00    -0.022 A 
ATOM     11  C   UNL     1       0.334  -0.763   4.833  0.00  0.00    +0.007 A 
ATOM     12  C   UNL     1      -0.577   0.180   5.271  0.00  0.00    +0.020 A 
ATOM     13  C   UNL     1      -0.566   1.455   4.731  0.00  0.00    +0.041 A 
ATOM     14  C   UNL     1       0.357   1.784   3.755  0.00  0.00    +0.020 A 
ATOM     15  C   UNL     1       1.271   0.842   3.322  0.00  0.00    +0.007 A 
ATOM     16 CL   UNL     1      -1.710   2.639   5.280  0.00  0.00    -0.084 Cl
ENDBRANCH   7  10
BRANCH   1  17
ATOM     17  C   UNL     1       0.954  -1.831   1.213  0.00  0.00    +0.339 C 
ATOM     18  O   UNL     1       1.649  -1.532   0.260  0.00  0.00    -0.245 OA
BRANCH  17  19
ATOM     19  O   UNL     1      -0.383  -1.657   1.154  0.00  0.00    -0.462 OA
BRANCH  19  21
ATOM     20  C   UNL     1      -2.435  -0.994   0.062  0.00  0.00    +0.048 C 
ATOM     21  C   UNL     1      -0.914  -1.118  -0.058  0.00  0.00    +0.229 C 
ENDBRANCH  19  21
ENDBRANCH  17  19
ENDBRANCH   1  17
BRANCH   2  22
ATOM     22  C   UNL     1       0.830  -4.615   1.676  0.00  0.00    -0.026 C 
BRANCH  22  23
ATOM     23  N   UNL     1       1.820  -5.534   1.099  0.00  0.00    +0.383 N 
ATOM     24  C   UNL     1       2.788  -4.772   0.302  0.00  0.00    -0.078 C 
ATOM     25  C   UNL     1       3.868  -5.714  -0.234  0.00  0.00    -0.016 C 
ATOM     26  C   UNL     1       3.214  -6.785  -1.111  0.00  0.00    -0.018 C 
ATOM     27  C   UNL     1       2.154  -7.525  -0.291  0.00  0.00    -0.016 C 
ATOM     28  C   UNL     1       1.137  -6.516   0.248  0.00  0.00    -0.078 C 
ATOM     29  C   UNL     1       4.277  -7.777  -1.587  0.00  0.00    +0.007 C 
ATOM     30  H   UNL     1       2.304  -6.015   1.843  0.00  0.00    -0.081 HD
ENDBRANCH  22  23
ENDBRANCH   2  22
TORSDOF 6
