REMARK  Name = ZINC36637468
REMARK  16 active torsions:
REMARK  status: ('A' for Active; 'I' for Inactive)
REMARK    1  A    between atoms: C_1  and  C_2
REMARK    2  A    between atoms: C_2  and  C_3
REMARK    3  A    between atoms: C_3  and  C_4
REMARK    4  A    between atoms: C_4  and  N_5
REMARK    5  A    between atoms: N_5  and  C_6
REMARK    6  A    between atoms: N_5  and  S_10
REMARK    7  A    between atoms: C_6  and  C_7
REMARK    8  A    between atoms: C_7  and  C_8
REMARK    9  A    between atoms: C_8  and  C_9
REMARK   10  A    between atoms: S_10  and  C_13
REMARK   11  A    between atoms: C_16  and  C_19
REMARK   12  A    between atoms: N_21  and  C_22
REMARK   13  A    between atoms: C_22  and  C_23
REMARK   14  A    between atoms: C_23  and  N_24
REMARK   15  A    between atoms: N_24  and  C_25
REMARK   16  A    between atoms: N_24  and  C_26
REMARK                            x       y       z     vdW  Elec       q    Type
REMARK                         _______ _______ _______ _____ _____    ______ ____
ROOT
ATOM      1  C   UNL     1      -0.001   2.014  -7.038  0.00  0.00    +0.252 C 
ATOM      2  O   UNL     1      -1.001   2.699  -6.950  0.00  0.00    -0.270 OA
ATOM      3  N   UNL     1       0.948   2.321  -7.945  0.00  0.00    -0.248 N 
ATOM      4  C   UNL     1       0.851   3.491  -8.679  0.00  0.00    +0.168 A 
ATOM      5  N   UNL     1       1.663   3.955  -9.601  0.00  0.00    -0.221 NA
ATOM      6  C   UNL     1       1.442   5.123 -10.242  0.00  0.00    +0.115 A 
ATOM      7  C   UNL     1       2.232   5.732 -11.247  0.00  0.00    +0.150 A 
ATOM      8  C   UNL     1       1.860   6.933 -11.798  0.00  0.00    +0.040 A 
ATOM      9  C   UNL     1       0.707   7.590 -11.394  0.00  0.00    +0.004 A 
ATOM     10  C   UNL     1      -0.088   7.023 -10.415  0.00  0.00    +0.017 A 
ATOM     11  C   UNL     1       0.275   5.822  -9.857  0.00  0.00    +0.044 A 
ATOM     12  S   UNL     1      -0.415   4.751  -8.619  0.00  0.00    -0.052 S 
ATOM     13  F   UNL     1       3.363   5.125 -11.667  0.00  0.00    -0.203 F 
ENDROOT
BRANCH   1  17
ATOM     14  C   UNL     1       0.504  -1.348  -4.493  0.00  0.00    +0.106 A 
ATOM     15  C   UNL     1      -0.177  -0.233  -4.035  0.00  0.00    +0.029 A 
ATOM     16  C   UNL     1      -0.344   0.862  -4.857  0.00  0.00    +0.015 A 
ATOM     17  C   UNL     1       0.175   0.844  -6.152  0.00  0.00    +0.037 A 
ATOM     18  C   UNL     1       0.861  -0.283  -6.608  0.00  0.00    +0.015 A 
ATOM     19  C   UNL     1       1.025  -1.370  -5.774  0.00  0.00    +0.029 A 
BRANCH  14  20
ATOM     20  S   UNL     1       0.713  -2.743  -3.436  0.00  0.00    +0.061 S 
ATOM     21  O   UNL     1       0.916  -3.866  -4.282  0.00  0.00    -0.153 OA
ATOM     22  O   UNL     1      -0.337  -2.689  -2.480  0.00  0.00    -0.153 OA
BRANCH  20  23
ATOM     23  N   UNL     1       2.126  -2.517  -2.602  0.00  0.00    -0.177 NA
BRANCH  23  24
ATOM     24  C   UNL     1       2.112  -1.818  -1.315  0.00  0.00    +0.109 C 
BRANCH  24  25
ATOM     25  C   UNL     1       2.433  -0.338  -1.535  0.00  0.00    +0.017 C 
BRANCH  25  27
ATOM     26  C   UNL     1       2.740   1.872  -0.410  0.00  0.00    +0.004 C 
ATOM     27  C   UNL     1       2.419   0.392  -0.190  0.00  0.00    -0.002 C 
ENDBRANCH  25  27
ENDBRANCH  24  25
ENDBRANCH  23  24
BRANCH  23  28
ATOM     28  C   UNL     1       3.388  -3.017  -3.151  0.00  0.00    +0.109 C 
BRANCH  28  29
ATOM     29  C   UNL     1       3.688  -4.398  -2.564  0.00  0.00    +0.017 C 
BRANCH  29  30
ATOM     30  C   UNL     1       5.007  -4.920  -3.138  0.00  0.00    -0.002 C 
ATOM     31  C   UNL     1       5.307  -6.301  -2.551  0.00  0.00    +0.004 C 
ENDBRANCH  29  30
ENDBRANCH  28  29
ENDBRANCH  23  28
ENDBRANCH  20  23
ENDBRANCH  14  20
ENDBRANCH   1  17
BRANCH   3  32
ATOM     32  C   UNL     1       2.082   1.418  -8.153  0.00  0.00    +0.097 C 
BRANCH  32  33
ATOM     33  C   UNL     1       1.870   0.622  -9.443  0.00  0.00    -0.060 C 
BRANCH  33  34
ATOM     34  N   UNL     1       3.063  -0.190  -9.719  0.00  0.00    +0.377 N 
ATOM     35  C   UNL     1       3.222  -1.200  -8.664  0.00  0.00    -0.097 C 
ATOM     36  C   UNL     1       2.910  -0.858 -11.018  0.00  0.00    -0.097 C 
ATOM     37  H   UNL     1       3.877   0.405  -9.740  0.00  0.00    -0.083 HD
ENDBRANCH  33  34
ENDBRANCH  32  33
ENDBRANCH   3  32
TORSDOF 12
