REMARK  Name = ZINC52823817
REMARK  6 active torsions:
REMARK  status: ('A' for Active; 'I' for Inactive)
REMARK    1  A    between atoms: C_1  and  C_2
REMARK    2  A    between atoms: C_2  and  C_4
REMARK    3  A    between atoms: C_2  and  N_13
REMARK    4  A    between atoms: N_9  and  C_10
REMARK    5  A    between atoms: C_10  and  C_11
REMARK    6  A    between atoms: C_16  and  C_19
REMARK                            x       y       z     vdW  Elec       q    Type
REMARK                         _______ _______ _______ _____ _____    ______ ____
ROOT
ATOM      1  N   UNL     1       0.328  -0.555   1.324  0.00  0.00    -0.288 NA
ATOM      2  C   UNL     1       1.616  -0.034   1.810  0.00  0.00    +0.090 C 
ATOM      3  C   UNL     1       1.751  -0.377   3.296  0.00  0.00    +0.051 C 
ATOM      4  C   UNL     1       1.441  -1.833   3.510  0.00  0.00    -0.040 C 
ATOM      5  C   UNL     1       0.813  -2.565   2.614  0.00  0.00    -0.007 C 
ATOM      6  C   UNL     1       0.352  -2.023   1.292  0.00  0.00    +0.112 C 
ENDROOT
BRANCH   4   7
ATOM      7  C   UNL     1       1.859  -2.467   4.776  0.00  0.00    +0.003 A 
ATOM      8  C   UNL     1       3.120  -2.825   5.126  0.00  0.00    +0.091 A 
ATOM      9  N   UNL     1       3.112  -3.381   6.372  0.00  0.00    -0.360 N 
ATOM     10  H   UNL     1       3.896  -3.714   6.837  0.00  0.00    +0.165 HD
ATOM     11  C   UNL     1       1.829  -3.402   6.876  0.00  0.00    +0.050 A 
ATOM     12  C   UNL     1       0.988  -2.828   5.908  0.00  0.00    +0.007 A 
ATOM     13  C   UNL     1      -0.379  -2.711   6.151  0.00  0.00    +0.013 A 
ATOM     14  C   UNL     1      -0.900  -3.157   7.345  0.00  0.00    +0.039 A 
ATOM     15  C   UNL     1      -0.070  -3.722   8.306  0.00  0.00    +0.125 A 
ATOM     16  C   UNL     1       1.284  -3.851   8.074  0.00  0.00    +0.064 A 
ATOM     17  F   UNL     1      -0.594  -4.155   9.473  0.00  0.00    -0.205 F 
ENDBRANCH   4   7
BRANCH   1  19
ATOM     18  C   UNL     1       1.205  -0.168  -0.929  0.00  0.00    +0.034 C 
ATOM     19  C   UNL     1       0.002  -0.004   0.002  0.00  0.00    +0.141 C 
BRANCH  19  20
ATOM     20  C   UNL     1      -0.333   1.459   0.136  0.00  0.00    +0.237 C 
ATOM     21  O   UNL     1      -0.100   2.042   1.173  0.00  0.00    -0.274 OA
ATOM     22  N   UNL     1      -0.893   2.119  -0.897  0.00  0.00    -0.239 N 
ATOM     23  C   UNL     1      -1.193   3.428  -0.777  0.00  0.00    +0.306 C 
ATOM     24  O   UNL     1      -0.959   4.012   0.263  0.00  0.00    -0.252 OA
ATOM     25  N   UNL     1      -1.752   4.088  -1.810  0.00  0.00    -0.296 N 
ATOM     26  H   UNL     1      -1.079   1.653  -1.727  0.00  0.00    +0.159 HD
ATOM     27  H   UNL     1      -1.939   3.622  -2.640  0.00  0.00    +0.151 HD
BRANCH  25  28
ATOM     28  C   UNL     1      -2.078   5.511  -1.680  0.00  0.00    +0.132 C 
BRANCH  28  29
ATOM     29  C   UNL     1      -2.688   6.006  -2.966  0.00  0.00    -0.016 C 
ATOM     30  C   UNL     1      -3.860   6.593  -2.951  0.00  0.00    +0.005 C 
ENDBRANCH  28  29
ENDBRANCH  25  28
ENDBRANCH  19  20
ENDBRANCH   1  19
TORSDOF 5
