REMARK  Name = ZINC35991905
REMARK  13 active torsions:
REMARK  status: ('A' for Active; 'I' for Inactive)
REMARK    1  A    between atoms: C_1  and  C_2
REMARK    2  A    between atoms: C_2  and  O_3
REMARK    3  A    between atoms: O_3  and  C_4
REMARK    4  A    between atoms: C_4  and  C_6
REMARK    5  A    between atoms: C_7  and  C_23
REMARK    6  A    between atoms: N_8  and  C_22
REMARK    7  A    between atoms: C_12  and  C_14
REMARK    8  A    between atoms: C_19  and  O_20
REMARK    9  A    between atoms: O_20  and  C_21
REMARK   10  A    between atoms: C_23  and  N_24
REMARK   11  A    between atoms: C_28  and  C_31
REMARK   12  A    between atoms: C_32  and  C_34
REMARK   13  A    between atoms: C_37  and  C_40
REMARK                            x       y       z     vdW  Elec       q    Type
REMARK                         _______ _______ _______ _____ _____    ______ ____
ROOT
ATOM      1  C   UNL     1      -0.181  -1.606  -0.388  0.00  0.00    +0.080 C 
ATOM      2  C   UNL     1      -0.056  -2.910  -0.715  0.00  0.00    +0.041 C 
ATOM      3  N   UNL     1       0.877  -3.323  -1.623  0.00  0.00    -0.260 N 
ATOM      4  C   UNL     1       1.722  -2.494  -2.249  0.00  0.00    +0.307 C 
ATOM      5  O   UNL     1       2.518  -2.955  -3.043  0.00  0.00    -0.252 OA
ATOM      6  N   UNL     1       1.717  -1.164  -2.027  0.00  0.00    -0.288 N 
ATOM      7  C   UNL     1       0.743  -0.617  -1.068  0.00  0.00    +0.147 C 
ATOM      8  C   UNL     1       0.958  -4.753  -1.930  0.00  0.00    +0.139 C 
ATOM      9  H   UNL     1       2.338  -0.581  -2.492  0.00  0.00    +0.151 HD
ENDROOT
BRANCH   7  10
ATOM     10  C   UNL     1      -0.109   0.395  -1.790  0.00  0.00    +0.019 A 
ATOM     11  C   UNL     1      -0.433   0.203  -3.119  0.00  0.00    +0.009 A 
ATOM     12  C   UNL     1      -1.215   1.131  -3.783  0.00  0.00    +0.001 A 
ATOM     13  C   UNL     1      -1.675   2.252  -3.117  0.00  0.00    +0.004 A 
ATOM     14  C   UNL     1      -1.354   2.449  -1.788  0.00  0.00    +0.046 A 
ATOM     15  C   UNL     1      -0.574   1.516  -1.119  0.00  0.00    +0.125 A 
BRANCH  15  16
ATOM     16  O   UNL     1      -0.262   1.704   0.190  0.00  0.00    -0.495 OA
ATOM     17  C   UNL     1      -0.861   2.824   0.846  0.00  0.00    +0.277 C 
ENDBRANCH  15  16
ENDBRANCH   7  10
BRANCH   1  18
ATOM     18  C   UNL     1      -1.147  -1.178   0.553  0.00  0.00    +0.339 C 
ATOM     19  O   UNL     1      -0.817  -0.944   1.700  0.00  0.00    -0.245 OA
BRANCH  18  20
ATOM     20  O   UNL     1      -2.434  -1.028   0.177  0.00  0.00    -0.462 OA
BRANCH  20  22
ATOM     21  C   UNL     1      -4.758  -0.506   0.587  0.00  0.00    +0.048 C 
ATOM     22  C   UNL     1      -3.334  -0.487   1.147  0.00  0.00    +0.229 C 
ENDBRANCH  20  22
ENDBRANCH  18  20
ENDBRANCH   1  18
BRANCH   2  23
ATOM     23  C   UNL     1      -0.959  -3.928  -0.065  0.00  0.00    +0.136 C 
BRANCH  23  24
ATOM     24  N   UNL     1      -1.816  -4.543  -1.087  0.00  0.00    -0.294 NA
ATOM     25  C   UNL     1      -2.743  -3.558  -1.660  0.00  0.00    +0.104 C 
ATOM     26  C   UNL     1      -3.490  -4.190  -2.840  0.00  0.00    +0.124 C 
ATOM     27  N   UNL     1      -4.116  -5.439  -2.381  0.00  0.00    -0.292 N 
ATOM     28  C   UNL     1      -3.277  -6.419  -1.674  0.00  0.00    +0.087 C 
ATOM     29  C   UNL     1      -2.539  -5.699  -0.540  0.00  0.00    +0.107 C 
ATOM     30  C   UNL     1      -4.159  -7.528  -1.096  0.00  0.00    +0.029 C 
ATOM     31  C   UNL     1      -5.423  -5.680  -2.603  0.00  0.00    +0.247 C 
ATOM     32  O   UNL     1      -5.951  -6.663  -2.122  0.00  0.00    -0.270 OA
BRANCH  31  33
ATOM     33  C   UNL     1      -6.215  -4.748  -3.434  0.00  0.00    +0.037 A 
ATOM     34  C   UNL     1      -5.591  -3.985  -4.421  0.00  0.00    +0.013 A 
ATOM     35  C   UNL     1      -6.336  -3.118  -5.193  0.00  0.00    +0.004 A 
ATOM     36  C   UNL     1      -7.700  -3.003  -4.990  0.00  0.00    -0.050 A 
ATOM     37  C   UNL     1      -8.325  -3.756  -4.012  0.00  0.00    +0.004 A 
ATOM     38  C   UNL     1      -7.592  -4.632  -3.238  0.00  0.00    +0.013 A 
ATOM     39  C   UNL     1      -8.507  -2.053  -5.836  0.00  0.00    +0.044 C 
ENDBRANCH  31  33
ENDBRANCH  23  24
ENDBRANCH   2  23
TORSDOF 8
