REMARK  Name = ZINC39352305
REMARK  6 active torsions:
REMARK  status: ('A' for Active; 'I' for Inactive)
REMARK    1  A    between atoms: C_1  and  C_2
REMARK    2  A    between atoms: C_2  and  C_3
REMARK    3  A    between atoms: C_3  and  C_4
REMARK    4  A    between atoms: C_6  and  C_18
REMARK    5  A    between atoms: C_8  and  C_16
REMARK    6  A    between atoms: C_9  and  N_15
REMARK                            x       y       z     vdW  Elec       q    Type
REMARK                         _______ _______ _______ _____ _____    ______ ____
ROOT
ATOM      1  C   UNL     1       0.840  -1.811  -1.734  0.00  0.00    +0.069 C 
ATOM      2  C   UNL     1      -0.108  -2.560  -2.243  0.00  0.00    +0.030 C 
ATOM      3  C   UNL     1      -1.463  -2.264  -2.826  0.00  0.00    +0.102 C 
ATOM      4  C   UNL     1      -2.387  -3.331  -2.269  0.00  0.00    +0.098 C 
ATOM      5  C   UNL     1      -1.914  -4.388  -1.577  0.00  0.00    +0.195 C 
ATOM      6  O   UNL     1      -0.629  -4.634  -1.264  0.00  0.00    -0.448 OA
ATOM      7  C   UNL     1       0.377  -3.998  -2.057  0.00  0.00    +0.343 C 
ATOM      8  N   UNL     1       1.627  -3.804  -1.314  0.00  0.00    -0.138 NA
ATOM      9  N   UNL     1       1.821  -2.587  -1.206  0.00  0.00    -0.155 NA
ENDROOT
BRANCH   3  10
ATOM     10  C   UNL     1      -1.926  -0.895  -2.399  0.00  0.00    +0.019 A 
ATOM     11  C   UNL     1      -2.188  -0.638  -1.064  0.00  0.00    +0.129 A 
ATOM     12  C   UNL     1      -2.613   0.620  -0.672  0.00  0.00    +0.039 A 
ATOM     13  C   UNL     1      -2.776   1.619  -1.614  0.00  0.00    +0.004 A 
ATOM     14  C   UNL     1      -2.514   1.362  -2.947  0.00  0.00    +0.020 A 
ATOM     15  C   UNL     1      -2.083   0.107  -3.339  0.00  0.00    +0.048 A 
ATOM     16 CL   UNL     1      -1.748  -0.212  -5.012  0.00  0.00    -0.083 Cl
ATOM     17  F   UNL     1      -2.029  -1.614  -0.143  0.00  0.00    -0.205 F 
ENDBRANCH   3  10
BRANCH   5  18
ATOM     18  N   UNL     1      -2.839  -5.306  -1.147  0.00  0.00    -0.329 N 
ATOM     19  H   UNL     1      -3.780  -5.176  -1.346  0.00  0.00    +0.145 HD
ATOM     20  H   UNL     1      -2.553  -6.085  -0.645  0.00  0.00    +0.145 HD
ENDBRANCH   5  18
BRANCH   4  21
ATOM     21  C   UNL     1      -3.798  -3.212  -2.484  0.00  0.00    +0.101 C 
ATOM     22  N   UNL     1      -4.917  -3.119  -2.655  0.00  0.00    -0.191 NA
ENDBRANCH   4  21
BRANCH   1  23
ATOM     23  C   UNL     1       0.844  -0.304  -1.741  0.00  0.00    +0.057 C 
BRANCH  23  25
ATOM     24  C   UNL     1       1.468   1.724  -3.060  0.00  0.00    +0.004 C 
ATOM     25  C   UNL     1       1.570   0.199  -2.990  0.00  0.00    +0.003 C 
ENDBRANCH  23  25
ENDBRANCH   1  23
TORSDOF 5
