REMARK  Name = ZINC20452780
REMARK  15 active torsions:
REMARK  status: ('A' for Active; 'I' for Inactive)
REMARK    1  A    between atoms: C_1  and  C_2
REMARK    2  A    between atoms: C_2  and  C_3
REMARK    3  A    between atoms: C_2  and  C_4
REMARK    4  A    between atoms: C_4  and  N_5
REMARK    5  A    between atoms: C_8  and  N_27
REMARK    6  A    between atoms: C_10  and  C_13
REMARK    7  A    between atoms: C_13  and  C_14
REMARK    8  A    between atoms: C_14  and  C_15
REMARK    9  A    between atoms: N_17  and  C_18
REMARK   10  A    between atoms: C_18  and  C_19
REMARK   11  A    between atoms: C_24  and  O_25
REMARK   12  A    between atoms: O_25  and  C_26
REMARK   13  A    between atoms: N_30  and  C_33
REMARK   14  A    between atoms: C_38  and  O_39
REMARK   15  A    between atoms: O_39  and  C_40
REMARK                            x       y       z     vdW  Elec       q    Type
REMARK                         _______ _______ _______ _____ _____    ______ ____
ROOT
ATOM      1  N   UNL     1       2.285   4.455  -2.471  0.00  0.00    -0.302 NA
ATOM      2  C   UNL     1       2.043   5.903  -2.495  0.00  0.00    +0.083 C 
ATOM      3  C   UNL     1       1.219   6.305  -1.270  0.00  0.00    +0.000 C 
ATOM      4  C   UNL     1       1.980   5.918   0.001  0.00  0.00    -0.063 C 
ATOM      5  C   UNL     1       2.262   4.412  -0.022  0.00  0.00    -0.010 C 
ATOM      6  C   UNL     1       3.056   4.066  -1.283  0.00  0.00    +0.086 C 
ENDROOT
BRANCH   4   7
ATOM      7  N   UNL     1       1.169   6.248   1.179  0.00  0.00    +0.384 N 
ATOM      8  C   UNL     1       0.712   7.644   1.130  0.00  0.00    -0.059 C 
ATOM      9  C   UNL     1      -0.194   7.924   2.332  0.00  0.00    +0.086 C 
ATOM     10  N   UNL     1       0.547   7.659   3.573  0.00  0.00    -0.331 N 
ATOM     11  C   UNL     1       1.004   6.263   3.622  0.00  0.00    +0.086 C 
ATOM     12  C   UNL     1       1.910   5.982   2.420  0.00  0.00    -0.059 C 
ATOM     13  H   UNL     1       0.280   5.599   1.169  0.00  0.00    -0.081 HD
BRANCH  10  14
ATOM     14  C   UNL     1      -0.226   7.973   4.696  0.00  0.00    +0.072 A 
ATOM     15  C   UNL     1      -1.575   8.264   4.552  0.00  0.00    +0.027 A 
ATOM     16  C   UNL     1      -2.337   8.575   5.663  0.00  0.00    +0.002 A 
ATOM     17  C   UNL     1      -1.758   8.596   6.918  0.00  0.00    +0.004 A 
ATOM     18  C   UNL     1      -0.414   8.307   7.069  0.00  0.00    +0.047 A 
ATOM     19  C   UNL     1       0.355   7.989   5.962  0.00  0.00    +0.141 A 
BRANCH  19  20
ATOM     20  O   UNL     1       1.675   7.699   6.110  0.00  0.00    -0.493 OA
ATOM     21  C   UNL     1       2.203   7.735   7.437  0.00  0.00    +0.277 C 
ENDBRANCH  19  20
ENDBRANCH  10  14
ENDBRANCH   4   7
BRANCH   1  22
ATOM     22  C   UNL     1       2.954   4.012  -3.701  0.00  0.00    +0.087 C 
BRANCH  22  24
ATOM     23  C   UNL     1       2.750   3.860  -6.187  0.00  0.00    +0.008 C 
ATOM     24  C   UNL     1       2.012   4.204  -4.891  0.00  0.00    -0.003 C 
ATOM     25  C   UNL     1       0.800   3.283  -4.736  0.00  0.00    +0.008 C 
ENDBRANCH  22  24
ENDBRANCH   1  22
BRANCH   5  26
ATOM     26  C   UNL     1       0.938   3.645  -0.024  0.00  0.00    +0.012 C 
BRANCH  26  27
ATOM     27  C   UNL     1       1.218   2.146   0.102  0.00  0.00    +0.096 C 
BRANCH  27  28
ATOM     28  C   UNL     1      -0.086   1.390   0.099  0.00  0.00    +0.213 C 
ATOM     29  O   UNL     1      -1.135   1.991   0.001  0.00  0.00    -0.276 OA
ATOM     30  N   UNL     1      -0.086   0.046   0.201  0.00  0.00    -0.311 N 
ATOM     31  H   UNL     1       0.866  -0.499   0.285  0.00  0.00    +0.149 HD
BRANCH  30  32
ATOM     32  C   UNL     1      -1.353  -0.689   0.198  0.00  0.00    +0.143 C 
BRANCH  32  33
ATOM     33  C   UNL     1      -1.078  -2.165   0.322  0.00  0.00    +0.011 A 
ATOM     34  C   UNL     1      -1.108  -2.970  -0.800  0.00  0.00    +0.009 A 
ATOM     35  C   UNL     1      -0.851  -4.324  -0.688  0.00  0.00    +0.001 A 
ATOM     36  C   UNL     1      -0.574  -4.877   0.548  0.00  0.00    +0.004 A 
ATOM     37  C   UNL     1      -0.548  -4.077   1.674  0.00  0.00    +0.046 A 
ATOM     38  C   UNL     1      -0.800  -2.718   1.563  0.00  0.00    +0.125 A 
BRANCH  38  39
ATOM     39  O   UNL     1      -0.775  -1.929   2.670  0.00  0.00    -0.495 OA
ATOM     40  C   UNL     1      -0.482  -2.566   3.915  0.00  0.00    +0.277 C 
ENDBRANCH  38  39
ENDBRANCH  32  33
ENDBRANCH  30  32
ENDBRANCH  27  28
ENDBRANCH  26  27
ENDBRANCH   5  26
TORSDOF 11
