REMARK  Name = ZINC63708336
REMARK  11 active torsions:
REMARK  status: ('A' for Active; 'I' for Inactive)
REMARK    1  A    between atoms: C_1  and  C_2
REMARK    2  A    between atoms: C_2  and  C_3
REMARK    3  A    between atoms: C_3  and  C_5
REMARK    4  A    between atoms: C_3  and  S_15
REMARK    5  A    between atoms: N_7  and  C_8
REMARK    6  A    between atoms: S_15  and  C_16
REMARK    7  A    between atoms: C_28  and  C_30
REMARK    8  A    between atoms: C_30  and  C_31
REMARK    9  A    between atoms: C_31  and  C_32
REMARK   10  A    between atoms: C_33  and  C_39
REMARK   11  A    between atoms: C_36  and  C_38
REMARK                            x       y       z     vdW  Elec       q    Type
REMARK                         _______ _______ _______ _____ _____    ______ ____
ROOT
ATOM      1  C   UNL     1      -2.792   1.242   1.743  0.00  0.00    +0.249 C 
ATOM      2  N   UNL     1      -1.582   2.046   1.528  0.00  0.00    -0.356 N 
ATOM      3  C   UNL     1      -1.540   2.912   0.525  0.00  0.00    +0.048 A 
ATOM      4  C   UNL     1      -0.387   3.695   0.299  0.00  0.00    +0.026 A 
ATOM      5  C   UNL     1      -0.366   4.577  -0.735  0.00  0.00    +0.002 A 
ATOM      6  C   UNL     1      -1.457   4.731  -1.586  0.00  0.00    +0.001 A 
ATOM      7  C   UNL     1      -2.598   4.006  -1.422  0.00  0.00    +0.013 A 
ATOM      8  C   UNL     1      -2.688   3.076  -0.372  0.00  0.00    +0.038 A 
ATOM      9  C   UNL     1      -3.861   2.316  -0.187  0.00  0.00    +0.128 C 
ATOM     10  N   UNL     1      -3.930   1.415   0.842  0.00  0.00    -0.204 N 
ATOM     11  N   UNL     1      -5.199   0.826   0.765  0.00  0.00    -0.249 N 
ATOM     12  C   UNL     1      -5.823   1.393  -0.291  0.00  0.00    +0.090 C 
ATOM     13  N   UNL     1      -5.025   2.270  -0.845  0.00  0.00    -0.332 N 
ATOM     14  H   UNL     1      -5.558   0.144   1.354  0.00  0.00    +0.171 HD
ATOM     15  H   UNL     1      -0.818   1.944   2.117  0.00  0.00    +0.162 HD
ATOM     16  H   UNL     1      -5.246   2.809  -1.621  0.00  0.00    +0.168 HD
ENDROOT
BRANCH   1  17
ATOM     17  S   UNL     1      -2.305  -0.504   1.679  0.00  0.00    -0.103 S 
BRANCH  17  18
ATOM     18  C   UNL     1      -1.697  -0.728  -0.015  0.00  0.00    +0.136 C 
BRANCH  18  19
ATOM     19  C   UNL     1      -2.864  -0.750  -0.969  0.00  0.00    +0.230 C 
ATOM     20  O   UNL     1      -3.979  -0.991  -0.557  0.00  0.00    -0.274 OA
ATOM     21  N   UNL     1      -2.668  -0.502  -2.279  0.00  0.00    -0.282 N 
ATOM     22  H   UNL     1      -1.791  -0.235  -2.596  0.00  0.00    +0.155 HD
BRANCH  21  23
ATOM     23  C   UNL     1      -3.731  -0.629  -3.182  0.00  0.00    +0.069 A 
ATOM     24  C   UNL     1      -4.844  -1.386  -2.844  0.00  0.00    +0.026 A 
ATOM     25  C   UNL     1      -5.891  -1.510  -3.737  0.00  0.00    +0.002 A 
ATOM     26  C   UNL     1      -5.832  -0.881  -4.967  0.00  0.00    +0.003 A 
ATOM     27  C   UNL     1      -4.724  -0.126  -5.308  0.00  0.00    +0.040 A 
ATOM     28  C   UNL     1      -3.675   0.007  -4.417  0.00  0.00    +0.144 A 
ATOM     29  F   UNL     1      -2.596   0.749  -4.748  0.00  0.00    -0.204 F 
ENDBRANCH  21  23
ENDBRANCH  18  19
BRANCH  18  31
ATOM     30  C   UNL     1       0.331  -1.974   0.745  0.00  0.00    +0.005 C 
ATOM     31  C   UNL     1      -0.934  -2.051  -0.112  0.00  0.00    +0.020 C 
ENDBRANCH  18  31
ENDBRANCH  17  18
ENDBRANCH   1  17
BRANCH  12  32
ATOM     32  C   UNL     1      -7.218   1.066  -0.758  0.00  0.00    +0.075 C 
BRANCH  32  33
ATOM     33  C   UNL     1      -8.220   1.982  -0.052  0.00  0.00    +0.042 C 
BRANCH  33  34
ATOM     34  C   UNL     1      -9.615   1.655  -0.519  0.00  0.00    -0.021 C 
ATOM     35  C   UNL     1     -10.507   0.847   0.058  0.00  0.00    +0.061 C 
ATOM     36  N   UNL     1     -11.652   0.807  -0.659  0.00  0.00    -0.159 NA
ATOM     37  N   UNL     1     -11.645   1.506  -1.675  0.00  0.00    -0.180 NA
ATOM     38  C   UNL     1     -10.335   2.175  -1.751  0.00  0.00    +0.153 C 
ATOM     39  C   UNL     1      -9.594   1.763  -3.024  0.00  0.00    +0.039 C 
ATOM     40  C   UNL     1     -10.269   0.082   1.334  0.00  0.00    +0.067 C 
ENDBRANCH  33  34
ENDBRANCH  32  33
ENDBRANCH  12  32
TORSDOF 8
