REMARK  Name = ZINC60346647
REMARK  9 active torsions:
REMARK  status: ('A' for Active; 'I' for Inactive)
REMARK    1  A    between atoms: C_1  and  C_2
REMARK    2  A    between atoms: C_2  and  C_25
REMARK    3  A    between atoms: N_5  and  C_9
REMARK    4  A    between atoms: C_9  and  C_10
REMARK    5  A    between atoms: N_12  and  C_13
REMARK    6  A    between atoms: N_12  and  C_18
REMARK    7  A    between atoms: C_13  and  C_14
REMARK    8  A    between atoms: C_14  and  C_15
REMARK    9  A    between atoms: C_18  and  C_19
REMARK                            x       y       z     vdW  Elec       q    Type
REMARK                         _______ _______ _______ _____ _____    ______ ____
ROOT
ATOM      1  C   UNL     1      -2.585  -3.391   1.260  0.00  0.00    +0.234 C 
ATOM      2  O   UNL     1      -1.707  -3.759   0.508  0.00  0.00    -0.274 OA
ATOM      3  N   UNL     1      -3.573  -4.239   1.608  0.00  0.00    -0.295 N 
ENDROOT
BRANCH   1   4
ATOM      4  C   UNL     1      -2.569  -1.986   1.805  0.00  0.00    +0.213 C 
BRANCH   4   9
ATOM      5  C   UNL     1      -0.019   1.526   0.010  0.00  0.00    +0.047 C 
ATOM      6  C   UNL     1       0.002  -0.004   0.002  0.00  0.00    +0.136 C 
ATOM      7  C   UNL     1      -1.403  -0.557   0.139  0.00  0.00    +0.251 C 
ATOM      8  O   UNL     1      -2.332  -0.392  -0.621  0.00  0.00    -0.272 OA
ATOM      9  N   UNL     1      -1.403  -1.272   1.282  0.00  0.00    -0.215 N 
ATOM     10  C   UNL     1      -0.206  -1.247   1.879  0.00  0.00    +0.310 C 
ATOM     11  O   UNL     1       0.040  -1.819   2.924  0.00  0.00    -0.252 OA
ATOM     12  N   UNL     1       0.695  -0.520   1.195  0.00  0.00    -0.281 N 
ATOM     13  H   UNL     1       1.621  -0.365   1.440  0.00  0.00    +0.152 HD
BRANCH   6  14
ATOM     14  C   UNL     1       0.657  -0.517  -1.255  0.00  0.00    -0.009 A 
ATOM     15  C   UNL     1       2.021  -0.736  -1.296  0.00  0.00    +0.014 A 
ATOM     16  C   UNL     1       2.579  -1.197  -2.442  0.00  0.00    +0.045 A 
ATOM     17  S   UNL     1       1.158  -1.337  -3.513  0.00  0.00    -0.105 S 
ATOM     18  C   UNL     1      -0.084  -0.776  -2.360  0.00  0.00    +0.051 A 
ENDBRANCH   6  14
ENDBRANCH   4   9
ENDBRANCH   1   4
BRANCH   3  19
ATOM     19  C   UNL     1      -4.633  -3.794   2.516  0.00  0.00    +0.117 C 
BRANCH  19  20
ATOM     20  C   UNL     1      -5.782  -3.193   1.704  0.00  0.00    +0.114 C 
BRANCH  20  21
ATOM     21  C   UNL     1      -6.872  -2.736   2.639  0.00  0.00    +0.212 C 
ATOM     22  O   UNL     1      -6.743  -2.877   3.836  0.00  0.00    -0.276 OA
ATOM     23  N   UNL     1      -7.991  -2.170   2.144  0.00  0.00    -0.329 N 
ATOM     24  H   UNL     1      -8.094  -2.057   1.186  0.00  0.00    +0.145 HD
ATOM     25  H   UNL     1      -8.693  -1.876   2.745  0.00  0.00    +0.145 HD
ENDBRANCH  20  21
ENDBRANCH  19  20
ENDBRANCH   3  19
BRANCH   3  26
ATOM     26  C   UNL     1      -3.588  -5.604   1.077  0.00  0.00    +0.143 C 
BRANCH  26  27
ATOM     27  C   UNL     1      -2.825  -6.512   2.007  0.00  0.00    -0.030 A 
ATOM     28  C   UNL     1      -1.467  -6.699   1.829  0.00  0.00    +0.005 A 
ATOM     29  C   UNL     1      -0.767  -7.533   2.682  0.00  0.00    +0.000 A 
ATOM     30  C   UNL     1      -1.425  -8.178   3.712  0.00  0.00    +0.000 A 
ATOM     31  C   UNL     1      -2.783  -7.990   3.890  0.00  0.00    +0.000 A 
ATOM     32  C   UNL     1      -3.482  -7.154   3.040  0.00  0.00    +0.005 A 
ENDBRANCH  26  27
ENDBRANCH   3  26
TORSDOF 8
