REMARK  Name = ZINC16080498
REMARK  14 active torsions:
REMARK  status: ('A' for Active; 'I' for Inactive)
REMARK    1  A    between atoms: C_1  and  C_2
REMARK    2  A    between atoms: C_2  and  C_3
REMARK    3  A    between atoms: C_3  and  N_74
REMARK    4  A    between atoms: C_6  and  N_9
REMARK    5  A    between atoms: N_9  and  C_10
REMARK    6  A    between atoms: N_9  and  S_25
REMARK    7  A    between atoms: C_17  and  C_20
REMARK    8  A    between atoms: C_20  and  C_21
REMARK    9  A    between atoms: C_20  and  C_22
REMARK   10  A    between atoms: C_20  and  C_23
REMARK   11  A    between atoms: C_23  and  C_24
REMARK   12  A    between atoms: S_25  and  C_28
REMARK   13  A    between atoms: C_31  and  O_34
REMARK   14  A    between atoms: O_34  and  C_35
REMARK                            x       y       z     vdW  Elec       q    Type
REMARK                         _______ _______ _______ _____ _____    ______ ____
ROOT
ATOM      1  N   UNL     1       0.869   5.462   0.024  0.00  0.00    -0.200 N 
ENDROOT
BRANCH   1   2
ATOM      2  C   UNL     1       0.669   4.092   0.226  0.00  0.00    +0.052 A 
ATOM      3  C   UNL     1      -0.280   3.409  -0.534  0.00  0.00    +0.027 A 
ATOM      4  C   UNL     1      -0.492   2.062  -0.343  0.00  0.00    +0.028 A 
ATOM      5  C   UNL     1       0.250   1.368   0.607  0.00  0.00    +0.047 A 
ATOM      6  C   UNL     1       1.208   2.053   1.375  0.00  0.00    +0.002 A 
ATOM      7  C   UNL     1       1.413   3.420   1.178  0.00  0.00    +0.034 A 
ATOM      8  C   UNL     1       1.799   1.055   2.269  0.00  0.00    +0.031 A 
ATOM      9  C   UNL     1       1.197  -0.116   2.006  0.00  0.00    +0.023 A 
ATOM     10  N   UNL     1       0.268   0.050   1.015  0.00  0.00    -0.357 N 
ATOM     11  H   UNL     1      -0.294  -0.653   0.654  0.00  0.00    +0.166 HD
BRANCH   9  12
ATOM     12  C   UNL     1       1.500  -1.419   2.698  0.00  0.00    +0.005 C 
ATOM     13  C   UNL     1       2.970  -1.784   2.478  0.00  0.00    +0.017 C 
ATOM     14  C   UNL     1       1.230  -1.276   4.197  0.00  0.00    +0.017 C 
BRANCH  12  15
ATOM     15  C   UNL     1       0.609  -2.522   2.122  0.00  0.00    +0.009 C 
ATOM     16  C   UNL     1       0.917  -3.846   2.824  0.00  0.00    +0.005 C 
ENDBRANCH  12  15
ENDBRANCH   9  12
ENDBRANCH   1   2
BRANCH   1  19
ATOM     17  C   UNL     1      -2.504   7.182   0.163  0.00  0.00    -0.077 C 
ATOM     18  C   UNL     1      -1.430   6.217  -0.342  0.00  0.00    +0.005 C 
ATOM     19  C   UNL     1      -0.145   6.423   0.464  0.00  0.00    +0.095 C 
ATOM     20  C   UNL     1      -0.442   6.208   1.950  0.00  0.00    +0.005 C 
ATOM     21  C   UNL     1      -1.547   7.173   2.389  0.00  0.00    -0.077 C 
ATOM     22  N   UNL     1      -2.763   6.906   1.592  0.00  0.00    +0.380 N 
ATOM     23  H   UNL     1      -3.021   5.918   1.699  0.00  0.00    -0.082 HD
BRANCH  22  24
ATOM     24  C   UNL     1      -3.877   7.748   2.075  0.00  0.00    -0.079 C 
BRANCH  24  26
ATOM     25  C   UNL     1      -5.119   8.503   4.107  0.00  0.00    +0.002 C 
ATOM     26  C   UNL     1      -3.950   7.656   3.601  0.00  0.00    -0.022 C 
ENDBRANCH  24  26
ENDBRANCH  22  24
ENDBRANCH   1  19
BRANCH   1  27
ATOM     27  S   UNL     1       2.253   5.997  -0.714  0.00  0.00    +0.075 S 
ATOM     28  O   UNL     1       2.514   7.294  -0.195  0.00  0.00    -0.150 OA
ATOM     29  O   UNL     1       3.195   4.938  -0.626  0.00  0.00    -0.150 OA
BRANCH  27  30
ATOM     30  C   UNL     1       1.885   6.204  -2.424  0.00  0.00    +0.109 A 
ATOM     31  C   UNL     1       2.074   5.153  -3.303  0.00  0.00    +0.032 A 
ATOM     32  C   UNL     1       1.781   5.310  -4.643  0.00  0.00    +0.047 A 
ATOM     33  C   UNL     1       1.308   6.528  -5.110  0.00  0.00    +0.120 A 
ATOM     34  C   UNL     1       1.124   7.582  -4.228  0.00  0.00    +0.047 A 
ATOM     35  C   UNL     1       1.413   7.418  -2.887  0.00  0.00    +0.032 A 
BRANCH  33  36
ATOM     36  O   UNL     1       1.024   6.687  -6.430  0.00  0.00    -0.495 OA
ATOM     37  C   UNL     1       1.237   5.558  -7.280  0.00  0.00    +0.277 C 
ENDBRANCH  33  36
ENDBRANCH  27  30
ENDBRANCH   1  27
TORSDOF 9
