REMARK  Name = ZINC16710384
REMARK  10 active torsions:
REMARK  status: ('A' for Active; 'I' for Inactive)
REMARK    1  A    between atoms: C_1  and  C_2
REMARK    2  A    between atoms: N_5  and  S_11
REMARK    3  A    between atoms: C_7  and  C_10
REMARK    4  A    between atoms: S_11  and  C_14
REMARK    5  A    between atoms: C_17  and  C_20
REMARK    6  A    between atoms: C_20  and  O_22
REMARK    7  A    between atoms: O_22  and  C_23
REMARK    8  A    between atoms: C_23  and  C_25
REMARK    9  A    between atoms: C_23  and  C_26
REMARK   10  A    between atoms: N_28  and  C_29
REMARK                            x       y       z     vdW  Elec       q    Type
REMARK                         _______ _______ _______ _____ _____    ______ ____
ROOT
ATOM      1  C   UNL     1      -3.678  -7.410  -1.429  0.00  0.00    +0.106 A 
ATOM      2  C   UNL     1      -4.788  -6.819  -2.006  0.00  0.00    +0.029 A 
ATOM      3  C   UNL     1      -5.000  -5.462  -1.871  0.00  0.00    +0.017 A 
ATOM      4  C   UNL     1      -4.091  -4.686  -1.150  0.00  0.00    +0.059 A 
ATOM      5  C   UNL     1      -2.970  -5.288  -0.575  0.00  0.00    +0.017 A 
ATOM      6  C   UNL     1      -2.774  -6.646  -0.713  0.00  0.00    +0.029 A 
ENDROOT
BRANCH   1   7
ATOM      7  S   UNL     1      -3.417  -9.143  -1.605  0.00  0.00    +0.061 S 
ATOM      8  O   UNL     1      -2.599  -9.544  -0.514  0.00  0.00    -0.153 OA
ATOM      9  O   UNL     1      -4.689  -9.723  -1.857  0.00  0.00    -0.153 OA
BRANCH   7  13
ATOM     10  C   UNL     1       1.004  -8.544  -4.094  0.00  0.00    +0.039 C 
ATOM     11  C   UNL     1      -0.517  -8.410  -3.992  0.00  0.00    +0.131 C 
ATOM     12  C   UNL     1      -1.046  -9.376  -2.926  0.00  0.00    +0.140 C 
ATOM     13  N   UNL     1      -2.517  -9.365  -2.978  0.00  0.00    -0.172 NA
ATOM     14  C   UNL     1      -3.164  -9.563  -4.284  0.00  0.00    +0.140 C 
ATOM     15  C   UNL     1      -2.532  -8.583  -5.286  0.00  0.00    +0.131 C 
ATOM     16  O   UNL     1      -1.110  -8.731  -5.253  0.00  0.00    -0.371 OA
ATOM     17  C   UNL     1      -2.905  -7.149  -4.907  0.00  0.00    +0.039 C 
ENDBRANCH   7  13
ENDBRANCH   1   7
BRANCH   4  18
ATOM     18  C   UNL     1      -4.311  -3.232  -1.001  0.00  0.00    +0.340 C 
ATOM     19  O   UNL     1      -5.284  -2.710  -1.507  0.00  0.00    -0.245 OA
BRANCH  18  20
ATOM     20  O   UNL     1      -3.432  -2.486  -0.305  0.00  0.00    -0.449 OA
BRANCH  20  21
ATOM     21  C   UNL     1      -3.711  -1.065  -0.200  0.00  0.00    +0.259 C 
ATOM     22  C   UNL     1      -4.564  -0.803   1.043  0.00  0.00    +0.062 C 
BRANCH  21  23
ATOM     23  C   UNL     1      -2.415  -0.305  -0.089  0.00  0.00    +0.258 C 
ATOM     24  O   UNL     1      -1.359  -0.902  -0.097  0.00  0.00    -0.271 OA
ATOM     25  N   UNL     1      -2.428   1.039   0.020  0.00  0.00    -0.280 N 
ATOM     26  H   UNL     1      -3.272   1.510   0.107  0.00  0.00    +0.155 HD
BRANCH  25  27
ATOM     27  C   UNL     1      -1.224   1.755   0.006  0.00  0.00    +0.069 A 
ATOM     28  C   UNL     1      -0.102   1.217  -0.610  0.00  0.00    +0.027 A 
ATOM     29  C   UNL     1       1.082   1.927  -0.626  0.00  0.00    +0.022 A 
ATOM     30  C   UNL     1       1.154   3.172  -0.025  0.00  0.00    +0.044 A 
ATOM     31  C   UNL     1       0.040   3.709   0.594  0.00  0.00    +0.060 A 
ATOM     32  C   UNL     1      -1.149   3.003   0.614  0.00  0.00    +0.146 A 
ATOM     33  F   UNL     1      -2.238   3.528   1.218  0.00  0.00    -0.203 F 
ATOM     34 CL   UNL     1       2.645   4.060  -0.048  0.00  0.00    -0.083 Cl
ENDBRANCH  25  27
ENDBRANCH  21  23
ENDBRANCH  20  21
ENDBRANCH  18  20
ENDBRANCH   4  18
TORSDOF 7
