REMARK  Name = ZINC42500626
REMARK  9 active torsions:
REMARK  status: ('A' for Active; 'I' for Inactive)
REMARK    1  A    between atoms: C_1  and  N_2
REMARK    2  A    between atoms: N_2  and  C_3
REMARK    3  A    between atoms: N_2  and  C_10
REMARK    4  A    between atoms: C_3  and  C_4
REMARK    5  A    between atoms: C_4  and  C_6
REMARK    6  A    between atoms: C_4  and  O_9
REMARK    7  A    between atoms: C_6  and  O_7
REMARK    8  A    between atoms: O_7  and  C_8
REMARK    9  A    between atoms: C_19  and  N_20
REMARK                            x       y       z     vdW  Elec       q    Type
REMARK                         _______ _______ _______ _____ _____    ______ ____
ROOT
ATOM      1  C   UNL     1       0.000  -0.693  -1.207  0.00  0.00    +0.061 A 
ATOM      2  C   UNL     1      -1.212  -1.066  -1.831  0.00  0.00    +0.022 A 
ATOM      3  C   UNL     1      -2.453  -0.754  -1.258  0.00  0.00    +0.027 A 
ATOM      4  C   UNL     1      -3.600  -1.130  -1.890  0.00  0.00    +0.019 A 
ATOM      5  C   UNL     1      -3.556  -1.820  -3.100  0.00  0.00    +0.017 A 
ATOM      6  C   UNL     1      -2.368  -2.137  -3.684  0.00  0.00    +0.027 A 
ATOM      7  C   UNL     1      -1.163  -1.766  -3.061  0.00  0.00    +0.048 A 
ATOM      8  N   UNL     1       0.017  -2.066  -3.615  0.00  0.00    -0.359 N 
ATOM      9  C   UNL     1       1.152  -1.727  -3.049  0.00  0.00    +0.107 A 
ATOM     10  C   UNL     1       1.190  -1.032  -1.841  0.00  0.00    +0.063 A 
ATOM     11 BR   UNL     1      -5.274  -0.711  -1.115  0.00  0.00    -0.050 Br
ATOM     12  H   UNL     1       0.035  -2.546  -4.458  0.00  0.00    +0.165 HD
ENDROOT
BRANCH  10  13
ATOM     13  N   UNL     1       2.421  -0.681  -1.268  0.00  0.00    -0.355 N 
ATOM     14  H   UNL     1       2.443  -0.200  -0.425  0.00  0.00    +0.142 HD
ATOM     15  H   UNL     1       3.249  -0.919  -1.713  0.00  0.00    +0.142 HD
ENDBRANCH  10  13
BRANCH   1  17
ATOM     16  C   UNL     1      -0.018   1.461   0.010  0.00  0.00    +0.129 C 
ATOM     17  N   UNL     1       0.002  -0.004   0.002  0.00  0.00    -0.328 N 
BRANCH  17  18
ATOM     18  C   UNL     1       0.024  -0.743   1.267  0.00  0.00    +0.138 C 
BRANCH  18  19
ATOM     19  C   UNL     1      -1.411  -1.020   1.720  0.00  0.00    +0.157 C 
BRANCH  19  20
ATOM     20  O   UNL     1      -2.099   0.218   1.905  0.00  0.00    -0.388 OA
ATOM     21  H   UNL     1      -1.697   0.797   2.567  0.00  0.00    +0.210 HD
ENDBRANCH  19  20
BRANCH  19  22
ATOM     22  C   UNL     1      -1.387  -1.792   3.041  0.00  0.00    +0.192 C 
BRANCH  22  23
ATOM     23  O   UNL     1      -2.721  -2.152   3.406  0.00  0.00    -0.380 OA
ATOM     24  C   UNL     1      -2.812  -2.881   4.632  0.00  0.00    +0.194 C 
ENDBRANCH  22  23
ENDBRANCH  19  22
ENDBRANCH  18  19
ENDBRANCH  17  18
ENDBRANCH   1  17
TORSDOF 7
