REMARK  Name = ZINC67460718
REMARK  6 active torsions:
REMARK  status: ('A' for Active; 'I' for Inactive)
REMARK    1  A    between atoms: C_1  and  N_2
REMARK    2  A    between atoms: C_7  and  N_12
REMARK    3  A    between atoms: N_15  and  C_16
REMARK    4  A    between atoms: C_16  and  C_17
REMARK    5  A    between atoms: N_22  and  C_23
REMARK    6  A    between atoms: C_23  and  C_24
REMARK                            x       y       z     vdW  Elec       q    Type
REMARK                         _______ _______ _______ _____ _____    ______ ____
ROOT
ATOM      1  N   UNL     1      -1.318  -3.984  -1.262  0.00  0.00    -0.292 N 
ATOM      2  C   UNL     1      -0.797  -4.851  -0.371  0.00  0.00    +0.300 C 
ATOM      3  O   UNL     1       0.355  -4.728  -0.005  0.00  0.00    -0.253 OA
ATOM      4  N   UNL     1      -1.555  -5.855   0.114  0.00  0.00    -0.301 N 
ATOM      5  H   UNL     1      -2.237  -4.082  -1.554  0.00  0.00    +0.151 HD
ATOM      6  H   UNL     1      -2.475  -5.953  -0.179  0.00  0.00    +0.150 HD
ENDROOT
BRANCH   1  13
ATOM      7  C   UNL     1      -0.823   1.799  -0.101  0.00  0.00    +0.172 C 
ATOM      8  N   UNL     1      -0.687   0.340  -0.135  0.00  0.00    -0.271 N 
ATOM      9  C   UNL     1      -0.685  -0.429  -1.236  0.00  0.00    +0.044 A 
ATOM     10  C   UNL     1      -0.539  -1.720  -0.842  0.00  0.00    +0.013 A 
ATOM     11  C   UNL     1      -0.446  -1.737   0.548  0.00  0.00    +0.140 A 
ATOM     12  N   UNL     1      -0.528  -0.501   0.977  0.00  0.00    -0.179 NA
ATOM     13  C   UNL     1      -0.494  -2.893  -1.789  0.00  0.00    +0.108 C 
ATOM     14  C   UNL     1      -1.043  -2.440  -3.147  0.00  0.00    +0.027 C 
ATOM     15  C   UNL     1      -0.349  -1.144  -3.573  0.00  0.00    +0.008 C 
ATOM     16  C   UNL     1      -0.817   0.007  -2.674  0.00  0.00    +0.055 C 
ENDBRANCH   1  13
BRANCH   4  17
ATOM     17  C   UNL     1      -0.990  -6.798   1.082  0.00  0.00    +0.090 C 
BRANCH  17  18
ATOM     18  C   UNL     1      -2.051  -7.830   1.468  0.00  0.00    -0.051 C 
ATOM     19  C   UNL     1      -1.523  -8.724   2.610  0.00  0.00    -0.016 C 
ATOM     20  C   UNL     1      -2.128  -8.066   3.877  0.00  0.00    -0.020 C 
ATOM     21  C   UNL     1      -3.509  -7.595   3.356  0.00  0.00    -0.078 C 
ATOM     22  N   UNL     1      -3.258  -7.147   1.966  0.00  0.00    +0.383 N 
ATOM     23  H   UNL     1      -3.114  -6.148   1.952  0.00  0.00    -0.081 HD
BRANCH  22  24
ATOM     24  C   UNL     1      -4.407  -7.491   1.118  0.00  0.00    -0.075 C 
BRANCH  24  25
ATOM     25  C   UNL     1      -5.625  -6.673   1.552  0.00  0.00    -0.028 C 
ATOM     26  C   UNL     1      -6.854  -7.130   0.763  0.00  0.00    +0.002 C 
ATOM     27  C   UNL     1      -8.072  -6.312   1.198  0.00  0.00    +0.000 C 
ATOM     28  C   UNL     1      -7.814  -4.829   0.925  0.00  0.00    +0.000 C 
ATOM     29  C   UNL     1      -6.585  -4.372   1.714  0.00  0.00    +0.000 C 
ATOM     30  C   UNL     1      -5.367  -5.190   1.280  0.00  0.00    +0.002 C 
ENDBRANCH  24  25
ENDBRANCH  22  24
ENDBRANCH  17  18
ENDBRANCH   4  17
TORSDOF 5
