REMARK  Name = ZINC20211220
REMARK  14 active torsions:
REMARK  status: ('A' for Active; 'I' for Inactive)
REMARK    1  A    between atoms: C_1  and  C_2
REMARK    2  A    between atoms: C_3  and  O_38
REMARK    3  A    between atoms: C_6  and  C_10
REMARK    4  A    between atoms: C_7  and  O_8
REMARK    5  A    between atoms: O_8  and  C_9
REMARK    6  A    between atoms: C_10  and  N_11
REMARK    7  A    between atoms: N_11  and  C_12
REMARK    8  A    between atoms: C_15  and  C_26
REMARK    9  A    between atoms: N_17  and  C_19
REMARK   10  A    between atoms: C_19  and  C_20
REMARK   11  A    between atoms: N_28  and  C_29
REMARK   12  A    between atoms: C_29  and  C_30
REMARK   13  A    between atoms: C_30  and  C_31
REMARK   14  A    between atoms: O_38  and  C_39
REMARK                            x       y       z     vdW  Elec       q    Type
REMARK                         _______ _______ _______ _____ _____    ______ ____
ROOT
ATOM      1  C   UNL     1      -1.099   5.278  -3.485  0.00  0.00    -0.055 C 
ATOM      2  C   UNL     1       0.436   5.391  -3.626  0.00  0.00    +0.014 C 
ATOM      3  C   UNL     1       0.935   5.158  -2.178  0.00  0.00    +0.142 C 
ATOM      4  N   UNL     1      -0.090   5.845  -1.350  0.00  0.00    -0.289 NA
ATOM      5  C   UNL     1      -1.388   5.559  -1.998  0.00  0.00    +0.070 C 
ENDROOT
BRANCH   3   6
ATOM      6  C   UNL     1       2.290   5.785  -1.975  0.00  0.00    +0.230 C 
ATOM      7  O   UNL     1       2.417   6.721  -1.214  0.00  0.00    -0.274 OA
ATOM      8  N   UNL     1       3.361   5.306  -2.638  0.00  0.00    -0.314 N 
ATOM      9  H   UNL     1       3.246   4.456  -3.327  0.00  0.00    +0.149 HD
BRANCH   8  10
ATOM     10  C   UNL     1       4.678   5.915  -2.441  0.00  0.00    +0.109 C 
BRANCH  10  11
ATOM     11  C   UNL     1       5.712   5.188  -3.304  0.00  0.00    +0.056 C 
BRANCH  11  12
ATOM     12  C   UNL     1       7.067   5.816  -3.101  0.00  0.00    -0.011 A 
ATOM     13  C   UNL     1       7.516   6.788  -3.974  0.00  0.00    +0.006 A 
ATOM     14  C   UNL     1       8.757   7.368  -3.785  0.00  0.00    +0.000 A 
ATOM     15  C   UNL     1       9.554   6.968  -2.728  0.00  0.00    +0.003 A 
ATOM     16  C   UNL     1       9.109   5.992  -1.857  0.00  0.00    +0.038 A 
ATOM     17  C   UNL     1       7.864   5.414  -2.043  0.00  0.00    +0.127 A 
ATOM     18  F   UNL     1       7.428   4.460  -1.192  0.00  0.00    -0.205 F 
ENDBRANCH  11  12
ENDBRANCH  10  11
ENDBRANCH   8  10
ENDBRANCH   3   6
BRANCH   1  19
ATOM     19  N   UNL     1      -1.766   6.277  -4.332  0.00  0.00    +0.385 N 
ATOM     20  H   UNL     1      -1.201   6.376  -5.270  0.00  0.00    -0.085 HD
ATOM     21  H   UNL     1      -1.770   7.241  -3.803  0.00  0.00    -0.085 HD
BRANCH  19  22
ATOM     22  C   UNL     1      -3.147   5.876  -4.631  0.00  0.00    -0.043 C 
BRANCH  22  28
ATOM     23  C   UNL     1      -3.869   7.935  -9.144  0.00  0.00    +0.051 C 
ATOM     24  C   UNL     1      -4.142   7.907  -7.662  0.00  0.00    +0.033 A 
ATOM     25  C   UNL     1      -4.992   8.844  -7.095  0.00  0.00    +0.126 A 
ATOM     26  C   UNL     1      -5.242   8.817  -5.731  0.00  0.00    +0.046 A 
ATOM     27  C   UNL     1      -4.648   7.854  -4.938  0.00  0.00    +0.009 A 
ATOM     28  C   UNL     1      -3.796   6.922  -5.500  0.00  0.00    -0.022 A 
ATOM     29  C   UNL     1      -3.544   6.945  -6.864  0.00  0.00    +0.128 A 
BRANCH  29  30
ATOM     30  O   UNL     1      -2.710   6.025  -7.417  0.00  0.00    -0.495 OA
ATOM     31  C   UNL     1      -3.300   4.808  -7.877  0.00  0.00    +0.277 C 
ENDBRANCH  29  30
BRANCH  25  32
ATOM     32  O   UNL     1      -5.580   9.789  -7.875  0.00  0.00    -0.495 OA
ATOM     33  C   UNL     1      -6.444  10.722  -7.224  0.00  0.00    +0.277 C 
ENDBRANCH  25  32
ENDBRANCH  22  28
ENDBRANCH  19  22
ENDBRANCH   1  19
BRANCH   4  34
ATOM     34  C   UNL     1      -0.070   5.347   0.032  0.00  0.00    +0.120 C 
BRANCH  34  35
ATOM     35  C   UNL     1      -0.050   3.840   0.023  0.00  0.00    -0.033 A 
ATOM     36  C   UNL     1       1.156   3.165   0.008  0.00  0.00    +0.005 A 
ATOM     37  C   UNL     1       1.175   1.783   0.000  0.00  0.00    +0.000 A 
ATOM     38  C   UNL     1      -0.013   1.076   0.008  0.00  0.00    +0.000 A 
ATOM     39  C   UNL     1      -1.219   1.751   0.017  0.00  0.00    +0.000 A 
ATOM     40  C   UNL     1      -1.238   3.133   0.029  0.00  0.00    +0.005 A 
ENDBRANCH  34  35
ENDBRANCH   4  34
TORSDOF 11
