REMARK  Name = ZINC66326325
REMARK  5 active torsions:
REMARK  status: ('A' for Active; 'I' for Inactive)
REMARK    1  A    between atoms: C_3  and  N_22
REMARK    2  A    between atoms: C_4  and  N_19
REMARK    3  A    between atoms: C_6  and  C_7
REMARK    4  A    between atoms: N_9  and  N_10
REMARK    5  A    between atoms: N_10  and  C_11
REMARK                            x       y       z     vdW  Elec       q    Type
REMARK                         _______ _______ _______ _____ _____    ______ ____
ROOT
ATOM      1  C   UNL     1      -0.017   1.393   0.010  0.00  0.00    +0.015 A 
ATOM      2  C   UNL     1       1.166   2.096   0.002  0.00  0.00    +0.026 A 
ATOM      3  C   UNL     1       2.381   1.417  -0.013  0.00  0.00    +0.060 A 
ATOM      4  C   UNL     1       2.403   0.025  -0.021  0.00  0.00    +0.148 A 
ATOM      5  C   UNL     1       1.224  -0.684  -0.014  0.00  0.00    +0.047 A 
ATOM      6  C   UNL     1       0.002  -0.004   0.002  0.00  0.00    +0.040 A 
ENDROOT
BRANCH   3   7
ATOM      7  N   UNL     1       3.575   2.130  -0.022  0.00  0.00    -0.328 N 
ATOM      8  C   UNL     1       4.295   2.581  -1.222  0.00  0.00    +0.105 C 
ATOM      9  C   UNL     1       5.572   3.304  -0.745  0.00  0.00    +0.020 C 
ATOM     10  C   UNL     1       5.787   2.727   0.679  0.00  0.00    +0.020 C 
ATOM     11  C   UNL     1       4.325   2.564   1.171  0.00  0.00    +0.105 C 
ENDBRANCH   3   7
BRANCH   6  12
ATOM     12  C   UNL     1      -1.264  -0.760   0.011  0.00  0.00    +0.260 C 
ATOM     13  O   UNL     1      -1.246  -1.976   0.004  0.00  0.00    -0.269 OA
ATOM     14  N   UNL     1      -2.441  -0.104   0.026  0.00  0.00    -0.232 N 
ATOM     15  H   UNL     1      -2.456   0.866   0.031  0.00  0.00    +0.173 HD
BRANCH  14  16
ATOM     16  N   UNL     1      -3.644  -0.822   0.034  0.00  0.00    -0.261 N 
ATOM     17  H   UNL     1      -3.630  -1.792   0.029  0.00  0.00    +0.170 HD
BRANCH  16  18
ATOM     18  C   UNL     1      -4.867  -0.140   0.050  0.00  0.00    +0.080 A 
ATOM     19  C   UNL     1      -4.888   1.247   0.051  0.00  0.00    +0.030 A 
ATOM     20  C   UNL     1      -6.096   1.919   0.067  0.00  0.00    +0.040 A 
ATOM     21  C   UNL     1      -7.285   1.209   0.080  0.00  0.00    +0.126 A 
ATOM     22  C   UNL     1      -7.267  -0.176   0.079  0.00  0.00    +0.078 A 
ATOM     23  C   UNL     1      -6.061  -0.852   0.058  0.00  0.00    +0.148 A 
ATOM     24  F   UNL     1      -6.043  -2.203   0.051  0.00  0.00    -0.203 F 
ATOM     25  F   UNL     1      -8.464   1.868   0.096  0.00  0.00    -0.205 F 
ENDBRANCH  16  18
ENDBRANCH  14  16
ENDBRANCH   6  12
BRANCH   4  26
ATOM     26  N   UNL     1       3.697  -0.694  -0.038  0.00  0.00    +0.058 N 
ATOM     27  O   UNL     1       3.717  -1.903  -0.045  0.00  0.00    -0.126 OA
ATOM     28  O   UNL     1       4.734  -0.072  -0.045  0.00  0.00    -0.126 OA
ENDBRANCH   4  26
TORSDOF 5
