REMARK  Name = ZINC06196826
REMARK  10 active torsions:
REMARK  status: ('A' for Active; 'I' for Inactive)
REMARK    1  A    between atoms: C_1  and  C_2
REMARK    2  A    between atoms: C_2  and  O_3
REMARK    3  A    between atoms: O_3  and  C_4
REMARK    4  A    between atoms: C_11  and  C_16
REMARK    5  A    between atoms: C_16  and  C_18
REMARK    6  A    between atoms: C_16  and  N_75
REMARK    7  A    between atoms: N_22  and  C_23
REMARK    8  A    between atoms: C_23  and  C_24
REMARK    9  A    between atoms: C_32  and  C_35
REMARK   10  A    between atoms: C_35  and  C_36
REMARK                            x       y       z     vdW  Elec       q    Type
REMARK                         _______ _______ _______ _____ _____    ______ ____
ROOT
ATOM      1  C   UNL     1       2.849   4.724   1.887  0.00  0.00    +0.039 C 
ENDROOT
BRANCH   1   9
ATOM      2  C   UNL     1       4.422  -0.145   5.386  0.00  0.00    +0.121 A 
ATOM      3  C   UNL     1       3.834   0.319   6.561  0.00  0.00    +0.047 A 
ATOM      4  C   UNL     1       3.181   1.531   6.587  0.00  0.00    +0.030 A 
ATOM      5  C   UNL     1       3.105   2.305   5.434  0.00  0.00    +0.049 A 
ATOM      6  C   UNL     1       3.697   1.840   4.245  0.00  0.00    +0.002 A 
ATOM      7  C   UNL     1       4.358   0.607   4.231  0.00  0.00    +0.055 A 
ATOM      8  C   UNL     1       3.605   2.663   3.037  0.00  0.00    +0.017 A 
ATOM      9  C   UNL     1       2.958   3.852   3.111  0.00  0.00    +0.011 A 
ATOM     10  C   UNL     1       2.380   4.272   4.327  0.00  0.00    +0.251 A 
ATOM     11  O   UNL     1       1.798   5.343   4.370  0.00  0.00    -0.268 OA
ATOM     12  N   UNL     1       2.455   3.522   5.441  0.00  0.00    -0.322 N 
ATOM     13  H   UNL     1       2.034   3.852   6.286  0.00  0.00    +0.169 HD
BRANCH   2  14
ATOM     14  O   UNL     1       5.062  -1.344   5.378  0.00  0.00    -0.492 OA
BRANCH  14  16
ATOM     15  C   UNL     1       5.849  -3.386   6.404  0.00  0.00    +0.048 C 
ATOM     16  C   UNL     1       5.092  -2.072   6.607  0.00  0.00    +0.225 C 
ENDBRANCH  14  16
ENDBRANCH   2  14
ENDBRANCH   1   9
BRANCH   1  22
ATOM     17  C   UNL     1       4.708   5.976   2.801  0.00  0.00    -0.077 C 
ATOM     18  C   UNL     1       5.162   7.372   3.235  0.00  0.00    -0.015 C 
ATOM     19  C   UNL     1       5.198   8.294   2.014  0.00  0.00    -0.010 C 
ATOM     20  C   UNL     1       3.810   8.328   1.368  0.00  0.00    -0.015 C 
ATOM     21  C   UNL     1       3.395   6.904   0.988  0.00  0.00    -0.077 C 
ATOM     22  N   UNL     1       3.356   6.073   2.210  0.00  0.00    +0.389 N 
ATOM     23  H   UNL     1       2.726   6.512   2.891  0.00  0.00    -0.080 HD
BRANCH  19  24
ATOM     24  C   UNL     1       5.592   9.706   2.451  0.00  0.00    +0.038 C 
BRANCH  24  25
ATOM     25  C   UNL     1       7.006   9.694   2.974  0.00  0.00    -0.047 A 
ATOM     26  C   UNL     1       7.244   9.467   4.317  0.00  0.00    +0.003 A 
ATOM     27  C   UNL     1       8.541   9.451   4.796  0.00  0.00    +0.000 A 
ATOM     28  C   UNL     1       9.598   9.672   3.933  0.00  0.00    +0.000 A 
ATOM     29  C   UNL     1       9.360   9.904   2.592  0.00  0.00    +0.000 A 
ATOM     30  C   UNL     1       8.063   9.915   2.112  0.00  0.00    +0.003 A 
ENDBRANCH  24  25
ENDBRANCH  19  24
ENDBRANCH   1  22
BRANCH   1  31
ATOM     31  C   UNL     1       1.403   4.835   1.476  0.00  0.00    +0.143 A 
ATOM     32  N   UNL     1       0.475   5.550   2.063  0.00  0.00    -0.115 NA
ATOM     33  N   UNL     1      -0.626   5.381   1.416  0.00  0.00    -0.023 NA
ATOM     34  N   UNL     1      -0.424   4.581   0.428  0.00  0.00    -0.044 NA
ATOM     35  N   UNL     1       0.814   4.218   0.434  0.00  0.00    -0.228 N 
BRANCH  35  36
ATOM     36  C   UNL     1       1.459   3.310  -0.517  0.00  0.00    +0.178 C 
BRANCH  36  37
ATOM     37  C   UNL     1       1.358   1.873  -0.001  0.00  0.00    +0.140 C 
ATOM     38  C   UNL     1       2.044   0.890  -0.983  0.00  0.00    +0.035 C 
ATOM     39  C   UNL     1       1.318  -0.441  -0.670  0.00  0.00    +0.031 C 
ATOM     40  C   UNL     1       0.002  -0.004   0.002  0.00  0.00    +0.160 C 
ATOM     41  O   UNL     1      -0.017   1.433   0.010  0.00  0.00    -0.375 OA
ENDBRANCH  36  37
ENDBRANCH  35  36
ENDBRANCH   1  31
TORSDOF 9
