REMARK  Name = ZINC34846994
REMARK  13 active torsions:
REMARK  status: ('A' for Active; 'I' for Inactive)
REMARK    1  A    between atoms: C_1  and  C_2
REMARK    2  A    between atoms: C_2  and  C_3
REMARK    3  A    between atoms: C_3  and  C_5
REMARK    4  A    between atoms: C_3  and  N_6
REMARK    5  A    between atoms: C_7  and  C_33
REMARK    6  A    between atoms: C_15  and  C_21
REMARK    7  A    between atoms: N_23  and  C_24
REMARK    8  A    between atoms: C_27  and  C_30
REMARK    9  A    between atoms: C_30  and  C_31
REMARK   10  A    between atoms: C_30  and  C_32
REMARK   11  A    between atoms: N_35  and  C_36
REMARK   12  A    between atoms: C_41  and  C_46
REMARK   13  A    between atoms: C_43  and  C_45
REMARK                            x       y       z     vdW  Elec       q    Type
REMARK                         _______ _______ _______ _____ _____    ______ ____
ROOT
ATOM      1  N   UNL     1      -2.722  -0.385  -1.041  0.00  0.00    -0.284 N 
ATOM      2  C   UNL     1      -3.901   0.511  -1.258  0.00  0.00    +0.199 C 
ATOM      3  C   UNL     1      -4.301   0.162  -2.658  0.00  0.00    +0.127 C 
ATOM      4  C   UNL     1      -4.932  -1.215  -2.765  0.00  0.00    +0.009 C 
ATOM      5  C   UNL     1      -5.236  -1.373  -4.045  0.00  0.00    +0.004 C 
ATOM      6  C   UNL     1      -4.726  -0.100  -4.734  0.00  0.00    +0.155 C 
ATOM      7  O   UNL     1      -4.937   0.914  -3.665  0.00  0.00    -0.358 OA
ATOM      8  C   UNL     1      -3.163  -0.314  -4.712  0.00  0.00    +0.123 C 
ATOM      9  C   UNL     1      -2.846   0.100  -3.275  0.00  0.00    +0.128 C 
ATOM     10  C   UNL     1      -2.158  -0.707  -2.252  0.00  0.00    +0.224 C 
ATOM     11  O   UNL     1      -1.264  -1.504  -2.443  0.00  0.00    -0.275 OA
ENDROOT
BRANCH   8  12
ATOM     12  C   UNL     1      -2.811  -1.756  -4.971  0.00  0.00    +0.224 C 
ATOM     13  O   UNL     1      -2.217  -2.395  -4.128  0.00  0.00    -0.275 OA
ATOM     14  N   UNL     1      -3.155  -2.335  -6.138  0.00  0.00    -0.285 N 
ATOM     15  H   UNL     1      -3.696  -1.849  -6.780  0.00  0.00    +0.155 HD
BRANCH  14  16
ATOM     16  C   UNL     1      -2.732  -3.638  -6.423  0.00  0.00    +0.033 A 
ATOM     17  C   UNL     1      -3.539  -4.482  -7.176  0.00  0.00    +0.023 A 
ATOM     18  C   UNL     1      -3.119  -5.767  -7.457  0.00  0.00    +0.006 A 
ATOM     19  C   UNL     1      -1.897  -6.215  -6.988  0.00  0.00    -0.045 A 
ATOM     20  C   UNL     1      -1.092  -5.378  -6.238  0.00  0.00    +0.006 A 
ATOM     21  C   UNL     1      -1.504  -4.089  -5.960  0.00  0.00    +0.023 A 
BRANCH  19  22
ATOM     22  C   UNL     1      -1.442  -7.618  -7.296  0.00  0.00    +0.013 C 
ATOM     23  C   UNL     1      -0.129  -7.569  -8.079  0.00  0.00    +0.012 C 
ATOM     24  C   UNL     1      -1.228  -8.383  -5.988  0.00  0.00    +0.012 C 
ENDBRANCH  19  22
ENDBRANCH  14  16
ENDBRANCH   8  12
BRANCH   2  25
ATOM     25  C   UNL     1      -5.007   0.190  -0.285  0.00  0.00    +0.237 C 
ATOM     26  O   UNL     1      -5.018  -0.878   0.289  0.00  0.00    -0.274 OA
ATOM     27  N   UNL     1      -5.983   1.090  -0.054  0.00  0.00    -0.311 N 
ATOM     28  H   UNL     1      -5.974   1.944  -0.514  0.00  0.00    +0.149 HD
BRANCH  27  29
ATOM     29  C   UNL     1      -7.058   0.779   0.891  0.00  0.00    +0.076 C 
ATOM     30  C   UNL     1      -8.156  -0.009   0.174  0.00  0.00    +0.022 C 
ATOM     31  C   UNL     1      -9.278  -0.335   1.161  0.00  0.00    +0.002 C 
ATOM     32  C   UNL     1      -9.863   0.966   1.715  0.00  0.00    +0.003 C 
ATOM     33  C   UNL     1      -8.765   1.754   2.433  0.00  0.00    -0.009 C 
ATOM     34  C   UNL     1      -7.643   2.079   1.445  0.00  0.00    +0.009 C 
ATOM     35  C   UNL     1      -8.203   2.918   0.295  0.00  0.00    +0.009 C 
ATOM     36  C   UNL     1      -9.350   3.055   2.987  0.00  0.00    +0.008 C 
ENDBRANCH  27  29
ENDBRANCH   2  25
BRANCH   1  37
ATOM     37  C   UNL     1      -2.239  -0.843   0.263  0.00  0.00    +0.074 C 
ATOM     38  C   UNL     1      -2.281  -2.372   0.315  0.00  0.00    +0.028 C 
BRANCH  37  40
ATOM     39  C   UNL     1      -0.775   1.162   0.544  0.00  0.00    +0.005 C 
ATOM     40  C   UNL     1      -0.800  -0.366   0.471  0.00  0.00    +0.019 C 
ENDBRANCH  37  40
ENDBRANCH   1  37
TORSDOF 7
