REMARK  Name = ZINC37162585
REMARK  6 active torsions:
REMARK  status: ('A' for Active; 'I' for Inactive)
REMARK    1  A    between atoms: C_1  and  C_2
REMARK    2  A    between atoms: C_2  and  C_4
REMARK    3  A    between atoms: C_2  and  N_12
REMARK    4  A    between atoms: N_12  and  C_13
REMARK    5  A    between atoms: C_16  and  O_22
REMARK    6  A    between atoms: C_18  and  N_19
REMARK                            x       y       z     vdW  Elec       q    Type
REMARK                         _______ _______ _______ _____ _____    ______ ____
ROOT
ATOM      1  N   UNL     1      -1.137  -1.214   0.070  0.00  0.00    -0.335 N 
ATOM      2  H   UNL     1      -1.497  -1.486   0.928  0.00  0.00    +0.147 HD
ENDROOT
BRANCH   1   3
ATOM      3  C   UNL     1      -1.950  -1.235  -1.069  0.00  0.00    +0.058 A 
ATOM      4  C   UNL     1      -1.401  -0.991  -2.321  0.00  0.00    +0.029 A 
ATOM      5  C   UNL     1      -2.204  -1.013  -3.444  0.00  0.00    +0.047 A 
ATOM      6  C   UNL     1      -3.560  -1.279  -3.322  0.00  0.00    +0.119 A 
ATOM      7  C   UNL     1      -4.110  -1.523  -2.072  0.00  0.00    +0.080 A 
ATOM      8  C   UNL     1      -3.307  -1.507  -0.948  0.00  0.00    +0.150 A 
BRANCH   8   9
ATOM      9  N   UNL     1      -3.893  -1.773   0.384  0.00  0.00    +0.058 N 
ATOM     10  O   UNL     1      -4.755  -2.611   0.509  0.00  0.00    -0.126 OA
ATOM     11  O   UNL     1      -3.510  -1.151   1.348  0.00  0.00    -0.126 OA
ENDBRANCH   8   9
BRANCH   6  12
ATOM     12  O   UNL     1      -4.351  -1.301  -4.428  0.00  0.00    -0.507 OA
ATOM     13  H   UNL     1      -4.419  -2.170  -4.846  0.00  0.00    +0.292 HD
ENDBRANCH   6  12
ENDBRANCH   1   3
BRANCH   1  15
ATOM     14  C   UNL     1       0.327   0.745   0.059  0.00  0.00    +0.033 C 
ATOM     15  C   UNL     1       0.258  -0.780  -0.036  0.00  0.00    +0.099 C 
BRANCH  15  16
ATOM     16  C   UNL     1       1.060  -1.390   1.086  0.00  0.00    -0.008 A 
ATOM     17  C   UNL     1       0.447  -1.693   2.287  0.00  0.00    +0.027 A 
ATOM     18  C   UNL     1       1.182  -2.253   3.317  0.00  0.00    +0.041 A 
ATOM     19  C   UNL     1       2.531  -2.509   3.144  0.00  0.00    +0.021 A 
ATOM     20  C   UNL     1       3.144  -2.205   1.943  0.00  0.00    +0.022 A 
ATOM     21  C   UNL     1       2.407  -1.651   0.911  0.00  0.00    +0.046 A 
ATOM     22 CL   UNL     1       3.175  -1.276  -0.600  0.00  0.00    -0.083 Cl
ATOM     23 CL   UNL     1       0.413  -2.634   4.826  0.00  0.00    -0.084 Cl
ENDBRANCH  15  16
ENDBRANCH   1  15
TORSDOF 5
