REMARK  Name = ZINC02910210
REMARK  10 active torsions:
REMARK  status: ('A' for Active; 'I' for Inactive)
REMARK    1  A    between atoms: C_1  and  C_2
REMARK    2  A    between atoms: C_3  and  C_14
REMARK    3  A    between atoms: C_4  and  O_13
REMARK    4  A    between atoms: N_5  and  C_7
REMARK    5  A    between atoms: N_15  and  N_16
REMARK    6  A    between atoms: C_17  and  C_19
REMARK    7  A    between atoms: C_19  and  N_30
REMARK    8  A    between atoms: C_20  and  C_21
REMARK    9  A    between atoms: C_24  and  N_27
REMARK   10  A    between atoms: C_31  and  C_33
REMARK                            x       y       z     vdW  Elec       q    Type
REMARK                         _______ _______ _______ _____ _____    ______ ____
ROOT
ATOM      1  C   UNL     1       0.224  -1.350  -7.362  0.00  0.00    +0.098 C 
ATOM      2  C   UNL     1      -0.123  -2.286  -8.276  0.00  0.00    +0.036 C 
ENDROOT
BRANCH   2   3
ATOM      3  C   UNL     1      -0.280  -1.911  -9.690  0.00  0.00    -0.023 A 
ATOM      4  C   UNL     1       0.318  -0.744 -10.178  0.00  0.00    +0.010 A 
ATOM      5  C   UNL     1       0.167  -0.399 -11.505  0.00  0.00    +0.033 A 
ATOM      6  C   UNL     1      -0.573  -1.205 -12.353  0.00  0.00    +0.126 A 
ATOM      7  C   UNL     1      -1.167  -2.361 -11.877  0.00  0.00    +0.033 A 
ATOM      8  C   UNL     1      -1.022  -2.722 -10.555  0.00  0.00    +0.010 A 
BRANCH   6   9
ATOM      9  N   UNL     1      -0.730  -0.827 -13.775  0.00  0.00    +0.056 N 
ATOM     10  O   UNL     1      -0.213   0.182 -14.193  0.00  0.00    -0.126 OA
ATOM     11  O   UNL     1      -1.376  -1.528 -14.519  0.00  0.00    -0.126 OA
ENDBRANCH   6   9
ENDBRANCH   2   3
BRANCH   1  13
ATOM     12  N   UNL     1       0.876  -0.818  -5.071  0.00  0.00    -0.202 N 
ATOM     13  C   UNL     1       0.530  -1.750  -5.981  0.00  0.00    +0.277 C 
ATOM     14  O   UNL     1       0.473  -2.922  -5.660  0.00  0.00    -0.267 OA
ATOM     15  H   UNL     1       0.922   0.117  -5.327  0.00  0.00    +0.178 HD
BRANCH  12  17
ATOM     16  C   UNL     1       1.501  -0.301  -2.878  0.00  0.00    +0.145 C 
ATOM     17  N   UNL     1       1.168  -1.199  -3.755  0.00  0.00    -0.187 NA
BRANCH  16  20
ATOM     18  C   UNL     1       2.340   1.653  -0.525  0.00  0.00    +0.068 C 
ATOM     19  C   UNL     1       2.183   0.157  -0.436  0.00  0.00    +0.073 A 
ATOM     20  C   UNL     1       1.808  -0.701  -1.494  0.00  0.00    +0.079 A 
ATOM     21  C   UNL     1       1.784  -1.991  -0.985  0.00  0.00    +0.225 A 
ATOM     22  N   UNL     1       2.128  -1.912   0.320  0.00  0.00    -0.200 N 
ATOM     23  N   UNL     1       2.375  -0.570   0.631  0.00  0.00    -0.168 NA
BRANCH  22  24
ATOM     24  C   UNL     1       2.227  -2.991   1.209  0.00  0.00    +0.069 A 
ATOM     25  C   UNL     1       1.357  -4.067   1.095  0.00  0.00    +0.028 A 
ATOM     26  C   UNL     1       1.456  -5.130   1.972  0.00  0.00    +0.002 A 
ATOM     27  C   UNL     1       2.421  -5.122   2.963  0.00  0.00    +0.000 A 
ATOM     28  C   UNL     1       3.289  -4.051   3.079  0.00  0.00    +0.002 A 
ATOM     29  C   UNL     1       3.198  -2.989   2.201  0.00  0.00    +0.028 A 
ENDBRANCH  22  24
BRANCH  21  30
ATOM     30  O   UNL     1       1.473  -3.119  -1.669  0.00  0.00    -0.492 OA
ATOM     31  H   UNL     1       2.232  -3.549  -2.085  0.00  0.00    +0.294 HD
ENDBRANCH  21  30
ENDBRANCH  16  20
ENDBRANCH  12  17
ENDBRANCH   1  13
BRANCH   1  32
ATOM     32  N   UNL     1       0.290  -0.004  -7.731  0.00  0.00    -0.277 N 
ATOM     33  C   UNL     1       1.441   0.681  -7.579  0.00  0.00    +0.248 C 
ATOM     34  O   UNL     1       2.388   0.161  -7.020  0.00  0.00    -0.270 OA
ATOM     35  H   UNL     1      -0.493   0.438  -8.097  0.00  0.00    +0.155 HD
BRANCH  33  36
ATOM     36  C   UNL     1       1.552   2.063  -8.091  0.00  0.00    +0.037 A 
ATOM     37  C   UNL     1       0.433   2.705  -8.623  0.00  0.00    +0.013 A 
ATOM     38  C   UNL     1       0.543   3.995  -9.099  0.00  0.00    +0.001 A 
ATOM     39  C   UNL     1       1.759   4.653  -9.048  0.00  0.00    +0.000 A 
ATOM     40  C   UNL     1       2.873   4.022  -8.522  0.00  0.00    +0.001 A 
ATOM     41  C   UNL     1       2.775   2.734  -8.038  0.00  0.00    +0.013 A 
ENDBRANCH  33  36
ENDBRANCH   1  32
TORSDOF 9
