REMARK  Name = ZINC01406120
REMARK  8 active torsions:
REMARK  status: ('A' for Active; 'I' for Inactive)
REMARK    1  A    between atoms: C_4  and  C_7
REMARK    2  A    between atoms: C_7  and  C_8
REMARK    3  A    between atoms: C_7  and  N_58
REMARK    4  A    between atoms: N_16  and  C_19
REMARK    5  A    between atoms: C_19  and  N_21
REMARK    6  A    between atoms: N_21  and  C_22
REMARK    7  A    between atoms: C_25  and  S_28
REMARK    8  A    between atoms: S_28  and  N_31
REMARK                            x       y       z     vdW  Elec       q    Type
REMARK                         _______ _______ _______ _____ _____    ______ ____
ROOT
ATOM      1  C   UNL     1       1.157   3.346   1.237  0.00  0.00    -0.058 C 
ATOM      2  C   UNL     1       1.178   2.300   0.117  0.00  0.00    +0.088 C 
ATOM      3  N   UNL     1      -0.114   1.597   0.110  0.00  0.00    -0.316 N 
ATOM      4  C   UNL     1      -1.344   2.403   0.079  0.00  0.00    +0.088 C 
ATOM      5  C   UNL     1      -1.266   3.445   1.206  0.00  0.00    -0.058 C 
ATOM      6  N   UNL     1      -0.018   4.223   1.045  0.00  0.00    +0.389 N 
ATOM      7  H   UNL     1       0.010   4.614   0.097  0.00  0.00    -0.080 HD
ENDROOT
BRANCH   3   8
ATOM      8  C   UNL     1      -0.169   0.251   0.125  0.00  0.00    +0.137 C 
ATOM      9  S   UNL     1       1.273  -0.666   0.025  0.00  0.00    -0.018 S 
BRANCH   8  10
ATOM     10  N   UNL     1      -1.360  -0.374   0.219  0.00  0.00    -0.297 N 
ATOM     11  H   UNL     1      -1.654  -0.732   1.071  0.00  0.00    +0.154 HD
BRANCH  10  12
ATOM     12  C   UNL     1      -2.172  -0.505  -0.912  0.00  0.00    +0.033 A 
ATOM     13  C   UNL     1      -1.711  -0.083  -2.152  0.00  0.00    +0.025 A 
ATOM     14  C   UNL     1      -2.514  -0.219  -3.268  0.00  0.00    +0.030 A 
ATOM     15  C   UNL     1      -3.778  -0.765  -3.150  0.00  0.00    +0.105 A 
ATOM     16  C   UNL     1      -4.242  -1.182  -1.916  0.00  0.00    +0.030 A 
ATOM     17  C   UNL     1      -3.442  -1.054  -0.797  0.00  0.00    +0.025 A 
BRANCH  15  18
ATOM     18  S   UNL     1      -4.801  -0.931  -4.575  0.00  0.00    +0.056 S 
ATOM     19  O   UNL     1      -3.930  -0.970  -5.698  0.00  0.00    -0.153 OA
ATOM     20  O   UNL     1      -5.726  -1.972  -4.292  0.00  0.00    -0.153 OA
BRANCH  18  21
ATOM     21  N   UNL     1      -5.684   0.464  -4.709  0.00  0.00    -0.204 NA
ATOM     22  H   UNL     1      -5.962   0.780  -5.583  0.00  0.00    +0.144 HD
ATOM     23  H   UNL     1      -5.923   0.964  -3.914  0.00  0.00    +0.144 HD
ENDBRANCH  18  21
ENDBRANCH  15  18
ENDBRANCH  10  12
ENDBRANCH   8  10
ENDBRANCH   3   8
BRANCH   6  24
ATOM     24  C   UNL     1       0.015   5.331   2.022  0.00  0.00    -0.007 C 
BRANCH  24  28
ATOM     25  C   UNL     1       3.693   7.458   1.584  0.00  0.00    +0.000 A 
ATOM     26  C   UNL     1       3.221   7.146   2.845  0.00  0.00    +0.000 A 
ATOM     27  C   UNL     1       2.031   6.458   2.987  0.00  0.00    +0.002 A 
ATOM     28  C   UNL     1       1.312   6.082   1.868  0.00  0.00    -0.057 A 
ATOM     29  C   UNL     1       1.787   6.388   0.606  0.00  0.00    +0.002 A 
ATOM     30  C   UNL     1       2.975   7.081   0.464  0.00  0.00    +0.000 A 
ENDBRANCH  24  28
BRANCH  24  31
ATOM     31  C   UNL     1      -1.139   6.260   1.744  0.00  0.00    -0.057 A 
ATOM     32  C   UNL     1      -1.557   6.473   0.444  0.00  0.00    +0.002 A 
ATOM     33  C   UNL     1      -2.619   7.321   0.190  0.00  0.00    +0.000 A 
ATOM     34  C   UNL     1      -3.255   7.964   1.234  0.00  0.00    +0.000 A 
ATOM     35  C   UNL     1      -2.833   7.756   2.534  0.00  0.00    +0.000 A 
ATOM     36  C   UNL     1      -1.775   6.904   2.789  0.00  0.00    +0.002 A 
ENDBRANCH  24  31
ENDBRANCH   6  24
TORSDOF 8
