REMARK  Name = ZINC24068704
REMARK  14 active torsions:
REMARK  status: ('A' for Active; 'I' for Inactive)
REMARK    1  A    between atoms: C_1  and  C_2
REMARK    2  A    between atoms: C_5  and  C_29
REMARK    3  A    between atoms: C_6  and  O_8
REMARK    4  A    between atoms: O_8  and  C_9
REMARK    5  A    between atoms: C_9  and  C_10
REMARK    6  A    between atoms: N_12  and  N_13
REMARK    7  A    between atoms: C_14  and  C_16
REMARK    8  A    between atoms: C_18  and  C_28
REMARK    9  A    between atoms: C_19  and  C_27
REMARK   10  A    between atoms: C_20  and  S_22
REMARK   11  A    between atoms: S_22  and  N_25
REMARK   12  A    between atoms: N_25  and  C_26
REMARK   13  A    between atoms: C_29  and  C_30
REMARK   14  A    between atoms: C_29  and  C_31
REMARK                            x       y       z     vdW  Elec       q    Type
REMARK                         _______ _______ _______ _____ _____    ______ ____
ROOT
ATOM      1  N   UNL     1       6.914  -1.937  -0.422  0.00  0.00    -0.230 N 
ATOM      2  C   UNL     1       5.611  -2.250  -0.569  0.00  0.00    +0.260 C 
ATOM      3  O   UNL     1       5.261  -3.413  -0.557  0.00  0.00    -0.269 OA
ATOM      4  H   UNL     1       7.231  -0.884  -0.433  0.00  0.00    +0.173 HD
ENDROOT
BRANCH   2   5
ATOM      5  C   UNL     1       4.609  -1.177  -0.745  0.00  0.00    +0.040 A 
ATOM      6  C   UNL     1       5.008   0.160  -0.760  0.00  0.00    +0.016 A 
ATOM      7  C   UNL     1       4.068   1.156  -0.925  0.00  0.00    -0.045 A 
ATOM      8  C   UNL     1       2.732   0.831  -1.082  0.00  0.00    -0.021 A 
ATOM      9  C   UNL     1       2.329  -0.492  -1.062  0.00  0.00    +0.109 A 
ATOM     10  C   UNL     1       3.259  -1.498  -0.898  0.00  0.00    +0.042 A 
ATOM     11  C   UNL     1       1.711   1.923  -1.268  0.00  0.00    +0.046 C 
ATOM     12  C   UNL     1       4.497   2.600  -0.942  0.00  0.00    +0.044 C 
BRANCH   9  13
ATOM     13  S   UNL     1       0.624  -0.895  -1.255  0.00  0.00    +0.058 S 
ATOM     14  O   UNL     1      -0.094  -0.064  -0.352  0.00  0.00    -0.153 OA
ATOM     15  O   UNL     1       0.535  -2.313  -1.220  0.00  0.00    -0.153 OA
BRANCH  13  16
ATOM     16  N   UNL     1       0.180  -0.430  -2.781  0.00  0.00    -0.193 NA
ATOM     17  C   UNL     1       0.782  -1.079  -3.948  0.00  0.00    +0.127 C 
ATOM     18  H   UNL     1      -0.437   0.471  -2.910  0.00  0.00    +0.148 HD
ENDBRANCH  13  16
ENDBRANCH   9  13
ENDBRANCH   2   5
BRANCH   1  21
ATOM     19  C   UNL     1       9.166  -2.640  -0.108  0.00  0.00    +0.267 C 
ATOM     20  O   UNL     1       9.516  -1.479  -0.121  0.00  0.00    -0.271 OA
ATOM     21  N   UNL     1       7.864  -2.953  -0.255  0.00  0.00    -0.231 N 
ATOM     22  H   UNL     1       7.546  -4.006  -0.244  0.00  0.00    +0.173 HD
BRANCH  19  23
ATOM     23  C   UNL     1      10.188  -3.733   0.071  0.00  0.00    +0.326 C 
BRANCH  23  24
ATOM     24  O   UNL     1      11.488  -3.153   0.205  0.00  0.00    -0.482 OA
BRANCH  24  30
ATOM     25  C   UNL     1      13.127  -7.731   0.629  0.00  0.00    +0.044 C 
ATOM     26  C   UNL     1      13.368  -6.244   0.587  0.00  0.00    -0.047 A 
ATOM     27  C   UNL     1      14.652  -5.748   0.723  0.00  0.00    +0.004 A 
ATOM     28  C   UNL     1      14.877  -4.385   0.685  0.00  0.00    +0.008 A 
ATOM     29  C   UNL     1      13.819  -3.514   0.512  0.00  0.00    -0.003 A 
ATOM     30  C   UNL     1      12.530  -4.008   0.375  0.00  0.00    +0.125 A 
ATOM     31  C   UNL     1      12.306  -5.377   0.419  0.00  0.00    +0.049 A 
BRANCH  29  32
ATOM     32  C   UNL     1      14.065  -2.027   0.471  0.00  0.00    +0.016 C 
ATOM     33  C   UNL     1      14.700  -1.579   1.788  0.00  0.00    +0.012 C 
ATOM     34  C   UNL     1      15.008  -1.698  -0.688  0.00  0.00    +0.012 C 
ENDBRANCH  29  32
ENDBRANCH  24  30
ENDBRANCH  23  24
ENDBRANCH  19  23
ENDBRANCH   1  21
TORSDOF 8
