REMARK  Name = ZINC19640050
REMARK  9 active torsions:
REMARK  status: ('A' for Active; 'I' for Inactive)
REMARK    1  A    between atoms: C_1  and  C_2
REMARK    2  A    between atoms: C_2  and  C_3
REMARK    3  A    between atoms: C_6  and  C_9
REMARK    4  A    between atoms: C_9  and  C_11
REMARK    5  A    between atoms: C_9  and  N_12
REMARK    6  A    between atoms: N_12  and  C_13
REMARK    7  A    between atoms: C_13  and  C_14
REMARK    8  A    between atoms: C_14  and  N_16
REMARK    9  A    between atoms: C_19  and  C_22
REMARK                            x       y       z     vdW  Elec       q    Type
REMARK                         _______ _______ _______ _____ _____    ______ ____
ROOT
ATOM      1  C   UNL     1      -7.082  -4.633  -2.021  0.00  0.00    +0.221 C 
ATOM      2  O   UNL     1      -6.169  -4.849  -2.795  0.00  0.00    -0.276 OA
ENDROOT
BRANCH   1   3
ATOM      3  N   UNL     1      -8.222  -5.302  -2.135  0.00  0.00    -0.158 NA
ATOM      4  C   UNL     1      -8.366  -6.213  -3.099  0.00  0.00    +0.163 A 
ATOM      5  N   UNL     1      -9.452  -6.986  -3.371  0.00  0.00    -0.335 N 
ATOM      6  C   UNL     1      -9.390  -7.865  -4.415  0.00  0.00    +0.055 A 
ATOM      7  C   UNL     1      -8.233  -7.902  -5.113  0.00  0.00    +0.074 A 
ATOM      8  S   UNL     1      -7.253  -6.675  -4.271  0.00  0.00    -0.060 S 
ATOM      9  H   UNL     1     -10.256  -6.914  -2.833  0.00  0.00    +0.168 HD
BRANCH   6  10
ATOM     10  C   UNL     1     -10.535  -8.734  -4.765  0.00  0.00    -0.001 A 
ATOM     11  C   UNL     1     -11.717  -8.667  -4.027  0.00  0.00    +0.011 A 
ATOM     12  C   UNL     1     -12.781  -9.480  -4.358  0.00  0.00    +0.016 A 
ATOM     13  C   UNL     1     -12.678 -10.361  -5.420  0.00  0.00    +0.018 A 
ATOM     14  C   UNL     1     -11.507 -10.433  -6.156  0.00  0.00    +0.016 A 
ATOM     15  C   UNL     1     -10.438  -9.621  -5.838  0.00  0.00    +0.011 A 
ATOM     16 BR   UNL     1     -14.141 -11.473  -5.867  0.00  0.00    -0.050 Br
ENDBRANCH   6  10
ENDBRANCH   1   3
BRANCH   1  17
ATOM     17  C   UNL     1      -6.918  -3.603  -0.932  0.00  0.00    +0.018 C 
BRANCH  17  18
ATOM     18  N   UNL     1      -5.578  -3.008  -1.018  0.00  0.00    +0.389 N 
ATOM     19  H   UNL     1      -5.464  -2.566  -1.918  0.00  0.00    -0.084 HD
ATOM     20  H   UNL     1      -4.882  -3.729  -0.906  0.00  0.00    -0.084 HD
BRANCH  18  21
ATOM     21  C   UNL     1      -5.419  -2.005   0.043  0.00  0.00    -0.043 C 
ATOM     22  C   UNL     1      -6.392  -0.849  -0.198  0.00  0.00    -0.009 C 
BRANCH  21  26
ATOM     23  C   UNL     1      -1.412  -0.526   0.013  0.00  0.00    -0.048 A 
ATOM     24  C   UNL     1      -2.051  -0.766   1.215  0.00  0.00    +0.004 A 
ATOM     25  C   UNL     1      -3.348  -1.244   1.225  0.00  0.00    +0.002 A 
ATOM     26  C   UNL     1      -4.006  -1.482   0.032  0.00  0.00    -0.062 A 
ATOM     27  C   UNL     1      -3.367  -1.241  -1.170  0.00  0.00    +0.002 A 
ATOM     28  C   UNL     1      -2.072  -0.758  -1.179  0.00  0.00    +0.004 A 
BRANCH  23  30
ATOM     29  C   UNL     1      -0.019   1.526   0.010  0.00  0.00    +0.009 C 
ATOM     30  C   UNL     1       0.002  -0.004   0.002  0.00  0.00    +0.032 C 
ENDBRANCH  23  30
ENDBRANCH  21  26
ENDBRANCH  18  21
ENDBRANCH  17  18
ENDBRANCH   1  17
TORSDOF 7
