REMARK  Name = ZINC39926799
REMARK  6 active torsions:
REMARK  status: ('A' for Active; 'I' for Inactive)
REMARK    1  A    between atoms: C_1  and  C_2
REMARK    2  A    between atoms: C_6  and  C_8
REMARK    3  A    between atoms: C_12  and  S_15
REMARK    4  A    between atoms: N_13  and  N_14
REMARK    5  A    between atoms: S_15  and  C_16
REMARK    6  A    between atoms: C_16  and  C_17
REMARK                            x       y       z     vdW  Elec       q    Type
REMARK                         _______ _______ _______ _____ _____    ______ ____
ROOT
ATOM      1  C   UNL     1       0.054  -2.845   2.489  0.00  0.00    +0.223 C 
ATOM      2  N   UNL     1       0.808  -2.101   3.512  0.00  0.00    -0.241 N 
ATOM      3  N   UNL     1       1.883  -2.921   3.876  0.00  0.00    -0.161 NA
ATOM      4  C   UNL     1       1.873  -4.032   3.221  0.00  0.00    +0.189 C 
ATOM      5  N   UNL     1       0.800  -4.106   2.340  0.00  0.00    -0.221 N 
ATOM      6  H   UNL     1       0.602  -1.221   3.863  0.00  0.00    +0.171 HD
ENDROOT
BRANCH   1  12
ATOM      7  C   UNL     1      -0.018   1.503   0.010  0.00  0.00    +0.044 C 
ATOM      8  C   UNL     1       0.002  -0.004   0.002  0.00  0.00    -0.050 A 
ATOM      9  C   UNL     1       0.006  -0.689  -1.199  0.00  0.00    +0.003 A 
ATOM     10  C   UNL     1       0.025  -2.071  -1.207  0.00  0.00    +0.001 A 
ATOM     11  C   UNL     1       0.040  -2.768  -0.013  0.00  0.00    +0.007 A 
ATOM     12  C   UNL     1       0.037  -2.084   1.188  0.00  0.00    -0.007 A 
ATOM     13  C   UNL     1       0.023  -0.702   1.195  0.00  0.00    +0.010 A 
ENDBRANCH   1  12
BRANCH   5  14
ATOM     14  N   UNL     1       0.496  -5.141   1.502  0.00  0.00    -0.250 NA
ATOM     15  H   UNL     1       1.167  -5.888   1.593  0.00  0.00    +0.141 HD
ATOM     16  H   UNL     1      -0.442  -5.475   1.666  0.00  0.00    +0.141 HD
ENDBRANCH   5  14
BRANCH   4  17
ATOM     17  S   UNL     1       3.074  -5.306   3.419  0.00  0.00    -0.080 S 
BRANCH  17  18
ATOM     18  C   UNL     1       4.201  -4.654   4.682  0.00  0.00    +0.151 C 
BRANCH  18  19
ATOM     19  C   UNL     1       5.291  -5.660   4.950  0.00  0.00    +0.118 A 
ATOM     20  N   UNL     1       6.428  -5.712   4.320  0.00  0.00    -0.232 NA
ATOM     21  C   UNL     1       7.175  -6.736   4.809  0.00  0.00    +0.089 A 
ATOM     22  C   UNL     1       8.445  -7.232   4.506  0.00  0.00    +0.030 A 
ATOM     23  C   UNL     1       8.938  -8.306   5.193  0.00  0.00    +0.002 A 
ATOM     24  C   UNL     1       8.189  -8.911   6.191  0.00  0.00    +0.002 A 
ATOM     25  C   UNL     1       6.933  -8.438   6.507  0.00  0.00    +0.028 A 
ATOM     26  C   UNL     1       6.416  -7.348   5.821  0.00  0.00    +0.066 A 
ATOM     27  N   UNL     1       5.232  -6.642   5.890  0.00  0.00    -0.341 N 
ATOM     28  H   UNL     1       4.494  -6.814   6.495  0.00  0.00    +0.167 HD
ENDBRANCH  18  19
ENDBRANCH  17  18
ENDBRANCH   4  17
TORSDOF 5
