REMARK  Name = ZINC36327918
REMARK  5 active torsions:
REMARK  status: ('A' for Active; 'I' for Inactive)
REMARK    1  A    between atoms: C_1  and  N_2
REMARK    2  A    between atoms: N_2  and  C_3
REMARK    3  A    between atoms: N_2  and  S_10
REMARK    4  A    between atoms: S_10  and  C_13
REMARK    5  A    between atoms: C_16  and  N_20
REMARK                            x       y       z     vdW  Elec       q    Type
REMARK                         _______ _______ _______ _____ _____    ______ ____
ROOT
ATOM      1  S   UNL     1      -0.000  -0.824  -1.437  0.00  0.00    +0.063 S 
ATOM      2  O   UNL     1      -0.531  -2.115  -1.167  0.00  0.00    -0.153 OA
ATOM      3  O   UNL     1      -0.572   0.049  -2.401  0.00  0.00    -0.153 OA
ENDROOT
BRANCH   1   4
ATOM      4  C   UNL     1       1.682  -1.059  -1.905  0.00  0.00    +0.133 A 
ATOM      5  C   UNL     1       2.323  -0.107  -2.678  0.00  0.00    +0.047 A 
ATOM      6  C   UNL     1       3.642  -0.289  -3.047  0.00  0.00    +0.040 A 
ATOM      7  C   UNL     1       4.325  -1.429  -2.642  0.00  0.00    +0.027 A 
ATOM      8  C   UNL     1       3.679  -2.383  -1.866  0.00  0.00    +0.040 A 
ATOM      9  C   UNL     1       2.361  -2.193  -1.495  0.00  0.00    +0.047 A 
ATOM     10 BR   UNL     1       1.482  -3.488  -0.433  0.00  0.00    -0.048 Br
ATOM     11 BR   UNL     1       1.393   1.444  -3.229  0.00  0.00    -0.048 Br
BRANCH   7  12
ATOM     12  N   UNL     1       5.658  -1.616  -3.014  0.00  0.00    -0.358 N 
ATOM     13  H   UNL     1       6.108  -0.949  -3.556  0.00  0.00    +0.142 HD
ATOM     14  H   UNL     1       6.134  -2.412  -2.730  0.00  0.00    +0.142 HD
ENDBRANCH   7  12
ENDBRANCH   1   4
BRANCH   1  16
ATOM     15  C   UNL     1      -0.018   1.461   0.010  0.00  0.00    +0.132 C 
ATOM     16  N   UNL     1       0.002  -0.004   0.002  0.00  0.00    -0.177 NA
BRANCH  16  17
ATOM     17  C   UNL     1       0.024  -0.743   1.267  0.00  0.00    +0.080 C 
ATOM     18  C   UNL     1       1.242  -0.352   2.059  0.00  0.00    +0.020 C 
ATOM     19  C   UNL     1       1.809  -1.523   2.884  0.00  0.00    +0.002 C 
ATOM     20  C   UNL     1       0.711  -2.365   3.562  0.00  0.00    +0.000 C 
ATOM     21  C   UNL     1      -0.384  -1.516   4.150  0.00  0.00    +0.000 C 
ATOM     22  C   UNL     1      -1.519  -1.392   3.112  0.00  0.00    +0.002 C 
ATOM     23  C   UNL     1      -1.231  -0.395   2.092  0.00  0.00    +0.020 C 
ENDBRANCH  16  17
ENDBRANCH   1  16
TORSDOF 4
