REMARK  Name = ZINC27526379
REMARK  4 active torsions:
REMARK  status: ('A' for Active; 'I' for Inactive)
REMARK    1  A    between atoms: C_3  and  O_25
REMARK    2  A    between atoms: C_6  and  C_7
REMARK    3  A    between atoms: C_14  and  C_17
REMARK    4  A    between atoms: C_14  and  O_24
REMARK                            x       y       z     vdW  Elec       q    Type
REMARK                         _______ _______ _______ _____ _____    ______ ____
ROOT
ATOM      1  C   UNL     1      -2.434  -0.646   2.760  0.00  0.00    +0.157 A 
ATOM      2  C   UNL     1      -3.374  -1.511   2.028  0.00  0.00    +0.300 A 
ATOM      3  O   UNL     1      -4.363  -1.969   2.577  0.00  0.00    -0.263 OA
ATOM      4  N   UNL     1      -3.113  -1.782   0.746  0.00  0.00    -0.182 NA
ATOM      5  C   UNL     1      -2.046  -1.291   0.148  0.00  0.00    +0.192 A 
ATOM      6  N   UNL     1      -1.147  -0.488   0.768  0.00  0.00    -0.204 N 
ATOM      7  N   UNL     1      -1.386  -0.175   2.139  0.00  0.00    -0.161 NA
ATOM      8  C   UNL     1       0.002  -0.004   0.002  0.00  0.00    +0.197 C 
ATOM      9  C   UNL     1       0.038  -0.482  -1.456  0.00  0.00    +0.142 C 
ATOM     10  S   UNL     1      -1.483  -1.499  -1.527  0.00  0.00    -0.081 S 
ENDROOT
BRANCH   8  11
ATOM     11  C   UNL     1      -0.018   1.503   0.010  0.00  0.00    +0.007 A 
ATOM     12  C   UNL     1      -1.225   2.177   0.020  0.00  0.00    +0.010 A 
ATOM     13  C   UNL     1      -1.244   3.559   0.033  0.00  0.00    +0.020 A 
ATOM     14  C   UNL     1      -0.056   4.268   0.025  0.00  0.00    +0.041 A 
ATOM     15  C   UNL     1       1.151   3.592   0.010  0.00  0.00    +0.020 A 
ATOM     16  C   UNL     1       1.169   2.210   0.003  0.00  0.00    +0.010 A 
ATOM     17 CL   UNL     1      -0.079   6.003   0.036  0.00  0.00    -0.084 Cl
ENDBRANCH   8  11
BRANCH   1  23
ATOM     18  C   UNL     1      -1.598  -0.176   5.060  0.00  0.00    +0.014 A 
ATOM     19  C   UNL     1      -1.824   0.138   6.384  0.00  0.00    +0.046 A 
ATOM     20  C   UNL     1      -3.123   0.306   6.846  0.00  0.00    +0.117 A 
ATOM     21  C   UNL     1      -4.197   0.166   5.977  0.00  0.00    +0.046 A 
ATOM     22  C   UNL     1      -3.977  -0.143   4.652  0.00  0.00    +0.014 A 
ATOM     23  C   UNL     1      -2.674  -0.313   4.184  0.00  0.00    +0.008 A 
BRANCH  20  24
ATOM     24  O   UNL     1      -3.343   0.610   8.152  0.00  0.00    -0.507 OA
ATOM     25  H   UNL     1      -4.371   0.744   8.520  0.00  0.00    +0.292 HD
ENDBRANCH  20  24
ENDBRANCH   1  23
BRANCH   8  26
ATOM     26  O   UNL     1       1.197  -0.442   0.652  0.00  0.00    -0.364 OA
ATOM     27  H   UNL     1       2.179  -0.181   0.231  0.00  0.00    +0.213 HD
ENDBRANCH   8  26
TORSDOF 4
