REMARK  Name = ZINC39654156
REMARK  7 active torsions:
REMARK  status: ('A' for Active; 'I' for Inactive)
REMARK    1  A    between atoms: C_1  and  C_2
REMARK    2  A    between atoms: C_2  and  C_3
REMARK    3  A    between atoms: C_6  and  C_9
REMARK    4  A    between atoms: C_9  and  C_10
REMARK    5  A    between atoms: C_10  and  N_11
REMARK    6  A    between atoms: C_12  and  C_14
REMARK    7  A    between atoms: C_25  and  C_27
REMARK                            x       y       z     vdW  Elec       q    Type
REMARK                         _______ _______ _______ _____ _____    ______ ____
ROOT
ATOM      1  C   UNL     1       5.053  -0.747  -8.907  0.00  0.00    +0.100 C 
ATOM      2  C   UNL     1       4.122  -1.652  -9.745  0.00  0.00    +0.121 C 
ATOM      3  N   UNL     1       3.513  -0.742 -10.743  0.00  0.00    -0.296 N 
ATOM      4  C   UNL     1       4.618   0.164 -11.138  0.00  0.00    +0.115 C 
ATOM      5  C   UNL     1       5.379   0.442  -9.827  0.00  0.00    -0.004 C 
ATOM      6  C   UNL     1       4.890   1.744  -9.200  0.00  0.00    -0.010 C 
ATOM      7  C   UNL     1       5.275   2.918 -10.105  0.00  0.00    -0.082 C 
ATOM      8  N   UNL     1       6.733   2.950 -10.274  0.00  0.00    +0.379 N 
ATOM      9  C   UNL     1       7.185   1.734 -10.961  0.00  0.00    -0.082 C 
ATOM     10  C   UNL     1       6.880   0.510 -10.091  0.00  0.00    -0.010 C 
ATOM     11  C   UNL     1       2.241  -0.738 -11.190  0.00  0.00    +0.248 C 
ATOM     12  O   UNL     1       1.421  -1.486 -10.695  0.00  0.00    -0.270 OA
ATOM     13  H   UNL     1       6.990   3.758 -10.820  0.00  0.00    -0.086 HD
ATOM     14  H   UNL     1       7.174   3.006  -9.367  0.00  0.00    -0.086 HD
ENDROOT
BRANCH  11  15
ATOM     15  C   UNL     1       1.845   0.176 -12.281  0.00  0.00    +0.055 A 
ATOM     16  C   UNL     1       2.742   0.472 -13.309  0.00  0.00    +0.016 A 
ATOM     17  C   UNL     1       2.367   1.325 -14.324  0.00  0.00    +0.021 A 
ATOM     18  C   UNL     1       1.101   1.890 -14.326  0.00  0.00    +0.042 A 
ATOM     19  C   UNL     1       0.206   1.602 -13.311  0.00  0.00    +0.040 A 
ATOM     20  C   UNL     1       0.568   0.743 -12.291  0.00  0.00    +0.054 A 
ATOM     21 CL   UNL     1      -0.558   0.376 -11.022  0.00  0.00    -0.083 Cl
ATOM     22 CL   UNL     1       0.637   2.964 -15.608  0.00  0.00    -0.083 Cl
ENDBRANCH  11  15
BRANCH   1  24
ATOM     23  N   UNL     1       5.047  -0.020  -6.543  0.00  0.00    -0.315 N 
ATOM     24  C   UNL     1       4.344  -0.271  -7.665  0.00  0.00    +0.218 C 
ATOM     25  O   UNL     1       3.142  -0.113  -7.676  0.00  0.00    -0.275 OA
ATOM     26  H   UNL     1       6.009  -0.146  -6.534  0.00  0.00    +0.149 HD
BRANCH  23  27
ATOM     27  C   UNL     1       4.358   0.442  -5.335  0.00  0.00    +0.109 C 
BRANCH  27  28
ATOM     28  C   UNL     1       5.378   0.650  -4.214  0.00  0.00    +0.054 C 
BRANCH  28  32
ATOM     29  C   UNL     1       3.372   1.999  -0.693  0.00  0.00    -0.048 A 
ATOM     30  C   UNL     1       3.544   0.645  -0.914  0.00  0.00    +0.004 A 
ATOM     31  C   UNL     1       4.193   0.209  -2.054  0.00  0.00    +0.004 A 
ATOM     32  C   UNL     1       4.670   1.126  -2.972  0.00  0.00    -0.046 A 
ATOM     33  C   UNL     1       4.497   2.479  -2.751  0.00  0.00    +0.004 A 
ATOM     34  C   UNL     1       3.844   2.916  -1.613  0.00  0.00    +0.004 A 
BRANCH  29  36
ATOM     35  C   UNL     1       1.163   2.584   0.272  0.00  0.00    +0.009 C 
ATOM     36  C   UNL     1       2.664   2.475   0.550  0.00  0.00    +0.032 C 
ENDBRANCH  29  36
ENDBRANCH  28  32
ENDBRANCH  27  28
ENDBRANCH  23  27
ENDBRANCH   1  24
TORSDOF 6
