REMARK  Name = ZINC39273092
REMARK  9 active torsions:
REMARK  status: ('A' for Active; 'I' for Inactive)
REMARK    1  A    between atoms: C_1  and  C_2
REMARK    2  A    between atoms: C_3  and  C_16
REMARK    3  A    between atoms: N_6  and  C_9
REMARK    4  A    between atoms: C_16  and  C_18
REMARK    5  A    between atoms: C_16  and  C_25
REMARK    6  A    between atoms: C_23  and  O_24
REMARK    7  A    between atoms: C_26  and  C_39
REMARK    8  A    between atoms: N_28  and  C_32
REMARK    9  A    between atoms: C_29  and  O_31
REMARK                            x       y       z     vdW  Elec       q    Type
REMARK                         _______ _______ _______ _____ _____    ______ ____
ROOT
ATOM      1  C   UNL     1      -2.518  -0.354   0.013  0.00  0.00    +0.091 C 
ENDROOT
BRANCH   1   4
ATOM      2  C   UNL     1      -0.415   0.053   2.273  0.00  0.00    +0.065 C 
ATOM      3  C   UNL     1      -0.172  -0.638   0.956  0.00  0.00    +0.039 A 
ATOM      4  C   UNL     1      -1.084  -0.814  -0.022  0.00  0.00    +0.051 A 
ATOM      5  C   UNL     1      -0.459  -1.505  -1.087  0.00  0.00    +0.276 A 
ATOM      6  O   UNL     1      -0.981  -1.833  -2.136  0.00  0.00    -0.266 OA
ATOM      7  N   UNL     1       0.822  -1.734  -0.729  0.00  0.00    -0.219 N 
ATOM      8  N   UNL     1       1.010  -1.188   0.548  0.00  0.00    -0.294 N 
ATOM      9  H   UNL     1       1.837  -1.200   1.056  0.00  0.00    +0.187 HD
BRANCH   7  10
ATOM     10  C   UNL     1       1.788  -2.392  -1.496  0.00  0.00    +0.067 A 
ATOM     11  C   UNL     1       1.464  -2.876  -2.757  0.00  0.00    +0.029 A 
ATOM     12  C   UNL     1       2.421  -3.526  -3.513  0.00  0.00    +0.022 A 
ATOM     13  C   UNL     1       3.700  -3.695  -3.014  0.00  0.00    +0.041 A 
ATOM     14  C   UNL     1       4.026  -3.214  -1.758  0.00  0.00    +0.022 A 
ATOM     15  C   UNL     1       3.075  -2.559  -1.001  0.00  0.00    +0.029 A 
ATOM     16 CL   UNL     1       4.900  -4.513  -3.966  0.00  0.00    -0.084 Cl
ENDBRANCH   7  10
ENDBRANCH   1   4
BRANCH   1  17
ATOM     17  C   UNL     1      -3.215  -0.973   1.197  0.00  0.00    +0.008 C 
ATOM     18  C   UNL     1      -3.871  -0.327   2.138  0.00  0.00    +0.023 C 
ATOM     19  N   UNL     1      -4.395  -1.187   3.083  0.00  0.00    -0.266 N 
ATOM     20  N   UNL     1      -4.074  -2.514   2.765  0.00  0.00    -0.221 N 
ATOM     21  C   UNL     1      -3.293  -2.449   1.518  0.00  0.00    +0.250 C 
ATOM     22  C   UNL     1      -4.031   1.171   2.179  0.00  0.00    +0.062 C 
ATOM     23  H   UNL     1      -4.912  -0.912   3.857  0.00  0.00    +0.170 HD
BRANCH  20  24
ATOM     24  C   UNL     1      -4.426  -3.662   3.481  0.00  0.00    +0.051 A 
ATOM     25  C   UNL     1      -4.021  -4.913   3.033  0.00  0.00    +0.026 A 
ATOM     26  C   UNL     1      -4.369  -6.045   3.742  0.00  0.00    +0.022 A 
ATOM     27  C   UNL     1      -5.121  -5.935   4.898  0.00  0.00    +0.041 A 
ATOM     28  C   UNL     1      -5.526  -4.690   5.347  0.00  0.00    +0.022 A 
ATOM     29  C   UNL     1      -5.176  -3.554   4.645  0.00  0.00    +0.026 A 
ATOM     30 CL   UNL     1      -5.558  -7.361   5.787  0.00  0.00    -0.084 Cl
ENDBRANCH  20  24
BRANCH  21  31
ATOM     31  O   UNL     1      -1.985  -2.984   1.723  0.00  0.00    -0.369 OA
ATOM     32  H   UNL     1      -1.974  -3.928   1.932  0.00  0.00    +0.212 HD
ENDBRANCH  21  31
ENDBRANCH   1  17
BRANCH   1  33
ATOM     33  C   UNL     1      -3.213  -0.778  -1.256  0.00  0.00    +0.006 A 
ATOM     34  C   UNL     1      -3.395  -2.120  -1.529  0.00  0.00    +0.008 A 
ATOM     35  C   UNL     1      -4.031  -2.510  -2.693  0.00  0.00    +0.001 A 
ATOM     36  C   UNL     1      -4.487  -1.558  -3.586  0.00  0.00    +0.004 A 
ATOM     37  C   UNL     1      -4.308  -0.215  -3.318  0.00  0.00    +0.046 A 
ATOM     38  C   UNL     1      -3.675   0.179  -2.148  0.00  0.00    +0.121 A 
BRANCH  38  39
ATOM     39  O   UNL     1      -3.502   1.499  -1.878  0.00  0.00    -0.506 OA
ATOM     40  H   UNL     1      -2.675   1.866  -2.220  0.00  0.00    +0.292 HD
ENDBRANCH  38  39
ENDBRANCH   1  33
TORSDOF 7
