REMARK  Name = ZINC08793133
REMARK  8 active torsions:
REMARK  status: ('A' for Active; 'I' for Inactive)
REMARK    1  A    between atoms: C_1  and  O_2
REMARK    2  A    between atoms: O_2  and  C_3
REMARK    3  A    between atoms: C_3  and  C_5
REMARK    4  A    between atoms: C_9  and  N_10
REMARK    5  A    between atoms: C_11  and  C_13
REMARK    6  A    between atoms: C_17  and  N_22
REMARK    7  A    between atoms: C_28  and  C_29
REMARK    8  A    between atoms: C_28  and  N_56
REMARK                            x       y       z     vdW  Elec       q    Type
REMARK                         _______ _______ _______ _____ _____    ______ ____
ROOT
ATOM      1  C   UNL     1       3.767   5.681  -5.248  0.00  0.00    +0.091 A 
ATOM      2  C   UNL     1       3.535   5.293  -3.869  0.00  0.00    -0.025 A 
ATOM      3  C   UNL     1       2.240   5.092  -3.535  0.00  0.00    -0.021 A 
ATOM      4  S   UNL     1       1.335   5.412  -5.020  0.00  0.00    -0.079 S 
ATOM      5  C   UNL     1       2.654   5.806  -6.073  0.00  0.00    +0.086 A 
ATOM      6  C   UNL     1       1.723   4.687  -2.190  0.00  0.00    -0.035 C 
ATOM      7  C   UNL     1       3.982   5.141  -1.440  0.00  0.00    -0.073 C 
ATOM      8  C   UNL     1       4.632   5.111  -2.826  0.00  0.00    +0.018 C 
ATOM      9  N   UNL     1       2.867   4.171  -1.400  0.00  0.00    +0.386 N 
ATOM     10  H   UNL     1       3.182   3.283  -1.808  0.00  0.00    -0.081 HD
ENDROOT
BRANCH   5  11
ATOM     11  N   UNL     1       2.611   6.159  -7.411  0.00  0.00    -0.275 N 
ATOM     12  C   UNL     1       1.427   6.227  -8.052  0.00  0.00    +0.255 C 
ATOM     13  O   UNL     1       0.397   5.979  -7.455  0.00  0.00    -0.269 OA
ATOM     14  H   UNL     1       3.432   6.356  -7.887  0.00  0.00    +0.156 HD
BRANCH  12  15
ATOM     15  C   UNL     1       1.381   6.602  -9.472  0.00  0.00    +0.075 A 
ATOM     16  C   UNL     1       0.296   6.719 -10.283  0.00  0.00    +0.029 A 
ATOM     17  C   UNL     1       0.462   7.098 -11.627  0.00  0.00    -0.008 A 
ATOM     18  C   UNL     1      -0.537   7.276 -12.619  0.00  0.00    +0.041 A 
ATOM     19  C   UNL     1      -0.203   7.641 -13.883  0.00  0.00    +0.127 A 
ATOM     20  C   UNL     1       1.119   7.854 -14.255  0.00  0.00    +0.034 A 
ATOM     21  C   UNL     1       2.122   7.692 -13.321  0.00  0.00    +0.018 A 
ATOM     22  C   UNL     1       1.799   7.321 -12.034  0.00  0.00    +0.020 A 
ATOM     23  S   UNL     1       2.736   7.008 -10.559  0.00  0.00    -0.084 S 
BRANCH  19  24
ATOM     24  N   UNL     1      -1.273   7.817 -14.890  0.00  0.00    +0.056 N 
ATOM     25  O   UNL     1      -2.437   7.635 -14.581  0.00  0.00    -0.126 OA
ATOM     26  O   UNL     1      -0.990   8.145 -16.029  0.00  0.00    -0.126 OA
ENDBRANCH  19  24
ENDBRANCH  12  15
ENDBRANCH   5  11
BRANCH   1  27
ATOM     27  C   UNL     1       5.118   5.931  -5.752  0.00  0.00    +0.342 C 
ATOM     28  O   UNL     1       5.767   5.021  -6.231  0.00  0.00    -0.245 OA
BRANCH  27  30
ATOM     29  C   UNL     1       6.990   7.346  -6.201  0.00  0.00    +0.280 C 
ATOM     30  O   UNL     1       5.645   7.171  -5.684  0.00  0.00    -0.464 OA
ENDBRANCH  27  30
ENDBRANCH   1  27
BRANCH   9  31
ATOM     31  C   UNL     1       2.451   3.937  -0.001  0.00  0.00    -0.043 C 
BRANCH  31  32
ATOM     32  C   UNL     1       1.156   3.165   0.008  0.00  0.00    -0.064 A 
ATOM     33  C   UNL     1       1.175   1.783   0.000  0.00  0.00    +0.002 A 
ATOM     34  C   UNL     1      -0.013   1.076   0.008  0.00  0.00    +0.000 A 
ATOM     35  C   UNL     1      -1.219   1.751   0.017  0.00  0.00    +0.000 A 
ATOM     36  C   UNL     1      -1.238   3.133   0.030  0.00  0.00    +0.000 A 
ATOM     37  C   UNL     1      -0.050   3.840   0.023  0.00  0.00    +0.002 A 
ENDBRANCH  31  32
ENDBRANCH   9  31
TORSDOF 7
