REMARK  Name = ZINC00678946
REMARK  10 active torsions:
REMARK  status: ('A' for Active; 'I' for Inactive)
REMARK    1  A    between atoms: C_1  and  C_2
REMARK    2  A    between atoms: C_3  and  C_32
REMARK    3  A    between atoms: C_4  and  C_25
REMARK    4  A    between atoms: C_10  and  C_15
REMARK    5  A    between atoms: C_18  and  O_23
REMARK    6  A    between atoms: C_19  and  O_21
REMARK    7  A    between atoms: O_21  and  C_22
REMARK    8  A    between atoms: O_23  and  C_24
REMARK    9  A    between atoms: C_32  and  O_34
REMARK   10  A    between atoms: O_34  and  C_35
REMARK                            x       y       z     vdW  Elec       q    Type
REMARK                         _______ _______ _______ _____ _____    ______ ____
ROOT
ATOM      1  C   UNL     1      -6.388   1.784  -0.946  0.00  0.00    +0.061 C 
ATOM      2  C   UNL     1      -4.897   1.954  -1.087  0.00  0.00    +0.016 C 
ATOM      3  C   UNL     1      -4.359   2.147  -2.304  0.00  0.00    +0.065 C 
ATOM      4  C   UNL     1      -2.880   2.329  -2.481  0.00  0.00    +0.093 C 
ATOM      5  C   UNL     1      -2.126   1.845  -1.268  0.00  0.00    +0.024 C 
ATOM      6  C   UNL     1      -2.759   1.663  -0.090  0.00  0.00    +0.016 C 
ATOM      7  N   UNL     1      -4.101   1.912   0.023  0.00  0.00    -0.321 N 
ATOM      8  C   UNL     1      -2.012   1.176   1.127  0.00  0.00    +0.059 C 
ATOM      9  C   UNL     1      -0.558   1.657   1.067  0.00  0.00    +0.032 C 
ATOM     10  C   UNL     1       0.072   1.128  -0.226  0.00  0.00    +0.088 C 
ATOM     11  C   UNL     1      -0.749   1.593  -1.398  0.00  0.00    +0.162 C 
ATOM     12  O   UNL     1      -0.212   1.754  -2.477  0.00  0.00    -0.292 OA
ATOM     13  H   UNL     1      -4.537   2.079   1.019  0.00  0.00    +0.152 HD
ENDROOT
BRANCH   4  14
ATOM     14  C   UNL     1      -2.584   3.790  -2.698  0.00  0.00    -0.021 A 
ATOM     15  C   UNL     1      -2.896   4.712  -1.716  0.00  0.00    +0.005 A 
ATOM     16  C   UNL     1      -2.624   6.052  -1.915  0.00  0.00    +0.000 A 
ATOM     17  C   UNL     1      -2.039   6.472  -3.096  0.00  0.00    +0.001 A 
ATOM     18  C   UNL     1      -1.727   5.551  -4.078  0.00  0.00    +0.015 A 
ATOM     19  C   UNL     1      -1.995   4.209  -3.877  0.00  0.00    +0.022 A 
ATOM     20 BR   UNL     1      -1.561   2.947  -5.218  0.00  0.00    -0.050 Br
ENDBRANCH   4  14
BRANCH   9  21
ATOM     21  C   UNL     1       0.203   1.127   2.254  0.00  0.00    -0.040 A 
ATOM     22  C   UNL     1       0.295  -0.236   2.463  0.00  0.00    +0.008 A 
ATOM     23  C   UNL     1       0.993  -0.727   3.551  0.00  0.00    +0.049 A 
ATOM     24  C   UNL     1       1.602   0.149   4.435  0.00  0.00    +0.161 A 
ATOM     25  C   UNL     1       1.509   1.522   4.226  0.00  0.00    +0.162 A 
ATOM     26  C   UNL     1       0.814   2.006   3.130  0.00  0.00    +0.053 A 
BRANCH  25  27
ATOM     27  O   UNL     1       2.105   2.385   5.091  0.00  0.00    -0.491 OA
ATOM     28  C   UNL     1       1.968   3.780   4.813  0.00  0.00    +0.277 C 
ENDBRANCH  25  27
BRANCH  24  29
ATOM     29  O   UNL     1       2.288  -0.332   5.506  0.00  0.00    -0.491 OA
ATOM     30  C   UNL     1       2.341  -1.752   5.659  0.00  0.00    +0.277 C 
ENDBRANCH  24  29
ENDBRANCH   9  21
BRANCH   3  31
ATOM     31  C   UNL     1      -5.203   2.178  -3.438  0.00  0.00    +0.337 C 
ATOM     32  O   UNL     1      -6.388   1.928  -3.322  0.00  0.00    -0.245 OA
BRANCH  31  33
ATOM     33  O   UNL     1      -4.694   2.486  -4.650  0.00  0.00    -0.465 OA
ATOM     34  C   UNL     1      -5.604   2.499  -5.752  0.00  0.00    +0.280 C 
ENDBRANCH  31  33
ENDBRANCH   3  31
TORSDOF 6
