REMARK  Name = ZINC12054819
REMARK  5 active torsions:
REMARK  status: ('A' for Active; 'I' for Inactive)
REMARK    1  A    between atoms: C_8  and  C_10
REMARK    2  A    between atoms: C_10  and  N_56
REMARK    3  A    between atoms: C_11  and  N_56
REMARK    4  A    between atoms: C_25  and  C_28
REMARK    5  A    between atoms: C_28  and  O_29
REMARK                            x       y       z     vdW  Elec       q    Type
REMARK                         _______ _______ _______ _____ _____    ______ ____
ROOT
ATOM      1  C   UNL     1      -0.909   1.762  -1.119  0.00  0.00    -0.037 C 
ATOM      2  C   UNL     1      -0.464   3.063  -1.785  0.00  0.00    -0.011 C 
ATOM      3  C   UNL     1      -1.527   3.472  -2.812  0.00  0.00    +0.005 C 
ATOM      4  C   UNL     1      -2.784   3.910  -2.060  0.00  0.00    +0.056 C 
ATOM      5  C   UNL     1      -3.185   2.867  -1.053  0.00  0.00    +0.048 A 
ATOM      6  C   UNL     1      -2.322   1.883  -0.620  0.00  0.00    -0.022 A 
ATOM      7  C   UNL     1      -2.778   0.964   0.318  0.00  0.00    +0.118 A 
ATOM      8  N   UNL     1      -4.019   1.055   0.765  0.00  0.00    -0.223 NA
ATOM      9  C   UNL     1      -4.825   2.010   0.326  0.00  0.00    +0.218 A 
ATOM     10  N   UNL     1      -4.420   2.900  -0.565  0.00  0.00    -0.219 NA
ATOM     11  N   UNL     1      -6.119   2.078   0.810  0.00  0.00    -0.300 N 
ATOM     12  C   UNL     1      -6.396   3.400   1.388  0.00  0.00    +0.108 C 
ATOM     13  C   UNL     1      -7.873   3.487   1.779  0.00  0.00    +0.025 C 
ATOM     14  C   UNL     1      -8.193   2.388   2.796  0.00  0.00    +0.017 C 
ATOM     15  C   UNL     1      -7.850   1.025   2.187  0.00  0.00    +0.025 C 
ATOM     16  C   UNL     1      -6.374   1.009   1.784  0.00  0.00    +0.108 C 
ENDROOT
BRANCH   1  17
ATOM     17  N   UNL     1      -0.020   1.468   0.020  0.00  0.00    +0.388 N 
ATOM     18  H   UNL     1       0.273   2.349   0.458  0.00  0.00    -0.084 HD
ATOM     19  H   UNL     1      -0.526   0.896   0.707  0.00  0.00    -0.084 HD
BRANCH  17  20
ATOM     20  C   UNL     1       1.174   0.733  -0.438  0.00  0.00    -0.006 C 
BRANCH  20  28
ATOM     21  C   UNL     1       4.230  -1.298   4.398  0.00  0.00    +0.001 A 
ATOM     22  C   UNL     1       4.890  -0.086   4.255  0.00  0.00    +0.004 A 
ATOM     23  C   UNL     1       4.546   0.788   3.246  0.00  0.00    +0.047 A 
ATOM     24  C   UNL     1       3.528   0.455   2.361  0.00  0.00    +0.135 A 
ATOM     25  C   UNL     1       2.863  -0.774   2.511  0.00  0.00    +0.020 A 
ATOM     26  C   UNL     1       3.225  -1.645   3.538  0.00  0.00    +0.011 A 
ATOM     27  C   UNL     1       1.861  -0.810   1.440  0.00  0.00    +0.051 A 
ATOM     28  C   UNL     1       1.999   0.335   0.759  0.00  0.00    +0.090 A 
ATOM     29  O   UNL     1       2.977   1.081   1.302  0.00  0.00    -0.462 OA
ENDBRANCH  20  28
ENDBRANCH  17  20
ENDBRANCH   1  17
BRANCH  14  30
ATOM     30  C   UNL     1      -9.682   2.432   3.145  0.00  0.00    +0.159 C 
BRANCH  30  31
ATOM     31  O   UNL     1      -9.977   3.657   3.818  0.00  0.00    -0.395 OA
ATOM     32  H   UNL     1     -10.906   3.754   4.070  0.00  0.00    +0.209 HD
ENDBRANCH  30  31
ENDBRANCH  14  30
TORSDOF 5
