REMARK  Name = ZINC38776890
REMARK  8 active torsions:
REMARK  status: ('A' for Active; 'I' for Inactive)
REMARK    1  A    between atoms: C_1  and  C_2
REMARK    2  A    between atoms: C_3  and  O_24
REMARK    3  A    between atoms: C_4  and  C_8
REMARK    4  A    between atoms: C_11  and  O_15
REMARK    5  A    between atoms: C_13  and  O_14
REMARK    6  A    between atoms: O_15  and  C_16
REMARK    7  A    between atoms: C_16  and  C_17
REMARK    8  A    between atoms: O_24  and  C_25
REMARK                            x       y       z     vdW  Elec       q    Type
REMARK                         _______ _______ _______ _____ _____    ______ ____
ROOT
ATOM      1  C   UNL     1      -1.206  -2.841   1.865  0.00  0.00    +0.025 A 
ATOM      2  C   UNL     1      -0.302  -2.781   2.910  0.00  0.00    +0.013 A 
ATOM      3  C   UNL     1      -0.684  -3.169   4.179  0.00  0.00    +0.046 A 
ATOM      4  C   UNL     1      -1.977  -3.618   4.409  0.00  0.00    +0.124 A 
ATOM      5  C   UNL     1      -2.885  -3.679   3.364  0.00  0.00    +0.091 A 
ATOM      6  C   UNL     1      -2.501  -3.284   2.091  0.00  0.00    +0.126 A 
ENDROOT
BRANCH   1  10
ATOM      7  C   UNL     1       0.217   1.097  -0.290  0.00  0.00    +0.071 C 
ATOM      8  C   UNL     1       0.036  -0.368   0.012  0.00  0.00    +0.098 C 
ATOM      9  C   UNL     1      -1.153  -0.965   0.228  0.00  0.00    +0.156 C 
ATOM     10  C   UNL     1      -0.785  -2.417   0.481  0.00  0.00    +0.200 C 
ATOM     11  N   UNL     1       0.683  -2.408   0.358  0.00  0.00    -0.294 N 
ATOM     12  N   UNL     1       1.034  -1.256   0.097  0.00  0.00    -0.179 NA
ATOM     13  H   UNL     1       1.269  -3.175   0.459  0.00  0.00    +0.184 HD
BRANCH   9  14
ATOM     14  O   UNL     1      -2.382  -0.405   0.221  0.00  0.00    -0.455 OA
BRANCH  14  15
ATOM     15  C   UNL     1      -3.256  -0.796  -0.744  0.00  0.00    +0.142 A 
ATOM     16  C   UNL     1      -2.840  -1.653  -1.753  0.00  0.00    +0.047 A 
ATOM     17  C   UNL     1      -3.731  -2.048  -2.732  0.00  0.00    +0.004 A 
ATOM     18  C   UNL     1      -5.035  -1.592  -2.707  0.00  0.00    +0.001 A 
ATOM     19  C   UNL     1      -5.453  -0.738  -1.703  0.00  0.00    +0.019 A 
ATOM     20  C   UNL     1      -4.568  -0.343  -0.718  0.00  0.00    +0.060 A 
ATOM     21 BR   UNL     1      -5.142   0.819   0.660  0.00  0.00    -0.046 Br
ENDBRANCH  14  15
ENDBRANCH   9  14
ENDBRANCH   1  10
BRANCH   6  22
ATOM     22  O   UNL     1      -3.390  -3.336   1.065  0.00  0.00    -0.506 OA
ATOM     23  H   UNL     1      -3.395  -4.179   0.591  0.00  0.00    +0.292 HD
ENDBRANCH   6  22
BRANCH   4  24
ATOM     24  O   UNL     1      -2.353  -4.000   5.659  0.00  0.00    -0.487 OA
BRANCH  24  25
ATOM     25  C   UNL     1      -1.365  -3.912   6.688  0.00  0.00    +0.267 C 
BRANCH  25  26
ATOM     26  C   UNL     1      -1.959  -4.373   7.994  0.00  0.00    +0.025 A 
ATOM     27  C   UNL     1      -3.273  -4.797   8.045  0.00  0.00    +0.010 A 
ATOM     28  C   UNL     1      -3.818  -5.220   9.242  0.00  0.00    +0.001 A 
ATOM     29  C   UNL     1      -3.049  -5.219  10.392  0.00  0.00    +0.003 A 
ATOM     30  C   UNL     1      -1.734  -4.796  10.343  0.00  0.00    +0.039 A 
ATOM     31  C   UNL     1      -1.186  -4.377   9.143  0.00  0.00    +0.130 A 
ATOM     32  F   UNL     1       0.101  -3.967   9.093  0.00  0.00    -0.205 F 
ENDBRANCH  25  26
ENDBRANCH  24  25
ENDBRANCH   4  24
TORSDOF 7
