REMARK  Name = ZINC06442595
REMARK  7 active torsions:
REMARK  status: ('A' for Active; 'I' for Inactive)
REMARK    1  A    between atoms: C_1  and  C_2
REMARK    2  A    between atoms: C_7  and  C_15
REMARK    3  A    between atoms: C_13  and  C_14
REMARK    4  A    between atoms: C_15  and  C_17
REMARK    5  A    between atoms: C_15  and  N_63
REMARK    6  A    between atoms: N_21  and  C_22
REMARK    7  A    between atoms: C_22  and  C_23
REMARK                            x       y       z     vdW  Elec       q    Type
REMARK                         _______ _______ _______ _____ _____    ______ ____
ROOT
ATOM      1  C   UNL     1       1.665   6.426  -1.703  0.00  0.00    +0.039 C 
ENDROOT
BRANCH   1   8
ATOM      2  C   UNL     1       5.998  12.707   0.619  0.00  0.00    +0.044 C 
ATOM      3  C   UNL     1       5.114  11.506   0.404  0.00  0.00    -0.046 A 
ATOM      4  C   UNL     1       4.427  10.957   1.479  0.00  0.00    +0.004 A 
ATOM      5  C   UNL     1       3.620   9.868   1.306  0.00  0.00    +0.010 A 
ATOM      6  C   UNL     1       3.485   9.301   0.034  0.00  0.00    -0.001 A 
ATOM      7  C   UNL     1       2.629   8.134  -0.187  0.00  0.00    +0.017 A 
ATOM      8  C   UNL     1       2.537   7.627  -1.441  0.00  0.00    +0.011 A 
ATOM      9  C   UNL     1       3.260   8.216  -2.501  0.00  0.00    +0.251 A 
ATOM     10  O   UNL     1       3.166   7.741  -3.619  0.00  0.00    -0.268 OA
ATOM     11  N   UNL     1       4.043   9.291  -2.308  0.00  0.00    -0.322 N 
ATOM     12  H   UNL     1       4.523   9.674  -3.060  0.00  0.00    +0.169 HD
ATOM     13  C   UNL     1       4.180   9.855  -1.058  0.00  0.00    +0.052 A 
ATOM     14  C   UNL     1       4.995  10.964  -0.857  0.00  0.00    -0.024 A 
ATOM     15  C   UNL     1       5.745  11.570  -2.015  0.00  0.00    +0.046 C 
ENDBRANCH   1   8
BRANCH   1  22
ATOM     16  C   UNL     1      -0.015   8.001  -2.477  0.00  0.00    -0.077 C 
ATOM     17  C   UNL     1      -1.191   8.226  -3.389  0.00  0.00    -0.019 C 
ATOM     18  C   UNL     1      -2.456   7.670  -2.703  0.00  0.00    -0.002 C 
ATOM     19  C   UNL     1      -2.548   6.218  -2.810  0.00  0.00    -0.002 C 
ATOM     20  C   UNL     1      -1.358   5.507  -2.133  0.00  0.00    -0.019 C 
ATOM     21  C   UNL     1      -0.171   5.582  -3.054  0.00  0.00    -0.077 C 
ATOM     22  N   UNL     1       0.745   6.747  -2.805  0.00  0.00    +0.389 N 
ATOM     23  H   UNL     1       1.294   6.915  -3.657  0.00  0.00    -0.080 HD
ENDBRANCH   1  22
BRANCH   1  24
ATOM     24  C   UNL     1       2.525   5.264  -2.130  0.00  0.00    +0.143 A 
ATOM     25  N   UNL     1       3.095   5.100  -3.299  0.00  0.00    -0.115 NA
ATOM     26  N   UNL     1       3.742   3.986  -3.273  0.00  0.00    -0.023 NA
ATOM     27  N   UNL     1       3.606   3.439  -2.116  0.00  0.00    -0.044 NA
ATOM     28  N   UNL     1       2.858   4.194  -1.384  0.00  0.00    -0.226 N 
BRANCH  28  29
ATOM     29  C   UNL     1       2.451   3.937  -0.001  0.00  0.00    +0.182 C 
BRANCH  29  30
ATOM     30  C   UNL     1       1.156   3.165   0.008  0.00  0.00    -0.026 A 
ATOM     31  C   UNL     1       1.175   1.783   0.000  0.00  0.00    +0.005 A 
ATOM     32  C   UNL     1      -0.013   1.076   0.008  0.00  0.00    +0.000 A 
ATOM     33  C   UNL     1      -1.219   1.751   0.017  0.00  0.00    +0.000 A 
ATOM     34  C   UNL     1      -1.238   3.133   0.030  0.00  0.00    +0.000 A 
ATOM     35  C   UNL     1      -0.050   3.840   0.023  0.00  0.00    +0.005 A 
ENDBRANCH  29  30
ENDBRANCH  28  29
ENDBRANCH   1  24
TORSDOF 5
