REMARK  Name = ZINC65218840
REMARK  4 active torsions:
REMARK  status: ('A' for Active; 'I' for Inactive)
REMARK    1  A    between atoms: C_4  and  C_7
REMARK    2  A    between atoms: C_9  and  C_13
REMARK    3  A    between atoms: C_14  and  N_18
REMARK    4  A    between atoms: C_19  and  C_21
REMARK                            x       y       z     vdW  Elec       q    Type
REMARK                         _______ _______ _______ _____ _____    ______ ____
ROOT
ATOM      1  C   UNL     1       5.383  -3.542   0.378  0.00  0.00    +0.062 A 
ATOM      2  C   UNL     1       6.358  -3.943   1.236  0.00  0.00    +0.048 A 
ATOM      3  C   UNL     1       6.226  -5.168   1.873  0.00  0.00    +0.031 A 
ATOM      4  C   UNL     1       5.131  -5.925   1.620  0.00  0.00    +0.047 A 
ATOM      5  S   UNL     1       4.235  -4.907   0.459  0.00  0.00    -0.095 S 
ENDROOT
BRANCH   1   8
ATOM      6  C   UNL     1       3.687  -0.733  -0.086  0.00  0.00    +0.134 C 
ATOM      7  N   UNL     1       3.886  -1.896  -0.625  0.00  0.00    -0.338 N 
ATOM      8  C   UNL     1       5.291  -2.272  -0.427  0.00  0.00    +0.282 C 
ATOM      9  O   UNL     1       5.881  -1.180   0.294  0.00  0.00    -0.243 OA
ATOM     10  N   UNL     1       4.836  -0.239   0.479  0.00  0.00    -0.247 N 
ATOM     11  H   UNL     1       4.920   0.615   0.932  0.00  0.00    +0.196 HD
ATOM     12  H   UNL     1       3.217  -2.429  -1.082  0.00  0.00    +0.164 HD
BRANCH   6  16
ATOM     13  C   UNL     1      -0.046   1.297  -0.084  0.00  0.00    +0.000 A 
ATOM     14  C   UNL     1       1.132   2.022  -0.086  0.00  0.00    +0.001 A 
ATOM     15  C   UNL     1       2.347   1.369  -0.087  0.00  0.00    +0.011 A 
ATOM     16  C   UNL     1       2.386  -0.026  -0.085  0.00  0.00    +0.017 A 
ATOM     17  C   UNL     1       1.195  -0.751  -0.083  0.00  0.00    +0.011 A 
ATOM     18  C   UNL     1      -0.015  -0.086  -0.083  0.00  0.00    +0.001 A 
ENDBRANCH   6  16
ENDBRANCH   1   8
BRANCH   2  19
ATOM     19  N   UNL     1       7.481  -3.131   1.473  0.00  0.00    -0.281 N 
ATOM     20  C   UNL     1       8.054  -3.111   2.693  0.00  0.00    +0.248 C 
ATOM     21  O   UNL     1       7.648  -3.853   3.567  0.00  0.00    -0.270 OA
ATOM     22  H   UNL     1       7.844  -2.584   0.759  0.00  0.00    +0.155 HD
BRANCH  20  23
ATOM     23  C   UNL     1       9.175  -2.188   2.969  0.00  0.00    +0.035 C 
ATOM     24  C   UNL     1       9.733  -2.195   4.202  0.00  0.00    +0.017 C 
ATOM     25  C   UNL     1      10.928  -1.325   4.461  0.00  0.00    +0.159 C 
ATOM     26  C   UNL     1      10.835  -0.128   3.534  0.00  0.00    -0.018 C 
ATOM     27  C   UNL     1      11.036   0.948   4.314  0.00  0.00    +0.025 C 
ATOM     28  C   UNL     1      11.084   0.543   5.667  0.00  0.00    +0.106 C 
ATOM     29  N   UNL     1      10.991  -0.752   5.798  0.00  0.00    -0.279 NA
ATOM     30  C   UNL     1      10.452  -0.245   2.182  0.00  0.00    +0.007 C 
ATOM     31  C   UNL     1       9.642  -1.305   1.893  0.00  0.00    +0.013 C 
ENDBRANCH  20  23
ENDBRANCH   2  19
TORSDOF 4
