REMARK  Name = ZINC12655783
REMARK  7 active torsions:
REMARK  status: ('A' for Active; 'I' for Inactive)
REMARK    1  A    between atoms: N_9  and  C_12
REMARK    2  A    between atoms: C_12  and  O_13
REMARK    3  A    between atoms: O_13  and  C_14
REMARK    4  A    between atoms: C_14  and  C_16
REMARK    5  A    between atoms: C_16  and  N_23
REMARK    6  A    between atoms: C_17  and  C_18
REMARK    7  A    between atoms: C_24  and  C_26
REMARK                            x       y       z     vdW  Elec       q    Type
REMARK                         _______ _______ _______ _____ _____    ______ ____
ROOT
ATOM      1  C   UNL     1       1.230   1.703  -0.314  0.00  0.00    +0.122 C 
ATOM      2  C   UNL     1       2.400   1.030  -0.139  0.00  0.00    +0.076 C 
ENDROOT
BRANCH   2   3
ATOM      3  C   UNL     1       3.624   1.739  -0.089  0.00  0.00    +0.130 A 
ATOM      4  C   UNL     1       4.884   1.181  -0.017  0.00  0.00    +0.049 A 
ATOM      5  C   UNL     1       5.793   2.251   0.011  0.00  0.00    +0.042 A 
ATOM      6  C   UNL     1       5.070   3.391  -0.042  0.00  0.00    +0.195 A 
ATOM      7  O   UNL     1       3.767   3.080  -0.108  0.00  0.00    -0.463 OA
ENDBRANCH   2   3
BRANCH   1   8
ATOM      8  N   UNL     1       1.245   3.083  -0.546  0.00  0.00    -0.276 N 
ATOM      9  C   UNL     1       0.713   3.582  -1.680  0.00  0.00    +0.248 C 
ATOM     10  O   UNL     1       0.132   2.845  -2.454  0.00  0.00    -0.270 OA
ATOM     11  H   UNL     1       1.638   3.681   0.108  0.00  0.00    +0.155 HD
BRANCH   9  12
ATOM     12  C   UNL     1       0.835   5.023  -1.982  0.00  0.00    +0.037 A 
ATOM     13  C   UNL     1       1.590   5.852  -1.151  0.00  0.00    +0.014 A 
ATOM     14  C   UNL     1       1.706   7.195  -1.442  0.00  0.00    +0.016 A 
ATOM     15  C   UNL     1       1.064   7.724  -2.549  0.00  0.00    +0.018 A 
ATOM     16  C   UNL     1       0.309   6.908  -3.374  0.00  0.00    +0.016 A 
ATOM     17  C   UNL     1       0.191   5.562  -3.098  0.00  0.00    +0.014 A 
ATOM     18 BR   UNL     1       1.221   9.568  -2.936  0.00  0.00    -0.050 Br
ENDBRANCH   9  12
ENDBRANCH   1   8
BRANCH   1  19
ATOM     19  C   UNL     1      -0.043   0.984  -0.259  0.00  0.00    +0.355 C 
ATOM     20  O   UNL     1      -1.089   1.585  -0.421  0.00  0.00    -0.243 OA
BRANCH  19  21
ATOM     21  O   UNL     1      -0.057  -0.347  -0.035  0.00  0.00    -0.440 OA
BRANCH  21  22
ATOM     22  C   UNL     1      -1.337  -0.970   0.093  0.00  0.00    +0.353 C 
BRANCH  22  31
ATOM     23  C   UNL     1      -3.309  -2.332  -5.499  0.00  0.00    +0.001 A 
ATOM     24  C   UNL     1      -4.163  -1.266  -5.287  0.00  0.00    +0.001 A 
ATOM     25  C   UNL     1      -4.123  -0.560  -4.095  0.00  0.00    +0.014 A 
ATOM     26  C   UNL     1      -3.220  -0.926  -3.109  0.00  0.00    +0.049 A 
ATOM     27  C   UNL     1      -2.349  -2.013  -3.326  0.00  0.00    +0.049 A 
ATOM     28  C   UNL     1      -2.401  -2.709  -4.523  0.00  0.00    +0.014 A 
ATOM     29  C   UNL     1      -1.535  -2.130  -2.098  0.00  0.00    +0.256 C 
ATOM     30  O   UNL     1      -0.665  -2.954  -1.900  0.00  0.00    -0.269 OA
ATOM     31  N   UNL     1      -1.918  -1.170  -1.237  0.00  0.00    -0.199 N 
ATOM     32  C   UNL     1      -2.909  -0.423  -1.755  0.00  0.00    +0.256 C 
ATOM     33  O   UNL     1      -3.455   0.512  -1.204  0.00  0.00    -0.269 OA
ENDBRANCH  22  31
ENDBRANCH  21  22
ENDBRANCH  19  21
ENDBRANCH   1  19
TORSDOF 7
