REMARK  Name = ZINC53095569
REMARK  4 active torsions:
REMARK  status: ('A' for Active; 'I' for Inactive)
REMARK    1  A    between atoms: C_2  and  C_11
REMARK    2  A    between atoms: N_13  and  C_14
REMARK    3  A    between atoms: C_14  and  C_20
REMARK    4  A    between atoms: C_20  and  O_21
REMARK                            x       y       z     vdW  Elec       q    Type
REMARK                         _______ _______ _______ _____ _____    ______ ____
ROOT
ATOM      1  C   UNL     1       1.505   3.338   0.013  0.00  0.00    +0.251 C 
ATOM      2  O   UNL     1       0.391   3.810   0.145  0.00  0.00    -0.270 OA
ATOM      3  N   UNL     1       2.581   4.148  -0.017  0.00  0.00    -0.303 N 
ATOM      4  H   UNL     1       3.463   3.778  -0.180  0.00  0.00    +0.150 HD
ENDROOT
BRANCH   1   6
ATOM      5  C   UNL     1       0.586   1.027   0.043  0.00  0.00    +0.132 A 
ATOM      6  C   UNL     1       1.675   1.885  -0.114  0.00  0.00    +0.119 A 
ATOM      7  C   UNL     1       2.946   1.334  -0.396  0.00  0.00    +0.267 A 
ATOM      8  O   UNL     1       3.909   2.065  -0.553  0.00  0.00    -0.267 OA
ATOM      9  N   UNL     1       3.093  -0.023  -0.493  0.00  0.00    -0.286 N 
ATOM     10  C   UNL     1       1.966  -0.782  -0.359  0.00  0.00    +0.172 A 
ATOM     11  N   UNL     1       0.778  -0.276  -0.089  0.00  0.00    -0.231 NA
ATOM     12  S   UNL     1       2.466  -2.471  -0.634  0.00  0.00    -0.086 S 
ATOM     13  C   UNL     1       4.148  -2.139  -1.307  0.00  0.00    +0.099 C 
ATOM     14  C   UNL     1       4.363  -0.724  -0.721  0.00  0.00    +0.138 C 
ENDBRANCH   1   6
BRANCH   3  15
ATOM     15  C   UNL     1       2.420   5.588   0.198  0.00  0.00    +0.058 C 
ATOM     16  C   UNL     1       1.647   5.827   1.496  0.00  0.00    +0.028 C 
ATOM     17  C   UNL     1       2.420   5.220   2.669  0.00  0.00    +0.002 C 
ATOM     18  C   UNL     1       3.798   5.878   2.767  0.00  0.00    +0.000 C 
ATOM     19  C   UNL     1       4.571   5.639   1.469  0.00  0.00    +0.002 C 
ATOM     20  C   UNL     1       3.798   6.247   0.296  0.00  0.00    +0.028 C 
BRANCH  15  21
ATOM     21  C   UNL     1       1.647   6.196  -0.975  0.00  0.00    +0.181 C 
BRANCH  21  22
ATOM     22  O   UNL     1       0.329   5.645  -1.013  0.00  0.00    -0.393 OA
ATOM     23  H   UNL     1      -0.219   5.985  -1.733  0.00  0.00    +0.209 HD
ENDBRANCH  21  22
ENDBRANCH  15  21
ENDBRANCH   3  15
TORSDOF 4
