REMARK  Name = ZINC20188049
REMARK  7 active torsions:
REMARK  status: ('A' for Active; 'I' for Inactive)
REMARK    1  A    between atoms: C_1  and  C_2
REMARK    2  A    between atoms: C_3  and  N_9
REMARK    3  A    between atoms: N_9  and  S_10
REMARK    4  A    between atoms: S_10  and  C_13
REMARK    5  A    between atoms: C_16  and  C_19
REMARK    6  A    between atoms: C_19  and  C_21
REMARK    7  A    between atoms: C_19  and  N_22
REMARK                            x       y       z     vdW  Elec       q    Type
REMARK                         _______ _______ _______ _____ _____    ______ ____
ROOT
ATOM      1  S   UNL     1       3.729  -2.135  -0.765  0.00  0.00    +0.072 S 
ATOM      2  O   UNL     1       5.052  -2.602  -0.537  0.00  0.00    -0.150 OA
ATOM      3  O   UNL     1       2.582  -2.871  -0.362  0.00  0.00    -0.150 OA
ENDROOT
BRANCH   1   4
ATOM      4  C   UNL     1       3.578  -1.877  -2.501  0.00  0.00    +0.109 A 
ATOM      5  C   UNL     1       2.332  -1.910  -3.099  0.00  0.00    +0.029 A 
ATOM      6  C   UNL     1       2.212  -1.703  -4.460  0.00  0.00    +0.004 A 
ATOM      7  C   UNL     1       3.340  -1.472  -5.226  0.00  0.00    -0.062 A 
ATOM      8  C   UNL     1       4.587  -1.444  -4.629  0.00  0.00    +0.004 A 
ATOM      9  C   UNL     1       4.705  -1.646  -3.267  0.00  0.00    +0.029 A 
BRANCH   7  10
ATOM     10  C   UNL     1       3.210  -1.251  -6.711  0.00  0.00    -0.047 C 
ATOM     11  C   UNL     1       2.780   0.193  -6.976  0.00  0.00    -0.009 C 
BRANCH  10  12
ATOM     12  N   UNL     1       2.202  -2.170  -7.256  0.00  0.00    +0.382 N 
ATOM     13  H   UNL     1       2.108  -2.009  -8.340  0.00  0.00    -0.089 HD
ATOM     14  H   UNL     1       1.233  -1.981  -6.771  0.00  0.00    -0.089 HD
ATOM     15  H   UNL     1       2.511  -3.209  -7.066  0.00  0.00    -0.089 HD
ENDBRANCH  10  12
ENDBRANCH   7  10
ENDBRANCH   1   4
BRANCH   1  16
ATOM     16  N   UNL     1       3.619  -0.651  -0.037  0.00  0.00    -0.216 N 
ATOM     17  H   UNL     1       4.457  -0.271   0.566  0.00  0.00    +0.174 HD
BRANCH  16  20
ATOM     18  C   UNL     1       3.901   2.175  -0.207  0.00  0.00    +0.047 C 
ATOM     19  C   UNL     1       2.554   1.501  -0.278  0.00  0.00    -0.010 A 
ATOM     20  C   UNL     1       2.464   0.117  -0.191  0.00  0.00    +0.052 A 
ATOM     21  C   UNL     1       1.221  -0.500  -0.256  0.00  0.00    +0.025 A 
ATOM     22  C   UNL     1       0.079   0.263  -0.408  0.00  0.00    +0.003 A 
ATOM     23  C   UNL     1       0.172   1.640  -0.495  0.00  0.00    +0.020 A 
ATOM     24  C   UNL     1       1.409   2.258  -0.431  0.00  0.00    +0.046 A 
ATOM     25 CL   UNL     1       1.520   3.987  -0.541  0.00  0.00    -0.083 Cl
ENDBRANCH  16  20
ENDBRANCH   1  16
TORSDOF 5
