REMARK  Name = ZINC02131330
REMARK  11 active torsions:
REMARK  status: ('A' for Active; 'I' for Inactive)
REMARK    1  A    between atoms: C_1  and  C_2
REMARK    2  A    between atoms: C_7  and  C_8
REMARK    3  A    between atoms: C_17  and  C_19
REMARK    4  A    between atoms: C_19  and  C_20
REMARK    5  A    between atoms: N_25  and  C_28
REMARK    6  A    between atoms: C_28  and  C_29
REMARK    7  A    between atoms: C_29  and  C_30
REMARK    8  A    between atoms: C_33  and  O_38
REMARK    9  A    between atoms: C_34  and  O_36
REMARK   10  A    between atoms: O_36  and  C_37
REMARK   11  A    between atoms: O_38  and  C_39
REMARK                            x       y       z     vdW  Elec       q    Type
REMARK                         _______ _______ _______ _____ _____    ______ ____
ROOT
ATOM      1  C   UNL     1       5.096   8.180   1.185  0.00  0.00    +0.044 C 
ATOM      2  C   UNL     1       4.094   7.054   1.201  0.00  0.00    -0.046 A 
ATOM      3  C   UNL     1       4.460   5.801   0.744  0.00  0.00    +0.004 A 
ATOM      4  C   UNL     1       3.540   4.768   0.758  0.00  0.00    +0.005 A 
ATOM      5  C   UNL     1       2.263   4.987   1.226  0.00  0.00    -0.027 A 
ATOM      6  C   UNL     1       1.885   6.244   1.689  0.00  0.00    +0.039 A 
ATOM      7  C   UNL     1       2.817   7.279   1.671  0.00  0.00    -0.026 A 
ATOM      8  C   UNL     1       2.429   8.648   2.166  0.00  0.00    +0.046 C 
ATOM      9  N   UNL     1       0.554   6.222   2.112  0.00  0.00    -0.286 N 
ATOM     10  C   UNL     1      -0.007   5.006   1.962  0.00  0.00    +0.211 C 
ATOM     11  O   UNL     1      -1.143   4.692   2.246  0.00  0.00    -0.277 OA
ATOM     12  C   UNL     1       1.051   4.112   1.375  0.00  0.00    +0.050 C 
ATOM     13  C   UNL     1       0.607   3.532   0.026  0.00  0.00    +0.088 C 
ATOM     14  C   UNL     1       1.207   2.098   0.002  0.00  0.00    +0.073 C 
ATOM     15  C   UNL     1       1.959   1.944   1.340  0.00  0.00    -0.049 C 
ATOM     16  C   UNL     1      -0.014   1.208   0.009  0.00  0.00    +0.224 C 
ATOM     17  O   UNL     1       0.002  -0.004   0.002  0.00  0.00    -0.275 OA
ATOM     18  N   UNL     1      -1.117   1.966   0.017  0.00  0.00    -0.241 N 
ATOM     19  C   UNL     1      -0.885   3.284   0.031  0.00  0.00    +0.225 C 
ATOM     20  O   UNL     1      -1.738   4.145   0.041  0.00  0.00    -0.275 OA
ATOM     21  H   UNL     1       0.087   6.992   2.472  0.00  0.00    +0.155 HD
ATOM     22  N   UNL     1       1.330   2.956   2.211  0.00  0.00    +0.394 N 
ATOM     23  H   UNL     1       0.457   2.588   2.608  0.00  0.00    -0.083 HD
ATOM     24  H   UNL     1       1.969   3.215   2.972  0.00  0.00    -0.083 HD
ENDROOT
BRANCH  15  25
ATOM     25  C   UNL     1       1.796   0.522   1.881  0.00  0.00    +0.080 C 
BRANCH  25  26
ATOM     26  C   UNL     1       2.636   0.357   3.122  0.00  0.00    +0.209 C 
ATOM     27  O   UNL     1       3.300   1.285   3.532  0.00  0.00    -0.276 OA
ATOM     28  N   UNL     1       2.649  -0.822   3.775  0.00  0.00    -0.329 N 
ATOM     29  H   UNL     1       2.118  -1.565   3.446  0.00  0.00    +0.145 HD
ATOM     30  H   UNL     1       3.190  -0.929   4.573  0.00  0.00    +0.145 HD
ENDBRANCH  25  26
ENDBRANCH  15  25
BRANCH  18  31
ATOM     31  C   UNL     1      -2.468   1.400   0.016  0.00  0.00    +0.121 C 
BRANCH  31  32
ATOM     32  C   UNL     1      -2.935   1.191   1.458  0.00  0.00    +0.054 C 
BRANCH  32  33
ATOM     33  C   UNL     1      -4.325   0.609   1.456  0.00  0.00    -0.042 A 
ATOM     34  C   UNL     1      -5.424   1.447   1.471  0.00  0.00    +0.007 A 
ATOM     35  C   UNL     1      -6.701   0.918   1.463  0.00  0.00    +0.049 A 
ATOM     36  C   UNL     1      -6.882  -0.456   1.453  0.00  0.00    +0.161 A 
ATOM     37  C   UNL     1      -5.775  -1.300   1.444  0.00  0.00    +0.162 A 
ATOM     38  C   UNL     1      -4.498  -0.763   1.446  0.00  0.00    +0.053 A 
BRANCH  37  39
ATOM     39  O   UNL     1      -5.947  -2.649   1.433  0.00  0.00    -0.491 OA
ATOM     40  C   UNL     1      -4.766  -3.453   1.424  0.00  0.00    +0.277 C 
ENDBRANCH  37  39
BRANCH  36  41
ATOM     41  O   UNL     1      -8.137  -0.979   1.452  0.00  0.00    -0.491 OA
ATOM     42  C   UNL     1      -9.225  -0.053   1.461  0.00  0.00    +0.277 C 
ENDBRANCH  36  41
ENDBRANCH  32  33
ENDBRANCH  31  32
ENDBRANCH  18  31
TORSDOF 7
