REMARK  Name = ZINC06320942
REMARK  15 active torsions:
REMARK  status: ('A' for Active; 'I' for Inactive)
REMARK    1  A    between atoms: C_1  and  C_2
REMARK    2  A    between atoms: C_6  and  C_15
REMARK    3  A    between atoms: C_13  and  C_14
REMARK    4  A    between atoms: C_15  and  C_17
REMARK    5  A    between atoms: C_15  and  N_73
REMARK    6  A    between atoms: N_21  and  C_22
REMARK    7  A    between atoms: C_22  and  C_23
REMARK    8  A    between atoms: C_22  and  C_24
REMARK    9  A    between atoms: C_22  and  C_25
REMARK   10  A    between atoms: C_26  and  C_27
REMARK   11  A    between atoms: C_26  and  N_73
REMARK   12  A    between atoms: C_30  and  O_33
REMARK   13  A    between atoms: O_33  and  C_34
REMARK   14  A    between atoms: C_35  and  C_36
REMARK   15  A    between atoms: C_35  and  N_73
REMARK                            x       y       z     vdW  Elec       q    Type
REMARK                         _______ _______ _______ _____ _____    ______ ____
ROOT
ATOM      1  C   UNL     1      -0.476   0.882   1.222  0.00  0.00    +0.040 C 
ENDROOT
BRANCH   1   7
ATOM      2  C   UNL     1      -4.530  -0.359   7.357  0.00  0.00    +0.044 C 
ATOM      3  C   UNL     1      -3.743   0.568   6.468  0.00  0.00    -0.047 A 
ATOM      4  C   UNL     1      -3.176   0.087   5.321  0.00  0.00    +0.013 A 
ATOM      5  C   UNL     1      -2.446   0.947   4.495  0.00  0.00    -0.001 A 
ATOM      6  C   UNL     1      -1.828   0.467   3.258  0.00  0.00    +0.017 A 
ATOM      7  C   UNL     1      -1.128   1.345   2.499  0.00  0.00    +0.011 A 
ATOM      8  C   UNL     1      -1.011   2.694   2.899  0.00  0.00    +0.251 A 
ATOM      9  O   UNL     1      -0.380   3.468   2.200  0.00  0.00    -0.268 OA
ATOM     10  N   UNL     1      -1.578   3.146   4.031  0.00  0.00    -0.322 N 
ATOM     11  H   UNL     1      -1.478   4.079   4.276  0.00  0.00    +0.169 HD
ATOM     12  C   UNL     1      -2.299   2.302   4.849  0.00  0.00    +0.049 A 
ATOM     13  C   UNL     1      -2.886   2.769   6.020  0.00  0.00    +0.030 A 
ATOM     14  C   UNL     1      -3.601   1.903   6.819  0.00  0.00    -0.046 A 
ATOM     15  C   UNL     1      -4.236   2.412   8.088  0.00  0.00    +0.044 C 
ENDBRANCH   1   7
BRANCH   1  16
ATOM     16  C   UNL     1      -1.126   1.569   0.049  0.00  0.00    +0.143 A 
ATOM     17  N   UNL     1      -0.947   2.811  -0.329  0.00  0.00    -0.115 NA
ATOM     18  N   UNL     1      -1.674   3.019  -1.372  0.00  0.00    -0.023 NA
ATOM     19  N   UNL     1      -2.320   1.944  -1.664  0.00  0.00    -0.043 NA
ATOM     20  N   UNL     1      -2.009   1.027  -0.812  0.00  0.00    -0.225 N 
BRANCH  20  21
ATOM     21  C   UNL     1      -2.519  -0.346  -0.785  0.00  0.00    +0.059 C 
ATOM     22  C   UNL     1      -3.126  -0.638   0.589  0.00  0.00    +0.036 C 
ATOM     23  C   UNL     1      -3.594  -0.511  -1.862  0.00  0.00    +0.036 C 
ATOM     24  C   UNL     1      -1.373  -1.322  -1.054  0.00  0.00    +0.036 C 
ENDBRANCH  20  21
ENDBRANCH   1  16
BRANCH   1  25
ATOM     25  N   UNL     1       0.957   1.243   1.250  0.00  0.00    +0.397 N 
ATOM     26  H   UNL     1       1.046   2.261   1.147  0.00  0.00    -0.079 HD
BRANCH  25  27
ATOM     27  C   UNL     1       1.666   0.583   0.135  0.00  0.00    -0.041 C 
BRANCH  27  28
ATOM     28  C   UNL     1       1.534   1.443  -1.096  0.00  0.00    -0.064 A 
ATOM     29  C   UNL     1       0.586   1.135  -2.054  0.00  0.00    +0.005 A 
ATOM     30  C   UNL     1       0.459   1.926  -3.180  0.00  0.00    +0.046 A 
ATOM     31  C   UNL     1       1.291   3.022  -3.354  0.00  0.00    +0.120 A 
ATOM     32  C   UNL     1       2.245   3.326  -2.393  0.00  0.00    +0.046 A 
ATOM     33  C   UNL     1       2.364   2.535  -1.266  0.00  0.00    +0.005 A 
BRANCH  31  34
ATOM     34  O   UNL     1       1.172   3.799  -4.463  0.00  0.00    -0.495 OA
ATOM     35  C   UNL     1       0.168   3.427  -5.410  0.00  0.00    +0.277 C 
ENDBRANCH  31  34
ENDBRANCH  27  28
ENDBRANCH  25  27
BRANCH  25  36
ATOM     36  C   UNL     1       1.555   0.838   2.540  0.00  0.00    -0.001 C 
BRANCH  36  37
ATOM     37  C   UNL     1       2.882   1.533   2.697  0.00  0.00    +0.089 A 
ATOM     38  C   UNL     1       3.084   2.714   3.307  0.00  0.00    +0.042 A 
ATOM     39  C   UNL     1       4.469   2.986   3.225  0.00  0.00    +0.041 A 
ATOM     40  C   UNL     1       5.031   1.955   2.570  0.00  0.00    +0.195 A 
ATOM     41  O   UNL     1       4.066   1.074   2.258  0.00  0.00    -0.470 OA
ENDBRANCH  36  37
ENDBRANCH  25  36
ENDBRANCH   1  25
TORSDOF 9
