REMARK  Name = ZINC64354090
REMARK  3 active torsions:
REMARK  status: ('A' for Active; 'I' for Inactive)
REMARK    1  A    between atoms: C_4  and  O_26
REMARK    2  A    between atoms: C_5  and  N_7
REMARK    3  A    between atoms: C_13  and  C_15
REMARK                            x       y       z     vdW  Elec       q    Type
REMARK                         _______ _______ _______ _____ _____    ______ ____
ROOT
ATOM      1  N   UNL     1       0.357  -1.928   0.142  0.00  0.00    -0.324 N 
ATOM      2  C   UNL     1       0.398  -2.703   1.390  0.00  0.00    +0.124 C 
ATOM      3  C   UNL     1      -0.529  -3.916   1.244  0.00  0.00    +0.127 C 
ATOM      4  N   UNL     1      -0.218  -4.595  -0.022  0.00  0.00    -0.294 N 
ATOM      5  C   UNL     1      -0.259  -3.820  -1.270  0.00  0.00    +0.127 C 
ATOM      6  C   UNL     1       0.662  -2.608  -1.125  0.00  0.00    +0.124 C 
ATOM      7  C   UNL     1       0.099  -5.904  -0.038  0.00  0.00    +0.249 C 
ATOM      8  O   UNL     1       0.279  -6.474  -1.098  0.00  0.00    -0.270 OA
ENDROOT
BRANCH   7   9
ATOM      9  C   UNL     1       0.228  -6.645   1.225  0.00  0.00    +0.062 A 
ATOM     10  C   UNL     1      -0.671  -6.673   2.250  0.00  0.00    +0.096 A 
ATOM     11  N   UNL     1      -0.205  -7.464   3.246  0.00  0.00    -0.360 N 
ATOM     12  H   UNL     1      -0.672  -7.638   4.079  0.00  0.00    +0.165 HD
ATOM     13  C   UNL     1       1.025  -7.989   2.909  0.00  0.00    +0.049 A 
ATOM     14  C   UNL     1       1.352  -7.508   1.631  0.00  0.00    +0.012 A 
ATOM     15  C   UNL     1       2.550  -7.883   1.028  0.00  0.00    +0.012 A 
ATOM     16  C   UNL     1       3.412  -8.730   1.691  0.00  0.00    +0.021 A 
ATOM     17  C   UNL     1       3.089  -9.209   2.954  0.00  0.00    +0.043 A 
ATOM     18  C   UNL     1       1.909  -8.839   3.565  0.00  0.00    +0.046 A 
ATOM     19 CL   UNL     1       4.185 -10.276   3.775  0.00  0.00    -0.083 Cl
ENDBRANCH   7   9
BRANCH   1  24
ATOM     20  C   UNL     1      -1.619   1.173   0.053  0.00  0.00    +0.002 A 
ATOM     21  C   UNL     1      -0.625   2.124   0.191  0.00  0.00    +0.004 A 
ATOM     22  C   UNL     1       0.696   1.737   0.312  0.00  0.00    +0.047 A 
ATOM     23  C   UNL     1       1.028   0.392   0.297  0.00  0.00    +0.138 A 
ATOM     24  C   UNL     1       0.028  -0.567   0.159  0.00  0.00    +0.072 A 
ATOM     25  C   UNL     1      -1.296  -0.171   0.037  0.00  0.00    +0.027 A 
BRANCH  23  26
ATOM     26  O   UNL     1       2.328   0.009   0.416  0.00  0.00    -0.505 OA
ATOM     27  H   UNL     1       2.614  -0.134   1.329  0.00  0.00    +0.292 HD
ENDBRANCH  23  26
ENDBRANCH   1  24
TORSDOF 3
