REMARK  Name = ZINC09711980
REMARK  8 active torsions:
REMARK  status: ('A' for Active; 'I' for Inactive)
REMARK    1  A    between atoms: C_3  and  C_6
REMARK    2  A    between atoms: C_15  and  C_16
REMARK    3  A    between atoms: C_15  and  N_53
REMARK    4  A    between atoms: N_18  and  C_19
REMARK    5  A    between atoms: C_19  and  C_20
REMARK    6  A    between atoms: C_20  and  C_21
REMARK    7  A    between atoms: C_24  and  S_27
REMARK    8  A    between atoms: S_27  and  N_30
REMARK                            x       y       z     vdW  Elec       q    Type
REMARK                         _______ _______ _______ _____ _____    ______ ____
ROOT
ATOM      1  C   UNL     1       4.829  -0.002   3.044  0.00  0.00    +0.197 C 
ATOM      2  O   UNL     1       5.655  -0.717   2.517  0.00  0.00    -0.278 OA
ATOM      3  N   UNL     1       4.550  -0.147   4.355  0.00  0.00    -0.317 N 
ATOM      4  H   UNL     1       3.889   0.425   4.776  0.00  0.00    +0.149 HD
ENDROOT
BRANCH   1   5
ATOM      5  C   UNL     1       4.115   1.049   2.234  0.00  0.00    +0.020 C 
BRANCH   5  14
ATOM      6  C   UNL     1       3.761   1.845  -0.025  0.00  0.00    +0.002 C 
ATOM      7  C   UNL     1       4.316   1.783  -1.444  0.00  0.00    -0.046 A 
ATOM      8  C   UNL     1       3.591   2.142  -2.578  0.00  0.00    +0.010 A 
ATOM      9  C   UNL     1       4.162   2.054  -3.803  0.00  0.00    +0.045 A 
ATOM     10  S   UNL     1       5.794   1.445  -3.406  0.00  0.00    -0.101 S 
ATOM     11  C   UNL     1       5.593   1.355  -1.649  0.00  0.00    -0.010 A 
ATOM     12  C   UNL     1       6.566   0.920  -0.603  0.00  0.00    +0.024 C 
ATOM     13  C   UNL     1       6.016   1.366   0.763  0.00  0.00    -0.072 C 
ATOM     14  N   UNL     1       4.588   0.970   0.837  0.00  0.00    +0.393 N 
ATOM     15  H   UNL     1       4.497   0.001   0.510  0.00  0.00    -0.080 HD
BRANCH   6  18
ATOM     16  C   UNL     1      -0.016   1.351   0.009  0.00  0.00    +0.008 A 
ATOM     17  C   UNL     1       1.183   2.038   0.002  0.00  0.00    +0.010 A 
ATOM     18  C   UNL     1       2.343   1.336  -0.013  0.00  0.00    -0.019 A 
ATOM     19  S   UNL     1       1.754  -0.349  -0.017  0.00  0.00    -0.103 S 
ATOM     20  C   UNL     1       0.002  -0.004   0.002  0.00  0.00    +0.045 A 
ENDBRANCH   6  18
ENDBRANCH   5  14
ENDBRANCH   1   5
BRANCH   3  21
ATOM     21  C   UNL     1       5.243  -1.169   5.143  0.00  0.00    +0.109 C 
BRANCH  21  22
ATOM     22  C   UNL     1       4.745  -1.123   6.589  0.00  0.00    +0.054 C 
BRANCH  22  23
ATOM     23  C   UNL     1       5.459  -2.174   7.399  0.00  0.00    -0.046 A 
ATOM     24  C   UNL     1       4.926  -3.446   7.505  0.00  0.00    +0.005 A 
ATOM     25  C   UNL     1       5.583  -4.411   8.245  0.00  0.00    +0.029 A 
ATOM     26  C   UNL     1       6.768  -4.103   8.886  0.00  0.00    +0.105 A 
ATOM     27  C   UNL     1       7.298  -2.830   8.785  0.00  0.00    +0.029 A 
ATOM     28  C   UNL     1       6.644  -1.866   8.041  0.00  0.00    +0.005 A 
BRANCH  26  29
ATOM     29  S   UNL     1       7.603  -5.332   9.833  0.00  0.00    +0.056 S 
ATOM     30  O   UNL     1       7.185  -6.591   9.323  0.00  0.00    -0.153 OA
ATOM     31  O   UNL     1       8.970  -4.946   9.884  0.00  0.00    -0.153 OA
BRANCH  29  32
ATOM     32  N   UNL     1       7.025  -5.233  11.382  0.00  0.00    -0.204 NA
ATOM     33  H   UNL     1       6.349  -4.575  11.606  0.00  0.00    +0.144 HD
ATOM     34  H   UNL     1       7.364  -5.833  12.065  0.00  0.00    +0.144 HD
ENDBRANCH  29  32
ENDBRANCH  26  29
ENDBRANCH  22  23
ENDBRANCH  21  22
ENDBRANCH   3  21
TORSDOF 8
