REMARK  Name = ZINC13729322
REMARK  6 active torsions:
REMARK  status: ('A' for Active; 'I' for Inactive)
REMARK    1  A    between atoms: C_7  and  C_19
REMARK    2  A    between atoms: N_9  and  C_10
REMARK    3  A    between atoms: C_10  and  C_11
REMARK    4  A    between atoms: C_19  and  N_20
REMARK    5  A    between atoms: N_20  and  C_21
REMARK    6  A    between atoms: C_30  and  O_33
REMARK                            x       y       z     vdW  Elec       q    Type
REMARK                         _______ _______ _______ _____ _____    ______ ____
ROOT
ATOM      1  C   UNL     1      -4.856   3.212   4.458  0.00  0.00    +0.001 A 
ATOM      2  C   UNL     1      -4.727   3.923   3.272  0.00  0.00    +0.002 A 
ATOM      3  C   UNL     1      -4.083   3.369   2.188  0.00  0.00    +0.026 A 
ATOM      4  C   UNL     1      -3.556   2.085   2.279  0.00  0.00    +0.050 A 
ATOM      5  C   UNL     1      -3.689   1.369   3.483  0.00  0.00    +0.001 A 
ATOM      6  C   UNL     1      -4.345   1.950   4.570  0.00  0.00    +0.010 A 
ATOM      7  C   UNL     1      -3.040   0.075   3.258  0.00  0.00    -0.039 A 
ATOM      8  C   UNL     1      -2.581   0.080   1.996  0.00  0.00    +0.089 A 
ATOM      9  N   UNL     1      -2.875   1.275   1.398  0.00  0.00    -0.342 N 
ENDROOT
BRANCH   9  10
ATOM     10  C   UNL     1      -2.523   1.636   0.022  0.00  0.00    +0.158 C 
BRANCH  10  11
ATOM     11  C   UNL     1      -1.229   2.407   0.021  0.00  0.00    -0.009 A 
ATOM     12  C   UNL     1      -1.248   3.789   0.034  0.00  0.00    +0.008 A 
ATOM     13  C   UNL     1      -0.061   4.497   0.027  0.00  0.00    +0.020 A 
ATOM     14  C   UNL     1       1.147   3.823   0.012  0.00  0.00    +0.042 A 
ATOM     15  C   UNL     1       1.167   2.440   0.004  0.00  0.00    +0.040 A 
ATOM     16  C   UNL     1      -0.021   1.732   0.012  0.00  0.00    +0.047 A 
ATOM     17 CL   UNL     1       0.002  -0.004   0.002  0.00  0.00    -0.083 Cl
ATOM     18 CL   UNL     1       2.638   4.712   0.002  0.00  0.00    -0.083 Cl
ENDBRANCH  10  11
ENDBRANCH   9  10
BRANCH   7  19
ATOM     19  C   UNL     1      -2.917  -1.051   4.252  0.00  0.00    -0.044 C 
BRANCH  19  20
ATOM     20  N   UNL     1      -4.178  -1.802   4.300  0.00  0.00    +0.386 N 
ATOM     21  H   UNL     1      -4.994  -1.131   4.606  0.00  0.00    -0.085 HD
ATOM     22  H   UNL     1      -4.397  -2.215   3.304  0.00  0.00    -0.085 HD
BRANCH  20  23
ATOM     23  C   UNL     1      -4.095  -2.910   5.261  0.00  0.00    -0.065 C 
ATOM     24  C   UNL     1      -2.971  -3.862   4.845  0.00  0.00    -0.009 C 
ATOM     25  C   UNL     1      -2.885  -5.016   5.846  0.00  0.00    -0.009 C 
ATOM     26  C   UNL     1      -2.592  -4.460   7.241  0.00  0.00    +0.007 C 
ATOM     27  C   UNL     1      -3.716  -3.508   7.657  0.00  0.00    -0.009 C 
ATOM     28  C   UNL     1      -3.802  -2.354   6.656  0.00  0.00    -0.009 C 
ATOM     29  C   UNL     1      -5.045  -4.266   7.678  0.00  0.00    +0.038 C 
ATOM     30  C   UNL     1      -5.337  -4.822   6.283  0.00  0.00    +0.065 C 
ATOM     31  C   UNL     1      -4.214  -5.774   5.868  0.00  0.00    +0.038 C 
ATOM     32  C   UNL     1      -5.424  -3.668   5.282  0.00  0.00    +0.022 C 
BRANCH  30  33
ATOM     33  O   UNL     1      -6.578  -5.529   6.303  0.00  0.00    -0.389 OA
ATOM     34  H   UNL     1      -6.957  -6.002   5.385  0.00  0.00    +0.210 HD
ENDBRANCH  30  33
ENDBRANCH  20  23
ENDBRANCH  19  20
ENDBRANCH   7  19
TORSDOF 6
