REMARK  Name = ZINC15866301
REMARK  2 active torsions:
REMARK  status: ('A' for Active; 'I' for Inactive)
REMARK    1  A    between atoms: C_5  and  C_7
REMARK    2  A    between atoms: C_10  and  C_18
REMARK                            x       y       z     vdW  Elec       q    Type
REMARK                         _______ _______ _______ _____ _____    ______ ____
ROOT
ATOM      1  C   UNL     1       1.150   3.593   0.010  0.00  0.00    +0.147 C 
ATOM      2  C   UNL     1       0.425   4.090   1.268  0.00  0.00    +0.059 C 
ATOM      3  C   UNL     1       0.151   5.595   1.146  0.00  0.00    +0.112 C 
ATOM      4  N   UNL     1      -0.739   5.824  -0.009  0.00  0.00    -0.305 N 
ATOM      5  C   UNL     1      -0.439   5.114  -1.163  0.00  0.00    +0.236 A 
ATOM      6  N   UNL     1       0.438   4.079  -1.169  0.00  0.00    -0.206 N 
ATOM      7  N   UNL     1       0.480   3.632  -2.490  0.00  0.00    -0.042 NA
ATOM      8  N   UNL     1      -0.333   4.385  -3.158  0.00  0.00    -0.021 NA
ATOM      9  N   UNL     1      -0.876   5.259  -2.382  0.00  0.00    -0.092 NA
ATOM     10  H   UNL     1      -1.491   6.435   0.036  0.00  0.00    +0.150 HD
ENDROOT
BRANCH   1  15
ATOM     11  C   UNL     1       0.002  -0.004   0.002  0.00  0.00    +0.001 A 
ATOM     12  C   UNL     1       1.208  -0.680  -0.014  0.00  0.00    +0.003 A 
ATOM     13  C   UNL     1       2.396   0.025  -0.022  0.00  0.00    +0.039 A 
ATOM     14  C   UNL     1       2.379   1.410  -0.014  0.00  0.00    +0.129 A 
ATOM     15  C   UNL     1       1.171   2.086   0.002  0.00  0.00    +0.012 A 
ATOM     16  C   UNL     1      -0.017   1.378   0.010  0.00  0.00    +0.008 A 
ATOM     17  F   UNL     1       3.540   2.101  -0.021  0.00  0.00    -0.205 F 
ENDBRANCH   1  15
BRANCH   3  18
ATOM     18  C   UNL     1       1.450   6.331   0.938  0.00  0.00    +0.010 A 
ATOM     19  C   UNL     1       2.194   7.019   1.837  0.00  0.00    +0.013 A 
ATOM     20  C   UNL     1       3.365   7.621   1.417  0.00  0.00    +0.008 A 
ATOM     21  C   UNL     1       3.734   7.507   0.118  0.00  0.00    +0.045 A 
ATOM     22  S   UNL     1       2.409   6.517  -0.556  0.00  0.00    -0.100 S 
ENDBRANCH   3  18
TORSDOF 2
