REMARK  Name = ZINC20472177
REMARK  4 active torsions:
REMARK  status: ('A' for Active; 'I' for Inactive)
REMARK    1  A    between atoms: C_1  and  C_2
REMARK    2  A    between atoms: C_8  and  C_10
REMARK    3  A    between atoms: C_13  and  C_15
REMARK    4  A    between atoms: C_21  and  C_23
REMARK                            x       y       z     vdW  Elec       q    Type
REMARK                         _______ _______ _______ _____ _____    ______ ____
ROOT
ATOM      1  C   UNL     1      -0.574  -4.957   3.549  0.00  0.00    +0.075 A 
ATOM      2  C   UNL     1      -0.412  -6.324   3.381  0.00  0.00    +0.021 A 
ATOM      3  C   UNL     1      -0.158  -7.040   4.526  0.00  0.00    +0.014 A 
ATOM      4  C   UNL     1      -0.085  -6.384   5.711  0.00  0.00    +0.011 A 
ATOM      5  S   UNL     1      -0.351  -4.775   5.308  0.00  0.00    -0.087 S 
ENDROOT
BRANCH   1  13
ATOM      6  C   UNL     1      -1.793   1.919   1.300  0.00  0.00    +0.066 C 
ATOM      7  C   UNL     1      -1.625   0.433   1.111  0.00  0.00    +0.047 A 
ATOM      8  C   UNL     1      -1.722  -0.140  -0.114  0.00  0.00    +0.071 A 
ATOM      9  S   UNL     1      -1.439  -1.854   0.298  0.00  0.00    -0.060 S 
ATOM     10  C   UNL     1      -1.231  -1.664   1.957  0.00  0.00    +0.165 A 
ATOM     11  N   UNL     1      -1.372  -0.367   2.130  0.00  0.00    -0.230 NA
ATOM     12  N   UNL     1      -0.969  -2.638   2.912  0.00  0.00    -0.260 N 
ATOM     13  C   UNL     1      -0.851  -3.929   2.542  0.00  0.00    +0.256 C 
ATOM     14  O   UNL     1      -0.973  -4.240   1.372  0.00  0.00    -0.269 OA
ATOM     15  H   UNL     1      -0.871  -2.390   3.844  0.00  0.00    +0.157 HD
ENDBRANCH   1  13
BRANCH   4  16
ATOM     16  C   UNL     1       0.180  -6.966   7.075  0.00  0.00    +0.113 C 
ATOM     17  C   UNL     1      -1.144  -7.088   7.860  0.00  0.00    +0.029 C 
ATOM     18  C   UNL     1      -0.728  -6.702   9.304  0.00  0.00    +0.021 C 
ATOM     19  C   UNL     1       0.338  -5.610   9.041  0.00  0.00    +0.109 C 
ATOM     20  N   UNL     1       1.062  -6.070   7.838  0.00  0.00    -0.289 N 
ATOM     21  C   UNL     1       2.320  -5.728   7.495  0.00  0.00    +0.263 C 
ATOM     22  O   UNL     1       2.851  -6.249   6.533  0.00  0.00    -0.268 OA
BRANCH  21  23
ATOM     23  C   UNL     1       3.048  -4.727   8.283  0.00  0.00    +0.102 A 
ATOM     24  C   UNL     1       4.371  -4.372   8.126  0.00  0.00    +0.032 A 
ATOM     25  C   UNL     1       4.648  -3.388   9.080  0.00  0.00    +0.020 A 
ATOM     26  C   UNL     1       3.514  -3.164   9.787  0.00  0.00    +0.083 A 
ATOM     27  N   UNL     1       2.533  -3.967   9.309  0.00  0.00    -0.357 N 
ATOM     28  H   UNL     1       1.621  -4.002   9.636  0.00  0.00    +0.165 HD
ENDBRANCH  21  23
ENDBRANCH   4  16
TORSDOF 3
