REMARK  Name = ZINC09015936
REMARK  3 active torsions:
REMARK  status: ('A' for Active; 'I' for Inactive)
REMARK    1  A    between atoms: C_1  and  C_2
REMARK    2  A    between atoms: C_7  and  N_12
REMARK    3  A    between atoms: C_9  and  C_11
REMARK                            x       y       z     vdW  Elec       q    Type
REMARK                         _______ _______ _______ _____ _____    ______ ____
ROOT
ATOM      1  N   UNL     1       1.700  -2.895   2.355  0.00  0.00    -0.265 NA
ATOM      2  C   UNL     1       1.846  -4.339   2.095  0.00  0.00    +0.193 C 
ATOM      3  N   UNL     1       2.762  -4.880   3.112  0.00  0.00    -0.304 N 
ATOM      4  C   UNL     1       2.621  -4.446   4.411  0.00  0.00    +0.185 C 
ATOM      5  N   UNL     1       1.879  -3.424   4.698  0.00  0.00    -0.240 NA
ATOM      6  C   UNL     1       1.135  -2.675   3.692  0.00  0.00    +0.233 C 
ATOM      7  N   UNL     1       3.279  -5.112   5.423  0.00  0.00    -0.242 N 
ATOM      8  C   UNL     1       3.145  -4.687   6.730  0.00  0.00    +0.295 A 
ATOM      9  N   UNL     1       2.417  -3.671   7.117  0.00  0.00    -0.195 NA
ATOM     10  C   UNL     1       2.523  -3.548   8.468  0.00  0.00    +0.111 A 
ATOM     11  C   UNL     1       1.978  -2.664   9.401  0.00  0.00    +0.031 A 
ATOM     12  C   UNL     1       2.287  -2.805  10.736  0.00  0.00    +0.002 A 
ATOM     13  C   UNL     1       3.134  -3.818  11.158  0.00  0.00    +0.004 A 
ATOM     14  C   UNL     1       3.679  -4.699  10.246  0.00  0.00    +0.048 A 
ATOM     15  C   UNL     1       3.380  -4.572   8.899  0.00  0.00    +0.157 A 
ATOM     16  O   UNL     1       3.740  -5.260   7.791  0.00  0.00    -0.424 OA
ATOM     17  H   UNL     1       3.446  -5.525   2.874  0.00  0.00    +0.150 HD
ATOM     18  H   UNL     1       3.836  -5.879   5.218  0.00  0.00    +0.159 HD
ENDROOT
BRANCH   1  24
ATOM     19  C   UNL     1       1.421  -1.807  -2.463  0.00  0.00    +0.008 C 
ATOM     20  C   UNL     1       0.718  -1.698  -1.109  0.00  0.00    -0.010 C 
ATOM     21  C   UNL     1       0.515  -0.223  -0.757  0.00  0.00    +0.003 C 
ATOM     22  C   UNL     1      -0.188  -0.114   0.597  0.00  0.00    +0.002 C 
ATOM     23  C   UNL     1       0.671  -0.780   1.673  0.00  0.00    +0.019 C 
ATOM     24  C   UNL     1       0.875  -2.255   1.322  0.00  0.00    +0.063 C 
ATOM     25  C   UNL     1       1.578  -2.365  -0.033  0.00  0.00    +0.006 C 
ATOM     26  C   UNL     1       2.937  -1.665   0.040  0.00  0.00    +0.009 C 
ENDBRANCH   1  24
TORSDOF 1
