REMARK  Name = ZINC00758949
REMARK  6 active torsions:
REMARK  status: ('A' for Active; 'I' for Inactive)
REMARK    1  A    between atoms: C_1  and  N_2
REMARK    2  A    between atoms: C_18  and  C_23
REMARK    3  A    between atoms: C_26  and  O_31
REMARK    4  A    between atoms: C_27  and  O_29
REMARK    5  A    between atoms: O_29  and  C_30
REMARK    6  A    between atoms: O_31  and  C_32
REMARK                            x       y       z     vdW  Elec       q    Type
REMARK                         _______ _______ _______ _____ _____    ______ ____
ROOT
ATOM      1  C   UNL     1       6.166   1.098   4.642  0.00  0.00    +0.140 C 
ATOM      2  N   UNL     1       5.080   0.524   5.441  0.00  0.00    -0.255 N 
ATOM      3  C   UNL     1       5.266  -0.322   6.475  0.00  0.00    +0.242 C 
ATOM      4  O   UNL     1       6.323  -0.745   6.892  0.00  0.00    -0.273 OA
ATOM      5  C   UNL     1       3.883  -0.634   7.008  0.00  0.00    +0.167 C 
ATOM      6  C   UNL     1       3.596  -2.132   6.850  0.00  0.00    +0.069 C 
ATOM      7  C   UNL     1       2.106  -2.350   6.760  0.00  0.00    -0.015 A 
ATOM      8  C   UNL     1       1.381  -3.586   6.985  0.00  0.00    +0.003 A 
ATOM      9  C   UNL     1       1.796  -4.874   7.339  0.00  0.00    +0.010 A 
ATOM     10  C   UNL     1       0.816  -5.827   7.469  0.00  0.00    +0.001 A 
ATOM     11  C   UNL     1      -0.523  -5.539   7.261  0.00  0.00    +0.002 A 
ATOM     12  C   UNL     1      -0.961  -4.273   6.912  0.00  0.00    +0.026 A 
ATOM     13  C   UNL     1       0.012  -3.285   6.773  0.00  0.00    +0.047 A 
ATOM     14  N   UNL     1      -0.067  -1.962   6.448  0.00  0.00    -0.356 N 
ATOM     15  H   UNL     1      -0.887  -1.483   6.249  0.00  0.00    +0.166 HD
ATOM     16  C   UNL     1       1.187  -1.412   6.446  0.00  0.00    +0.046 A 
ATOM     17  C   UNL     1       1.532   0.033   6.141  0.00  0.00    +0.153 C 
ATOM     18  N   UNL     1       2.997   0.102   6.079  0.00  0.00    -0.288 N 
ATOM     19  C   UNL     1       3.780   0.776   5.235  0.00  0.00    +0.143 C 
ATOM     20  S   UNL     1       3.192   1.839   4.029  0.00  0.00    -0.018 S 
ENDROOT
BRANCH  17  21
ATOM     21  C   UNL     1       0.938   0.438   4.817  0.00  0.00    -0.018 A 
ATOM     22  C   UNL     1       1.534   0.028   3.639  0.00  0.00    +0.009 A 
ATOM     23  C   UNL     1       0.993   0.398   2.422  0.00  0.00    +0.050 A 
ATOM     24  C   UNL     1      -0.148   1.182   2.380  0.00  0.00    +0.162 A 
ATOM     25  C   UNL     1      -0.745   1.600   3.566  0.00  0.00    +0.162 A 
ATOM     26  C   UNL     1      -0.201   1.221   4.783  0.00  0.00    +0.055 A 
BRANCH  25  27
ATOM     27  O   UNL     1      -1.862   2.374   3.531  0.00  0.00    -0.491 OA
ATOM     28  C   UNL     1      -2.420   2.766   4.787  0.00  0.00    +0.277 C 
ENDBRANCH  25  27
BRANCH  24  29
ATOM     29  O   UNL     1      -0.682   1.547   1.184  0.00  0.00    -0.491 OA
ATOM     30  C   UNL     1      -0.013   1.086   0.008  0.00  0.00    +0.277 C 
ENDBRANCH  24  29
ENDBRANCH  17  21
TORSDOF 3
