REMARK  Name = ZINC13065076
REMARK  14 active torsions:
REMARK  status: ('A' for Active; 'I' for Inactive)
REMARK    1  A    between atoms: C_1  and  C_2
REMARK    2  A    between atoms: C_2  and  C_3
REMARK    3  A    between atoms: C_3  and  C_5
REMARK    4  A    between atoms: C_3  and  N_70
REMARK    5  A    between atoms: N_9  and  C_10
REMARK    6  A    between atoms: C_10  and  C_11
REMARK    7  A    between atoms: C_14  and  O_17
REMARK    8  A    between atoms: O_17  and  C_18
REMARK    9  A    between atoms: C_19  and  C_20
REMARK   10  A    between atoms: C_19  and  N_70
REMARK   11  A    between atoms: C_25  and  C_26
REMARK   12  A    between atoms: C_25  and  N_70
REMARK   13  A    between atoms: C_31  and  C_39
REMARK   14  A    between atoms: C_32  and  C_38
REMARK                            x       y       z     vdW  Elec       q    Type
REMARK                         _______ _______ _______ _____ _____    ______ ____
ROOT
ATOM      1  N   UNL     1      -1.933   0.898   1.346  0.00  0.00    +0.394 N 
ATOM      2  H   UNL     1      -1.775  -0.116   1.393  0.00  0.00    -0.080 HD
ENDROOT
BRANCH   1   3
ATOM      3  C   UNL     1      -0.631   1.580   1.190  0.00  0.00    +0.003 C 
BRANCH   3   4
ATOM      4  C   UNL     1       0.211   1.316   2.411  0.00  0.00    +0.138 A 
ATOM      5  N   UNL     1       0.359   0.168   3.026  0.00  0.00    -0.115 NA
ATOM      6  N   UNL     1       1.156   0.350   4.022  0.00  0.00    -0.023 NA
ATOM      7  N   UNL     1       1.514   1.586   4.063  0.00  0.00    -0.044 NA
ATOM      8  N   UNL     1       0.952   2.214   3.086  0.00  0.00    -0.226 N 
BRANCH   8   9
ATOM      9  C   UNL     1       1.094   3.638   2.771  0.00  0.00    +0.182 C 
BRANCH   9  10
ATOM     10  C   UNL     1       0.029   4.421   3.494  0.00  0.00    -0.026 A 
ATOM     11  C   UNL     1      -1.192   4.650   2.886  0.00  0.00    +0.009 A 
ATOM     12  C   UNL     1      -2.172   5.362   3.549  0.00  0.00    +0.046 A 
ATOM     13  C   UNL     1      -1.927   5.858   4.822  0.00  0.00    +0.120 A 
ATOM     14  C   UNL     1      -0.700   5.632   5.427  0.00  0.00    +0.046 A 
ATOM     15  C   UNL     1       0.275   4.914   4.762  0.00  0.00    +0.009 A 
BRANCH  13  16
ATOM     16  O   UNL     1      -2.888   6.564   5.474  0.00  0.00    -0.495 OA
ATOM     17  C   UNL     1      -4.127   6.758   4.790  0.00  0.00    +0.277 C 
ENDBRANCH  13  16
ENDBRANCH   9  10
ENDBRANCH   8   9
ENDBRANCH   3   4
BRANCH   3  19
ATOM     18  C   UNL     1       1.397   1.762  -0.258  0.00  0.00    +0.002 C 
ATOM     19  C   UNL     1       0.075   1.021  -0.047  0.00  0.00    -0.011 C 
ENDBRANCH   3  19
ENDBRANCH   1   3
BRANCH   1  20
ATOM     20  C   UNL     1      -2.588   1.340   2.595  0.00  0.00    -0.002 C 
BRANCH  20  21
ATOM     21  C   UNL     1      -3.751   0.426   2.883  0.00  0.00    +0.089 A 
ATOM     22  C   UNL     1      -3.721  -0.659   3.678  0.00  0.00    +0.042 A 
ATOM     23  C   UNL     1      -5.021  -1.214   3.662  0.00  0.00    +0.041 A 
ATOM     24  C   UNL     1      -5.768  -0.436   2.858  0.00  0.00    +0.195 A 
ATOM     25  O   UNL     1      -4.995   0.559   2.394  0.00  0.00    -0.470 OA
ENDBRANCH  20  21
ENDBRANCH   1  20
BRANCH   1  26
ATOM     26  C   UNL     1      -2.801   1.195   0.188  0.00  0.00    -0.036 C 
BRANCH  26  27
ATOM     27  C   UNL     1      -2.902   2.683  -0.029  0.00  0.00    +0.001 A 
ATOM     28  C   UNL     1      -2.062   3.297  -0.899  0.00  0.00    +0.017 A 
ATOM     29  C   UNL     1      -2.188   4.743  -1.091  0.00  0.00    -0.001 A 
ATOM     30  C   UNL     1      -1.354   5.431  -1.979  0.00  0.00    +0.010 A 
ATOM     31  C   UNL     1      -1.494   6.781  -2.131  0.00  0.00    +0.004 A 
ATOM     32  C   UNL     1      -2.457   7.477  -1.412  0.00  0.00    -0.046 A 
ATOM     33  C   UNL     1      -3.289   6.820  -0.532  0.00  0.00    -0.024 A 
ATOM     34  C   UNL     1      -3.165   5.445  -0.361  0.00  0.00    +0.052 A 
ATOM     35  N   UNL     1      -3.985   4.763   0.512  0.00  0.00    -0.322 N 
ATOM     36  H   UNL     1      -4.658   5.248   1.015  0.00  0.00    +0.169 HD
ATOM     37  C   UNL     1      -3.865   3.434   0.678  0.00  0.00    +0.251 A 
ATOM     38  O   UNL     1      -4.607   2.863   1.459  0.00  0.00    -0.268 OA
ATOM     39  C   UNL     1      -4.330   7.588   0.240  0.00  0.00    +0.046 C 
ATOM     40  C   UNL     1      -2.593   8.967  -1.597  0.00  0.00    +0.044 C 
ENDBRANCH  26  27
ENDBRANCH   1  26
TORSDOF 10
