REMARK  Name = ZINC64427107
REMARK  6 active torsions:
REMARK  status: ('A' for Active; 'I' for Inactive)
REMARK    1  A    between atoms: C_4  and  C_7
REMARK    2  A    between atoms: C_18  and  S_21
REMARK    3  A    between atoms: S_21  and  C_22
REMARK    4  A    between atoms: C_22  and  C_23
REMARK    5  A    between atoms: N_25  and  C_26
REMARK    6  A    between atoms: C_26  and  C_27
REMARK                            x       y       z     vdW  Elec       q    Type
REMARK                         _______ _______ _______ _____ _____    ______ ____
ROOT
ATOM      1  C   UNL     1       3.711  -0.707  -0.038  0.00  0.00    +0.207 C 
ATOM      2  N   UNL     1       3.630  -1.880   0.845  0.00  0.00    -0.320 N 
ATOM      3  C   UNL     1       3.026  -3.062   0.419  0.00  0.00    +0.040 A 
ATOM      4  C   UNL     1       2.401  -3.915   1.313  0.00  0.00    +0.024 A 
ATOM      5  C   UNL     1       1.830  -5.090   0.861  0.00  0.00    +0.002 A 
ATOM      6  C   UNL     1       1.875  -5.428  -0.481  0.00  0.00    +0.001 A 
ATOM      7  C   UNL     1       2.488  -4.586  -1.391  0.00  0.00    +0.013 A 
ATOM      8  C   UNL     1       3.055  -3.401  -0.948  0.00  0.00    +0.040 A 
ATOM      9  C   UNL     1       3.683  -2.424  -1.855  0.00  0.00    +0.168 A 
ATOM     10  N   UNL     1       4.005  -1.151  -1.399  0.00  0.00    -0.279 N 
ATOM     11  C   UNL     1       4.583  -0.519  -2.443  0.00  0.00    +0.194 A 
ATOM     12  N   UNL     1       4.569  -1.359  -3.459  0.00  0.00    -0.122 NA
ATOM     13  N   UNL     1       4.022  -2.480  -3.105  0.00  0.00    -0.128 NA
ATOM     14  H   UNL     1       4.004  -1.831   1.739  0.00  0.00    +0.148 HD
ENDROOT
BRANCH   1  18
ATOM     15  C   UNL     1      -0.017   1.378   0.010  0.00  0.00    +0.000 A 
ATOM     16  C   UNL     1       1.171   2.086   0.002  0.00  0.00    +0.000 A 
ATOM     17  C   UNL     1       2.377   1.411  -0.013  0.00  0.00    +0.007 A 
ATOM     18  C   UNL     1       2.396   0.029  -0.020  0.00  0.00    -0.007 A 
ATOM     19  C   UNL     1       1.208  -0.679  -0.012  0.00  0.00    +0.007 A 
ATOM     20  C   UNL     1       0.002  -0.004   0.002  0.00  0.00    +0.000 A 
ENDBRANCH   1  18
BRANCH  11  21
ATOM     21  S   UNL     1       5.233   1.119  -2.447  0.00  0.00    -0.077 S 
BRANCH  21  22
ATOM     22  C   UNL     1       5.852   1.342  -4.138  0.00  0.00    +0.173 C 
BRANCH  22  23
ATOM     23  C   UNL     1       6.442   2.721  -4.279  0.00  0.00    +0.223 C 
ATOM     24  O   UNL     1       6.446   3.479  -3.332  0.00  0.00    -0.275 OA
ATOM     25  N   UNL     1       6.967   3.112  -5.457  0.00  0.00    -0.311 N 
ATOM     26  H   UNL     1       6.965   2.505  -6.214  0.00  0.00    +0.149 HD
BRANCH  25  27
ATOM     27  C   UNL     1       7.541   4.452  -5.594  0.00  0.00    +0.151 C 
BRANCH  27  28
ATOM     28  C   UNL     1       8.063   4.640  -7.020  0.00  0.00    +0.191 C 
ATOM     29  N   UNL     1       6.981   4.413  -7.987  0.00  0.00    -0.362 N 
ATOM     30  C   UNL     1       7.337   3.415  -8.743  0.00  0.00    +0.060 A 
ATOM     31  C   UNL     1       6.684   2.734  -9.870  0.00  0.00    +0.027 A 
ATOM     32  C   UNL     1       7.308   1.704 -10.476  0.00  0.00    +0.002 A 
ATOM     33  C   UNL     1       8.573   1.241 -10.073  0.00  0.00    +0.002 A 
ATOM     34  C   UNL     1       9.258   1.794  -9.051  0.00  0.00    +0.027 A 
ATOM     35  C   UNL     1       8.676   2.926  -8.317  0.00  0.00    +0.060 A 
ATOM     36  N   UNL     1       9.098   3.640  -7.314  0.00  0.00    -0.362 N 
ATOM     37  H   UNL     1       6.154   4.915  -8.050  0.00  0.00    +0.162 HD
ATOM     38  H   UNL     1       9.941   3.532  -6.846  0.00  0.00    +0.162 HD
ENDBRANCH  27  28
ENDBRANCH  25  27
ENDBRANCH  22  23
ENDBRANCH  21  22
ENDBRANCH  11  21
TORSDOF 6
