REMARK  Name = ZINC09030594
REMARK  10 active torsions:
REMARK  status: ('A' for Active; 'I' for Inactive)
REMARK    1  A    between atoms: C_1  and  C_2
REMARK    2  A    between atoms: C_4  and  C_34
REMARK    3  A    between atoms: C_5  and  S_9
REMARK    4  A    between atoms: C_6  and  C_8
REMARK    5  A    between atoms: S_9  and  N_12
REMARK    6  A    between atoms: N_19  and  S_22
REMARK    7  A    between atoms: S_22  and  C_25
REMARK    8  A    between atoms: C_26  and  C_33
REMARK    9  A    between atoms: C_28  and  C_32
REMARK   10  A    between atoms: C_30  and  C_31
REMARK                            x       y       z     vdW  Elec       q    Type
REMARK                         _______ _______ _______ _____ _____    ______ ____
ROOT
ATOM      1  N   UNL     1       2.443   0.113  -1.891  0.00  0.00    -0.157 N 
ATOM      2  C   UNL     1       3.008  -1.016  -2.479  0.00  0.00    +0.096 A 
ATOM      3  C   UNL     1       2.553  -2.309  -2.688  0.00  0.00    +0.030 A 
ATOM      4  C   UNL     1       3.366  -3.231  -3.317  0.00  0.00    +0.002 A 
ATOM      5  C   UNL     1       4.634  -2.870  -3.740  0.00  0.00    +0.002 A 
ATOM      6  C   UNL     1       5.096  -1.584  -3.538  0.00  0.00    +0.030 A 
ATOM      7  C   UNL     1       4.287  -0.652  -2.906  0.00  0.00    +0.096 A 
ATOM      8  N   UNL     1       4.459   0.687  -2.564  0.00  0.00    -0.157 N 
ATOM      9  C   UNL     1       3.335   1.119  -1.963  0.00  0.00    +0.370 A 
ATOM     10  O   UNL     1       3.153   2.248  -1.544  0.00  0.00    -0.243 OA
ENDROOT
BRANCH   1  11
ATOM     11  S   UNL     1       0.930   0.204  -1.225  0.00  0.00    +0.089 S 
ATOM     12  O   UNL     1       0.206  -0.920  -1.706  0.00  0.00    -0.147 OA
ATOM     13  O   UNL     1       0.481   1.538  -1.417  0.00  0.00    -0.147 OA
BRANCH  11  18
ATOM     14  C   UNL     1       1.566  -0.567   4.726  0.00  0.00    +0.044 C 
ATOM     15  C   UNL     1       1.404  -0.373   3.240  0.00  0.00    -0.050 A 
ATOM     16  C   UNL     1       1.587   0.878   2.682  0.00  0.00    +0.008 A 
ATOM     17  C   UNL     1       1.439   1.055   1.319  0.00  0.00    -0.023 A 
ATOM     18  C   UNL     1       1.112  -0.020   0.513  0.00  0.00    +0.117 A 
ATOM     19  C   UNL     1       0.924  -1.270   1.073  0.00  0.00    -0.023 A 
ATOM     20  C   UNL     1       1.072  -1.448   2.436  0.00  0.00    +0.008 A 
ATOM     21  C   UNL     1       0.562  -2.441   0.196  0.00  0.00    +0.046 C 
ATOM     22  C   UNL     1       1.639   2.419   0.710  0.00  0.00    +0.046 C 
ENDBRANCH  11  18
ENDBRANCH   1  11
BRANCH   8  23
ATOM     23  S   UNL     1       5.813   1.595  -2.855  0.00  0.00    +0.089 S 
ATOM     24  O   UNL     1       5.901   2.542  -1.799  0.00  0.00    -0.147 OA
ATOM     25  O   UNL     1       6.861   0.680  -3.147  0.00  0.00    -0.147 OA
BRANCH  23  26
ATOM     26  C   UNL     1       5.519   2.512  -4.330  0.00  0.00    +0.117 A 
ATOM     27  C   UNL     1       5.738   1.926  -5.563  0.00  0.00    -0.023 A 
ATOM     28  C   UNL     1       5.502   2.643  -6.721  0.00  0.00    +0.008 A 
ATOM     29  C   UNL     1       5.059   3.950  -6.646  0.00  0.00    -0.050 A 
ATOM     30  C   UNL     1       4.845   4.538  -5.413  0.00  0.00    +0.008 A 
ATOM     31  C   UNL     1       5.075   3.819  -4.255  0.00  0.00    -0.023 A 
ATOM     32  C   UNL     1       4.843   4.460  -2.912  0.00  0.00    +0.046 C 
ATOM     33  C   UNL     1       4.808   4.734  -7.908  0.00  0.00    +0.044 C 
ATOM     34  C   UNL     1       6.228   0.503  -5.645  0.00  0.00    +0.046 C 
ENDBRANCH  23  26
ENDBRANCH   8  23
TORSDOF 4
