REMARK  Name = ZINC03537039
REMARK  12 active torsions:
REMARK  status: ('A' for Active; 'I' for Inactive)
REMARK    1  A    between atoms: C_1  and  C_2
REMARK    2  A    between atoms: C_2  and  C_3
REMARK    3  A    between atoms: C_2  and  C_4
REMARK    4  A    between atoms: C_4  and  N_5
REMARK    5  A    between atoms: C_6  and  N_32
REMARK    6  A    between atoms: C_7  and  N_14
REMARK    7  A    between atoms: N_14  and  C_15
REMARK    8  A    between atoms: C_15  and  C_16
REMARK    9  A    between atoms: C_16  and  C_17
REMARK   10  A    between atoms: C_16  and  C_18
REMARK   11  A    between atoms: C_19  and  C_21
REMARK   12  A    between atoms: C_21  and  N_22
REMARK                            x       y       z     vdW  Elec       q    Type
REMARK                         _______ _______ _______ _____ _____    ______ ____
ROOT
ATOM      1  N   UNL     1       4.120   4.669   0.528  0.00  0.00    -0.263 N 
ATOM      2  C   UNL     1       3.049   4.079  -0.042  0.00  0.00    +0.237 C 
ATOM      3  O   UNL     1       2.970   2.868  -0.077  0.00  0.00    -0.274 OA
ENDROOT
BRANCH   1   6
ATOM      4  N   UNL     1       4.199   8.055   1.952  0.00  0.00    -0.280 N 
ATOM      5  C   UNL     1       4.143   6.683   1.877  0.00  0.00    +0.127 A 
ATOM      6  C   UNL     1       4.175   6.074   0.639  0.00  0.00    +0.140 A 
ATOM      7  C   UNL     1       4.271   6.880  -0.512  0.00  0.00    +0.277 A 
ATOM      8  O   UNL     1       4.306   6.368  -1.618  0.00  0.00    -0.266 OA
ATOM      9  N   UNL     1       4.318   8.220  -0.383  0.00  0.00    -0.273 N 
ATOM     10  H   UNL     1       4.378   8.793  -1.200  0.00  0.00    +0.173 HD
ATOM     11  C   UNL     1       4.285   8.795   0.832  0.00  0.00    +0.331 A 
ATOM     12  O   UNL     1       4.333  10.007   0.920  0.00  0.00    -0.246 OA
BRANCH   5  13
ATOM     13  N   UNL     1       4.054   5.927   3.021  0.00  0.00    -0.343 N 
ATOM     14  H   UNL     1       4.081   4.958   2.966  0.00  0.00    +0.144 HD
ATOM     15  H   UNL     1       3.966   6.361   3.884  0.00  0.00    +0.144 HD
ENDBRANCH   5  13
BRANCH   4  16
ATOM     16  C   UNL     1       4.165   8.714   3.260  0.00  0.00    +0.131 C 
BRANCH  16  18
ATOM     17  C   UNL     1       5.561   9.777   5.039  0.00  0.00    +0.009 C 
ATOM     18  C   UNL     1       5.596   8.979   3.734  0.00  0.00    +0.003 C 
ATOM     19  C   UNL     1       6.310   7.647   3.970  0.00  0.00    +0.009 C 
ENDBRANCH  16  18
ENDBRANCH   4  16
ENDBRANCH   1   6
BRANCH   1  20
ATOM     20  C   UNL     1       5.225   3.850   1.032  0.00  0.00    +0.117 C 
BRANCH  20  21
ATOM     21  C   UNL     1       6.285   3.696  -0.060  0.00  0.00    +0.001 C 
ATOM     22  C   UNL     1       7.502   2.964   0.509  0.00  0.00    +0.009 C 
ATOM     23  C   UNL     1       5.705   2.892  -1.225  0.00  0.00    +0.009 C 
ENDBRANCH  20  21
ENDBRANCH   1  20
BRANCH   2  24
ATOM     24  C   UNL     1       1.950   4.923  -0.635  0.00  0.00    +0.201 C 
BRANCH  24  25
ATOM     25  N   UNL     1       0.872   4.051  -1.121  0.00  0.00    -0.321 N 
ATOM     26  C   UNL     1       1.302   3.289  -2.295  0.00  0.00    +0.106 C 
ATOM     27  C   UNL     1       0.149   2.381  -2.740  0.00  0.00    +0.024 C 
ATOM     28  C   UNL     1      -0.047   1.308  -1.666  0.00  0.00    +0.038 C 
ATOM     29  C   UNL     1      -0.069   1.953  -0.303  0.00  0.00    -0.026 A 
ATOM     30  C   UNL     1       0.379   3.246  -0.095  0.00  0.00    +0.033 A 
ATOM     31  C   UNL     1       0.340   3.787   1.191  0.00  0.00    +0.023 A 
ATOM     32  C   UNL     1      -0.143   3.043   2.246  0.00  0.00    +0.002 A 
ATOM     33  C   UNL     1      -0.594   1.753   2.033  0.00  0.00    +0.000 A 
ATOM     34  C   UNL     1      -0.551   1.210   0.764  0.00  0.00    +0.005 A 
ENDBRANCH  24  25
ENDBRANCH   2  24
TORSDOF 8
