REMARK  Name = ZINC09295840
REMARK  7 active torsions:
REMARK  status: ('A' for Active; 'I' for Inactive)
REMARK    1  A    between atoms: C_1  and  O_2
REMARK    2  A    between atoms: O_2  and  C_3
REMARK    3  A    between atoms: C_5  and  C_19
REMARK    4  A    between atoms: C_8  and  O_9
REMARK    5  A    between atoms: O_9  and  C_10
REMARK    6  A    between atoms: C_10  and  C_11
REMARK    7  A    between atoms: N_20  and  N_21
REMARK                            x       y       z     vdW  Elec       q    Type
REMARK                         _______ _______ _______ _____ _____    ______ ____
ROOT
ATOM      1  C   UNL     1       3.659   1.862  -0.022  0.00  0.00    +0.162 A 
ATOM      2  C   UNL     1       2.474   1.150  -0.009  0.00  0.00    +0.060 A 
ATOM      3  C   UNL     1       1.254   1.830  -0.000  0.00  0.00    +0.012 A 
ATOM      4  C   UNL     1       1.237   3.228   0.008  0.00  0.00    +0.030 A 
ATOM      5  C   UNL     1       2.424   3.932   0.001  0.00  0.00    +0.065 A 
ATOM      6  C   UNL     1       3.635   3.255  -0.014  0.00  0.00    +0.163 A 
ATOM      7 BR   UNL     1      -0.411   4.154   0.027  0.00  0.00    -0.050 Br
ENDROOT
BRANCH   1   9
ATOM      8  C   UNL     1       4.799  -0.225  -0.043  0.00  0.00    +0.277 C 
ATOM      9  O   UNL     1       4.848   1.203  -0.036  0.00  0.00    -0.491 OA
ENDBRANCH   1   9
BRANCH   3  10
ATOM     10  C   UNL     1      -0.013   1.076   0.008  0.00  0.00    +0.139 C 
ATOM     11  N   UNL     1      -1.145   1.709   0.017  0.00  0.00    -0.186 NA
BRANCH  11  12
ATOM     12  N   UNL     1      -2.349   0.992   0.019  0.00  0.00    -0.191 N 
ATOM     13  C   UNL     1      -3.525   1.650   0.028  0.00  0.00    +0.317 C 
ATOM     14  O   UNL     1      -4.570   1.028   0.029  0.00  0.00    -0.251 OA
ATOM     15  N   UNL     1      -3.543   2.998   0.035  0.00  0.00    -0.312 N 
ATOM     16  H   UNL     1      -2.336   0.022   0.013  0.00  0.00    +0.179 HD
ATOM     17  H   UNL     1      -2.710   3.494   0.034  0.00  0.00    +0.147 HD
ATOM     18  H   UNL     1      -4.390   3.471   0.042  0.00  0.00    +0.147 HD
ENDBRANCH  11  12
ENDBRANCH   3  10
BRANCH   6  19
ATOM     19  O   UNL     1       4.801   3.953  -0.021  0.00  0.00    -0.484 OA
BRANCH  19  20
ATOM     20  C   UNL     1       4.705   5.379  -0.012  0.00  0.00    +0.264 C 
BRANCH  20  21
ATOM     21  C   UNL     1       6.088   5.977  -0.021  0.00  0.00    -0.010 A 
ATOM     22  C   UNL     1       6.731   6.249   1.173  0.00  0.00    +0.008 A 
ATOM     23  C   UNL     1       8.001   6.793   1.165  0.00  0.00    +0.015 A 
ATOM     24  C   UNL     1       8.626   7.074  -0.037  0.00  0.00    +0.018 A 
ATOM     25  C   UNL     1       7.980   6.806  -1.231  0.00  0.00    +0.015 A 
ATOM     26  C   UNL     1       6.711   6.258  -1.222  0.00  0.00    +0.008 A 
ATOM     27 BR   UNL     1      10.361   7.824  -0.048  0.00  0.00    -0.050 Br
ENDBRANCH  20  21
ENDBRANCH  19  20
ENDBRANCH   6  19
TORSDOF 6
