REMARK  Name = ZINC17576150
REMARK  8 active torsions:
REMARK  status: ('A' for Active; 'I' for Inactive)
REMARK    1  A    between atoms: C_1  and  C_2
REMARK    2  A    between atoms: C_5  and  C_8
REMARK    3  A    between atoms: N_15  and  C_18
REMARK    4  A    between atoms: C_18  and  C_19
REMARK    5  A    between atoms: C_19  and  C_20
REMARK    6  A    between atoms: N_22  and  N_23
REMARK    7  A    between atoms: C_24  and  C_26
REMARK    8  A    between atoms: C_31  and  O_32
REMARK                            x       y       z     vdW  Elec       q    Type
REMARK                         _______ _______ _______ _____ _____    ______ ____
ROOT
ATOM      1  C   UNL     1      -0.271   5.207   3.857  0.00  0.00    +0.135 C 
ENDROOT
BRANCH   1   9
ATOM      2  C   UNL     1      -1.309   2.116   0.020  0.00  0.00    +0.004 A 
ATOM      3  C   UNL     1      -2.280   1.810  -0.874  0.00  0.00    +0.056 A 
ATOM      4  S   UNL     1      -3.597   2.935  -0.454  0.00  0.00    -0.076 S 
ATOM      5  C   UNL     1      -2.818   3.788   0.893  0.00  0.00    +0.116 A 
ATOM      6  C   UNL     1      -1.556   3.178   0.988  0.00  0.00    +0.080 A 
ATOM      7  C   UNL     1      -0.699   3.684   2.016  0.00  0.00    +0.263 A 
ATOM      8  O   UNL     1       0.416   3.219   2.177  0.00  0.00    -0.267 OA
ATOM      9  N   UNL     1      -1.143   4.683   2.803  0.00  0.00    -0.298 N 
ATOM     10  C   UNL     1      -2.381   5.213   2.638  0.00  0.00    +0.203 A 
ATOM     11  N   UNL     1      -3.186   4.773   1.708  0.00  0.00    -0.230 NA
BRANCH   2  16
ATOM     12  C   UNL     1       3.710  -0.706  -0.037  0.00  0.00    +0.044 C 
ATOM     13  C   UNL     1       2.396   0.033  -0.021  0.00  0.00    -0.050 A 
ATOM     14  C   UNL     1       1.208  -0.675  -0.013  0.00  0.00    +0.004 A 
ATOM     15  C   UNL     1       0.002  -0.004   0.002  0.00  0.00    +0.009 A 
ATOM     16  C   UNL     1      -0.017   1.390   0.010  0.00  0.00    -0.017 A 
ATOM     17  C   UNL     1       1.184   2.098   0.002  0.00  0.00    +0.009 A 
ATOM     18  C   UNL     1       2.384   1.416  -0.014  0.00  0.00    +0.004 A 
ENDBRANCH   2  16
ENDBRANCH   1   9
BRANCH   1  19
ATOM     19  C   UNL     1       0.569   6.357   3.300  0.00  0.00    +0.119 C 
BRANCH  19  20
ATOM     20  C   UNL     1       1.465   6.897   4.385  0.00  0.00    +0.231 C 
ATOM     21  O   UNL     1       1.435   6.409   5.495  0.00  0.00    -0.274 OA
ATOM     22  N   UNL     1       2.301   7.921   4.121  0.00  0.00    -0.234 N 
ATOM     23  H   UNL     1       2.325   8.311   3.233  0.00  0.00    +0.173 HD
BRANCH  22  24
ATOM     24  N   UNL     1       3.134   8.422   5.130  0.00  0.00    -0.230 N 
ATOM     25  C   UNL     1       3.969   9.447   4.866  0.00  0.00    +0.264 C 
ATOM     26  O   UNL     1       4.000   9.936   3.753  0.00  0.00    -0.269 OA
ATOM     27  H   UNL     1       3.109   8.033   6.018  0.00  0.00    +0.173 HD
BRANCH  25  28
ATOM     28  C   UNL     1       4.846   9.975   5.928  0.00  0.00    +0.079 A 
ATOM     29  C   UNL     1       4.810   9.420   7.210  0.00  0.00    +0.017 A 
ATOM     30  C   UNL     1       5.636   9.915   8.196  0.00  0.00    +0.001 A 
ATOM     31  C   UNL     1       6.495  10.967   7.926  0.00  0.00    +0.004 A 
ATOM     32  C   UNL     1       6.537  11.528   6.665  0.00  0.00    +0.046 A 
ATOM     33  C   UNL     1       5.717  11.040   5.659  0.00  0.00    +0.129 A 
BRANCH  33  34
ATOM     34  O   UNL     1       5.756  11.591   4.420  0.00  0.00    -0.506 OA
ATOM     35  H   UNL     1       5.138  12.324   4.296  0.00  0.00    +0.292 HD
ENDBRANCH  33  34
ENDBRANCH  25  28
ENDBRANCH  22  24
ENDBRANCH  19  20
ENDBRANCH   1  19
TORSDOF 7
