REMARK  Name = ZINC11376353
REMARK  5 active torsions:
REMARK  status: ('A' for Active; 'I' for Inactive)
REMARK    1  A    between atoms: C_6  and  S_7
REMARK    2  A    between atoms: S_7  and  N_10
REMARK    3  A    between atoms: C_15  and  C_17
REMARK    4  A    between atoms: C_22  and  C_25
REMARK    5  A    between atoms: C_25  and  C_26
REMARK                            x       y       z     vdW  Elec       q    Type
REMARK                         _______ _______ _______ _____ _____    ______ ____
ROOT
ATOM      1  N   UNL     1      -1.242   1.631   0.784  0.00  0.00    -0.165 NA
ATOM      2  C   UNL     1      -0.663   1.298  -0.524  0.00  0.00    +0.110 C 
ATOM      3  C   UNL     1      -1.008   2.413  -1.517  0.00  0.00    +0.017 C 
ATOM      4  C   UNL     1      -0.547   3.757  -0.949  0.00  0.00    +0.003 C 
ATOM      5  C   UNL     1      -1.281   4.036   0.364  0.00  0.00    +0.030 C 
ATOM      6  C   UNL     1      -0.939   2.940   1.379  0.00  0.00    +0.166 C 
ENDROOT
BRANCH   6   7
ATOM      7  C   UNL     1      -1.760   3.134   2.628  0.00  0.00    +0.238 C 
ATOM      8  O   UNL     1      -2.965   3.245   2.550  0.00  0.00    -0.274 OA
ATOM      9  N   UNL     1      -1.154   3.183   3.831  0.00  0.00    -0.263 N 
ATOM     10  C   UNL     1      -1.911   3.361   4.983  0.00  0.00    +0.165 A 
ATOM     11  N   UNL     1      -1.508   3.429   6.237  0.00  0.00    -0.229 NA
ATOM     12  C   UNL     1      -2.367   3.609   7.221  0.00  0.00    +0.059 A 
ATOM     13  C   UNL     1      -3.684   3.711   6.920  0.00  0.00    +0.072 A 
ATOM     14  S   UNL     1      -3.631   3.544   5.141  0.00  0.00    -0.060 S 
ATOM     15  H   UNL     1      -0.190   3.094   3.893  0.00  0.00    +0.157 HD
BRANCH  12  16
ATOM     16  C   UNL     1      -1.895   3.692   8.650  0.00  0.00    +0.151 C 
BRANCH  16  17
ATOM     17  C   UNL     1      -1.081   2.468   8.982  0.00  0.00    +0.216 C 
ATOM     18  O   UNL     1      -0.902   1.612   8.142  0.00  0.00    -0.276 OA
ATOM     19  N   UNL     1      -0.552   2.324  10.214  0.00  0.00    -0.329 N 
ATOM     20  H   UNL     1      -0.695   3.008  10.886  0.00  0.00    +0.145 HD
ATOM     21  H   UNL     1      -0.028   1.536  10.427  0.00  0.00    +0.145 HD
ENDBRANCH  16  17
ENDBRANCH  12  16
ENDBRANCH   6   7
BRANCH   1  22
ATOM     22  S   UNL     1      -2.221   0.552   1.572  0.00  0.00    +0.062 S 
ATOM     23  O   UNL     1      -1.752  -0.745   1.232  0.00  0.00    -0.153 OA
ATOM     24  O   UNL     1      -2.317   0.999   2.918  0.00  0.00    -0.153 OA
BRANCH  22  30
ATOM     25  C   UNL     1      -4.737   1.599   1.415  0.00  0.00    +0.029 A 
ATOM     26  C   UNL     1      -5.999   1.723   0.865  0.00  0.00    +0.017 A 
ATOM     27  C   UNL     1      -6.360   0.944  -0.220  0.00  0.00    +0.018 A 
ATOM     28  C   UNL     1      -5.456   0.046  -0.757  0.00  0.00    +0.017 A 
ATOM     29  C   UNL     1      -4.192  -0.073  -0.209  0.00  0.00    +0.029 A 
ATOM     30  C   UNL     1      -3.832   0.705   0.875  0.00  0.00    +0.106 A 
ATOM     31 BR   UNL     1      -8.089   1.108  -0.968  0.00  0.00    -0.050 Br
ENDBRANCH  22  30
ENDBRANCH   1  22
TORSDOF 5
