REMARK  Name = ZINC20058974
REMARK  6 active torsions:
REMARK  status: ('A' for Active; 'I' for Inactive)
REMARK    1  A    between atoms: C_1  and  C_2
REMARK    2  A    between atoms: C_9  and  C_11
REMARK    3  A    between atoms: C_12  and  C_36
REMARK    4  A    between atoms: C_16  and  C_18
REMARK    5  A    between atoms: C_21  and  O_24
REMARK    6  A    between atoms: C_28  and  C_31
REMARK                            x       y       z     vdW  Elec       q    Type
REMARK                         _______ _______ _______ _____ _____    ______ ____
ROOT
ATOM      1  C   UNL     1       1.196   2.949  -0.378  0.00  0.00    +0.043 C 
ATOM      2  C   UNL     1       1.166   1.662   0.007  0.00  0.00    +0.014 C 
ATOM      3  N   UNL     1      -0.013   0.969   0.016  0.00  0.00    -0.321 N 
ATOM      4  C   UNL     1      -1.211   1.632   0.024  0.00  0.00    +0.016 C 
ATOM      5  C   UNL     1      -1.284   2.923  -0.359  0.00  0.00    +0.024 C 
ATOM      6  C   UNL     1      -0.051   3.660  -0.815  0.00  0.00    +0.090 C 
ATOM      7  C   UNL     1      -2.508   3.614  -0.352  0.00  0.00    +0.162 C 
ATOM      8  O   UNL     1      -2.537   4.780  -0.695  0.00  0.00    -0.292 OA
ATOM      9  C   UNL     1      -3.783   2.937   0.054  0.00  0.00    +0.091 C 
ATOM     10  C   UNL     1      -3.673   1.438  -0.243  0.00  0.00    +0.068 C 
ATOM     11  C   UNL     1      -2.442   0.889   0.481  0.00  0.00    +0.062 C 
ATOM     12  C   UNL     1       2.440   0.977   0.431  0.00  0.00    +0.061 C 
ATOM     13  H   UNL     1      -0.005  -0.131   0.017  0.00  0.00    +0.152 HD
ENDROOT
BRANCH   1  22
ATOM     14  C   UNL     1       7.318   7.751  -0.292  0.00  0.00    +0.045 C 
ATOM     15  C   UNL     1       6.002   7.029  -0.427  0.00  0.00    -0.032 A 
ATOM     16  C   UNL     1       4.863   7.716  -0.826  0.00  0.00    +0.008 A 
ATOM     17  C   UNL     1       3.677   7.014  -0.943  0.00  0.00    +0.044 A 
ATOM     18  C   UNL     1       3.662   5.655  -0.647  0.00  0.00    +0.125 A 
ATOM     19  N   UNL     1       4.770   5.036  -0.270  0.00  0.00    -0.240 NA
ATOM     20  C   UNL     1       5.917   5.678  -0.155  0.00  0.00    +0.116 A 
ATOM     21  N   UNL     1       2.473   4.938  -0.754  0.00  0.00    -0.267 N 
ATOM     22  C   UNL     1       2.428   3.647  -0.371  0.00  0.00    +0.248 C 
ATOM     23  O   UNL     1       3.447   3.081  -0.018  0.00  0.00    -0.270 OA
ATOM     24  H   UNL     1       1.571   5.426  -1.152  0.00  0.00    +0.157 HD
ENDBRANCH   1  22
BRANCH   6  25
ATOM     25  C   UNL     1      -0.062   3.761  -2.319  0.00  0.00    -0.035 A 
ATOM     26  C   UNL     1      -0.035   2.611  -3.087  0.00  0.00    +0.008 A 
ATOM     27  C   UNL     1      -0.050   2.700  -4.465  0.00  0.00    +0.046 A 
ATOM     28  C   UNL     1      -0.082   3.944  -5.079  0.00  0.00    +0.117 A 
ATOM     29  C   UNL     1      -0.103   5.096  -4.306  0.00  0.00    +0.046 A 
ATOM     30  C   UNL     1      -0.093   5.002  -2.927  0.00  0.00    +0.008 A 
BRANCH  28  31
ATOM     31  O   UNL     1      -0.091   4.035  -6.435  0.00  0.00    -0.507 OA
ATOM     32  H   UNL     1      -0.116   5.021  -6.920  0.00  0.00    +0.292 HD
ENDBRANCH  28  31
ENDBRANCH   6  25
BRANCH  10  33
ATOM     33  C   UNL     1      -4.909   0.731   0.251  0.00  0.00    +0.109 A 
ATOM     34  C   UNL     1      -5.758   0.012  -0.504  0.00  0.00    +0.045 A 
ATOM     35  C   UNL     1      -6.768  -0.470   0.361  0.00  0.00    +0.041 A 
ATOM     36  C   UNL     1      -6.479  -0.009   1.591  0.00  0.00    +0.195 A 
ATOM     37  O   UNL     1      -5.352   0.718   1.518  0.00  0.00    -0.468 OA
ENDBRANCH  10  33
TORSDOF 4
