REMARK  Name = ZINC02236072
REMARK  6 active torsions:
REMARK  status: ('A' for Active; 'I' for Inactive)
REMARK    1  A    between atoms: C_1  and  C_2
REMARK    2  A    between atoms: N_8  and  C_9
REMARK    3  A    between atoms: C_9  and  C_10
REMARK    4  A    between atoms: C_15  and  C_23
REMARK    5  A    between atoms: C_17  and  C_21
REMARK    6  A    between atoms: C_18  and  N_20
REMARK                            x       y       z     vdW  Elec       q    Type
REMARK                         _______ _______ _______ _____ _____    ______ ____
ROOT
ATOM      1  C   UNL     1      -0.018   1.503   0.010  0.00  0.00    +0.064 C 
ATOM      2  C   UNL     1       0.002  -0.004   0.002  0.00  0.00    +0.023 A 
ATOM      3  C   UNL     1       0.005  -0.663  -1.176  0.00  0.00    +0.068 A 
ATOM      4  C   UNL     1       0.024  -2.074  -1.190  0.00  0.00    +0.141 A 
ATOM      5  C   UNL     1       0.039  -2.753   0.010  0.00  0.00    +0.072 A 
ATOM      6  C   UNL     1       0.035  -2.026   1.208  0.00  0.00    +0.260 A 
ATOM      7  O   UNL     1       0.048  -2.614   2.278  0.00  0.00    -0.267 OA
ATOM      8  N   UNL     1       0.022  -0.680   1.180  0.00  0.00    -0.305 N 
ATOM      9  C   UNL     1       0.057  -4.256   0.043  0.00  0.00    +0.103 C 
ATOM     10  C   UNL     1       0.455  -4.798  -1.302  0.00  0.00    +0.098 C 
ATOM     11  C   UNL     1       0.418  -4.021  -2.411  0.00  0.00    +0.199 C 
ATOM     12  O   UNL     1       0.027  -2.736  -2.366  0.00  0.00    -0.441 OA
ENDROOT
BRANCH   9  13
ATOM     13  C   UNL     1      -1.316  -4.765   0.397  0.00  0.00    -0.034 A 
ATOM     14  C   UNL     1      -2.395  -4.465  -0.413  0.00  0.00    +0.004 A 
ATOM     15  C   UNL     1      -3.655  -4.932  -0.088  0.00  0.00    +0.000 A 
ATOM     16  C   UNL     1      -3.836  -5.700   1.048  0.00  0.00    +0.000 A 
ATOM     17  C   UNL     1      -2.756  -6.001   1.857  0.00  0.00    +0.000 A 
ATOM     18  C   UNL     1      -1.496  -5.537   1.530  0.00  0.00    +0.004 A 
ENDBRANCH   9  13
BRANCH  11  19
ATOM     19  N   UNL     1       0.790  -4.563  -3.616  0.00  0.00    -0.328 N 
ATOM     20  H   UNL     1       1.074  -5.489  -3.665  0.00  0.00    +0.145 HD
ATOM     21  H   UNL     1       0.769  -4.019  -4.419  0.00  0.00    +0.145 HD
ENDBRANCH  11  19
BRANCH  10  22
ATOM     22  C   UNL     1       0.880  -6.161  -1.413  0.00  0.00    +0.101 C 
ATOM     23  N   UNL     1       1.218  -7.242  -1.501  0.00  0.00    -0.191 NA
ENDBRANCH  10  22
BRANCH   8  24
ATOM     24  C   UNL     1       0.025   0.067   2.441  0.00  0.00    +0.199 C 
BRANCH  24  25
ATOM     25  C   UNL     1      -1.395   0.304   2.886  0.00  0.00    +0.125 A 
ATOM     26  C   UNL     1      -2.117  -0.508   3.680  0.00  0.00    +0.046 A 
ATOM     27  C   UNL     1      -3.385   0.096   3.840  0.00  0.00    +0.041 A 
ATOM     28  C   UNL     1      -3.362   1.241   3.134  0.00  0.00    +0.195 A 
ATOM     29  O   UNL     1      -2.153   1.365   2.564  0.00  0.00    -0.466 OA
ENDBRANCH  24  25
ENDBRANCH   8  24
TORSDOF 5
