REMARK  Name = ZINC02095995
REMARK  13 active torsions:
REMARK  status: ('A' for Active; 'I' for Inactive)
REMARK    1  A    between atoms: C_1  and  C_2
REMARK    2  A    between atoms: C_2  and  C_3
REMARK    3  A    between atoms: C_3  and  C_4
REMARK    4  A    between atoms: C_4  and  N_77
REMARK    5  A    between atoms: C_5  and  C_6
REMARK    6  A    between atoms: C_5  and  N_77
REMARK    7  A    between atoms: C_6  and  C_7
REMARK    8  A    between atoms: C_7  and  C_8
REMARK    9  A    between atoms: C_9  and  C_10
REMARK   10  A    between atoms: C_9  and  N_77
REMARK   11  A    between atoms: C_10  and  C_11
REMARK   12  A    between atoms: C_11  and  N_12
REMARK   13  A    between atoms: C_32  and  C_34
REMARK                            x       y       z     vdW  Elec       q    Type
REMARK                         _______ _______ _______ _____ _____    ______ ____
ROOT
ATOM      1  N   UNL     1       1.372  -1.778  -0.815  0.00  0.00    -0.291 N 
ATOM      2  C   UNL     1       0.503  -2.876  -1.203  0.00  0.00    +0.203 C 
ATOM      3  C   UNL     1      -0.933  -2.465  -1.250  0.00  0.00    +0.234 C 
ATOM      4  O   UNL     1      -1.748  -3.298  -1.585  0.00  0.00    -0.274 OA
ATOM      5  N   UNL     1      -1.379  -1.244  -0.949  0.00  0.00    -0.276 N 
ATOM      6  C   UNL     1      -0.511  -0.174  -0.457  0.00  0.00    +0.167 C 
ATOM      7  C   UNL     1       0.931  -0.566  -0.481  0.00  0.00    +0.237 C 
ATOM      8  O   UNL     1       1.753   0.273  -0.177  0.00  0.00    -0.274 OA
ATOM      9  C   UNL     1      -0.923   0.190   0.976  0.00  0.00    +0.069 C 
ATOM     10  C   UNL     1      -2.425   0.305   1.036  0.00  0.00    -0.015 A 
ATOM     11  C   UNL     1      -3.236   0.946   2.051  0.00  0.00    +0.003 A 
ATOM     12  C   UNL     1      -2.916   1.627   3.229  0.00  0.00    +0.010 A 
ATOM     13  C   UNL     1      -3.965   2.115   3.968  0.00  0.00    +0.001 A 
ATOM     14  C   UNL     1      -5.283   1.947   3.576  0.00  0.00    +0.002 A 
ATOM     15  C   UNL     1      -5.628   1.278   2.415  0.00  0.00    +0.026 A 
ATOM     16  C   UNL     1      -4.583   0.771   1.644  0.00  0.00    +0.047 A 
ATOM     17  N   UNL     1      -4.566   0.077   0.469  0.00  0.00    -0.356 N 
ATOM     18  H   UNL     1      -5.351  -0.183  -0.038  0.00  0.00    +0.166 HD
ATOM     19  C   UNL     1      -3.272  -0.197   0.112  0.00  0.00    +0.046 A 
ATOM     20  C   UNL     1      -2.816  -0.942  -1.122  0.00  0.00    +0.154 C 
ENDROOT
BRANCH  20  21
ATOM     21  C   UNL     1      -3.595  -2.224  -1.264  0.00  0.00    -0.021 A 
ATOM     22  C   UNL     1      -4.210  -2.529  -2.464  0.00  0.00    +0.006 A 
ATOM     23  C   UNL     1      -4.921  -3.707  -2.596  0.00  0.00    +0.000 A 
ATOM     24  C   UNL     1      -5.026  -4.575  -1.526  0.00  0.00    +0.000 A 
ATOM     25  C   UNL     1      -4.415  -4.268  -0.324  0.00  0.00    +0.000 A 
ATOM     26  C   UNL     1      -3.700  -3.092  -0.194  0.00  0.00    +0.006 A 
ENDBRANCH  20  21
BRANCH   1  27
ATOM     27  C   UNL     1       2.817  -2.017  -0.789  0.00  0.00    +0.106 C 
BRANCH  27  28
ATOM     28  C   UNL     1       3.414  -1.687  -2.159  0.00  0.00    +0.000 C 
BRANCH  28  29
ATOM     29  C   UNL     1       4.923  -1.937  -2.131  0.00  0.00    -0.077 C 
BRANCH  29  30
ATOM     30  N   UNL     1       5.480  -1.634  -3.466  0.00  0.00    +0.380 N 
ATOM     31  H   UNL     1       4.940  -2.142  -4.177  0.00  0.00    -0.082 HD
BRANCH  30  32
ATOM     32  C   UNL     1       5.385  -0.184  -3.736  0.00  0.00    -0.079 C 
BRANCH  32  33
ATOM     33  C   UNL     1       6.159   0.610  -2.683  0.00  0.00    -0.019 C 
BRANCH  33  35
ATOM     34  C   UNL     1       6.794   2.901  -1.915  0.00  0.00    +0.004 C 
ATOM     35  C   UNL     1       6.020   2.107  -2.969  0.00  0.00    -0.005 C 
ENDBRANCH  33  35
ENDBRANCH  32  33
ENDBRANCH  30  32
BRANCH  30  36
ATOM     36  C   UNL     1       6.891  -2.069  -3.535  0.00  0.00    -0.079 C 
BRANCH  36  37
ATOM     37  C   UNL     1       7.329  -2.087  -5.001  0.00  0.00    -0.019 C 
BRANCH  37  38
ATOM     38  C   UNL     1       8.784  -2.551  -5.093  0.00  0.00    -0.005 C 
ATOM     39  C   UNL     1       9.222  -2.569  -6.559  0.00  0.00    +0.004 C 
ENDBRANCH  37  38
ENDBRANCH  36  37
ENDBRANCH  30  36
ENDBRANCH  29  30
ENDBRANCH  28  29
ENDBRANCH  27  28
ENDBRANCH   1  27
TORSDOF 11
