REMARK  Name = ZINC09429632
REMARK  7 active torsions:
REMARK  status: ('A' for Active; 'I' for Inactive)
REMARK    1  A    between atoms: C_1  and  C_2
REMARK    2  A    between atoms: C_5  and  S_8
REMARK    3  A    between atoms: S_8  and  C_11
REMARK    4  A    between atoms: C_13  and  O_34
REMARK    5  A    between atoms: C_17  and  C_23
REMARK    6  A    between atoms: N_25  and  C_26
REMARK    7  A    between atoms: C_26  and  C_27
REMARK                            x       y       z     vdW  Elec       q    Type
REMARK                         _______ _______ _______ _____ _____    ______ ____
ROOT
ATOM      1  C   UNL     1       1.822  -4.974  -0.035  0.00  0.00    +0.286 C 
ATOM      2  C   UNL     1       1.920  -6.487  -0.074  0.00  0.00    +0.136 C 
ATOM      3  C   UNL     1       2.620  -7.051  -1.147  0.00  0.00    +0.036 A 
ATOM      4  C   UNL     1       2.756  -8.450  -1.256  0.00  0.00    +0.014 A 
ATOM      5  C   UNL     1       3.438  -8.986  -2.303  0.00  0.00    +0.014 A 
ATOM      6  C   UNL     1       4.015  -8.171  -3.286  0.00  0.00    +0.038 A 
ATOM      7  C   UNL     1       3.913  -6.792  -3.229  0.00  0.00    +0.037 A 
ATOM      8  C   UNL     1       3.217  -6.187  -2.167  0.00  0.00    +0.045 A 
ATOM      9  N   UNL     1       3.118  -4.853  -2.114  0.00  0.00    -0.283 N 
ATOM     10  C   UNL     1       2.486  -4.207  -1.156  0.00  0.00    +0.249 C 
ATOM     11  O   UNL     1       2.437  -2.991  -1.173  0.00  0.00    -0.273 OA
ATOM     12  H   UNL     1       3.535  -4.334  -2.820  0.00  0.00    +0.155 HD
ENDROOT
BRANCH   6  13
ATOM     13  C   UNL     1       4.750  -8.799  -4.410  0.00  0.00    +0.244 C 
ATOM     14  O   UNL     1       5.255  -8.104  -5.269  0.00  0.00    -0.270 OA
ATOM     15  N   UNL     1       4.858 -10.140  -4.479  0.00  0.00    -0.307 N 
ATOM     16  H   UNL     1       4.455 -10.695  -3.792  0.00  0.00    +0.149 HD
BRANCH  15  17
ATOM     17  C   UNL     1       5.585 -10.761  -5.589  0.00  0.00    +0.141 C 
BRANCH  17  18
ATOM     18  C   UNL     1       5.558 -12.259  -5.431  0.00  0.00    -0.012 A 
ATOM     19  C   UNL     1       6.653 -12.918  -4.903  0.00  0.00    +0.006 A 
ATOM     20  C   UNL     1       6.629 -14.292  -4.758  0.00  0.00    +0.000 A 
ATOM     21  C   UNL     1       5.511 -15.009  -5.142  0.00  0.00    +0.001 A 
ATOM     22  C   UNL     1       4.416 -14.352  -5.670  0.00  0.00    +0.020 A 
ATOM     23  C   UNL     1       4.437 -12.975  -5.810  0.00  0.00    +0.046 A 
ATOM     24 CL   UNL     1       3.060 -12.148  -6.468  0.00  0.00    -0.083 Cl
ENDBRANCH  17  18
ENDBRANCH  15  17
ENDBRANCH   6  13
BRANCH   1  25
ATOM     25  S   UNL     1       0.063  -4.530  -0.023  0.00  0.00    +0.015 S 
ATOM     26  O   UNL     1      -0.528  -4.907   1.213  0.00  0.00    -0.168 OA
ATOM     27  O   UNL     1      -0.542  -4.894  -1.256  0.00  0.00    -0.168 OA
BRANCH  25  32
ATOM     28  C   UNL     1      -0.018   1.503   0.010  0.00  0.00    +0.044 C 
ATOM     29  C   UNL     1       0.002  -0.004   0.002  0.00  0.00    -0.050 A 
ATOM     30  C   UNL     1       0.006  -0.689  -1.199  0.00  0.00    +0.005 A 
ATOM     31  C   UNL     1       0.025  -2.071  -1.206  0.00  0.00    +0.027 A 
ATOM     32  C   UNL     1       0.040  -2.768  -0.013  0.00  0.00    +0.090 A 
ATOM     33  C   UNL     1       0.037  -2.084   1.188  0.00  0.00    +0.027 A 
ATOM     34  C   UNL     1       0.023  -0.702   1.195  0.00  0.00    +0.005 A 
ENDBRANCH  25  32
ENDBRANCH   1  25
BRANCH   2  35
ATOM     35  O   UNL     1       1.364  -7.247   0.874  0.00  0.00    -0.508 OA
ATOM     36  H   UNL     1       1.492  -8.196   0.743  0.00  0.00    +0.292 HD
ENDBRANCH   2  35
TORSDOF 6
