REMARK  Name = ZINC35399561
REMARK  9 active torsions:
REMARK  status: ('A' for Active; 'I' for Inactive)
REMARK    1  A    between atoms: C_1  and  C_2
REMARK    2  A    between atoms: C_7  and  C_8
REMARK    3  A    between atoms: C_21  and  C_23
REMARK    4  A    between atoms: C_25  and  O_33
REMARK    5  A    between atoms: C_26  and  O_31
REMARK    6  A    between atoms: C_27  and  O_29
REMARK    7  A    between atoms: O_29  and  C_30
REMARK    8  A    between atoms: O_31  and  C_32
REMARK    9  A    between atoms: O_33  and  C_34
REMARK                            x       y       z     vdW  Elec       q    Type
REMARK                         _______ _______ _______ _____ _____    ______ ____
ROOT
ATOM      1  C   UNL     1       0.219   1.387   0.772  0.00  0.00    +0.044 C 
ATOM      2  C   UNL     1       0.011  -0.103   0.705  0.00  0.00    -0.045 A 
ATOM      3  C   UNL     1      -0.021  -0.741  -0.522  0.00  0.00    +0.005 A 
ATOM      4  C   UNL     1      -0.222  -2.107  -0.596  0.00  0.00    +0.025 A 
ATOM      5  C   UNL     1      -0.388  -2.845   0.565  0.00  0.00    +0.052 A 
ATOM      6  C   UNL     1      -0.335  -2.199   1.804  0.00  0.00    +0.070 A 
ATOM      7  C   UNL     1      -0.142  -0.833   1.871  0.00  0.00    -0.022 A 
ATOM      8  C   UNL     1      -0.105  -0.139   3.208  0.00  0.00    +0.046 C 
ATOM      9  N   UNL     1      -0.441  -2.986   2.961  0.00  0.00    -0.316 N 
ATOM     10  C   UNL     1      -0.604  -2.616   4.255  0.00  0.00    +0.092 A 
ATOM     11  C   UNL     1      -0.679  -3.737   5.006  0.00  0.00    +0.020 A 
ATOM     12  C   UNL     1      -0.550  -4.843   4.137  0.00  0.00    +0.025 A 
ATOM     13  C   UNL     1      -0.397  -4.362   2.899  0.00  0.00    +0.047 A 
ATOM     14  C   UNL     1      -0.188  -5.099   1.600  0.00  0.00    +0.075 C 
ATOM     15  N   UNL     1      -0.624  -4.224   0.502  0.00  0.00    -0.331 N 
ATOM     16  C   UNL     1       1.293  -5.437   1.428  0.00  0.00    +0.051 C 
ATOM     17  C   UNL     1       1.499  -6.144   0.085  0.00  0.00    +0.110 C 
ATOM     18  N   UNL     1       0.599  -7.303   0.018  0.00  0.00    -0.297 N 
ATOM     19  C   UNL     1      -0.837  -7.098   0.252  0.00  0.00    +0.110 C 
ATOM     20  C   UNL     1      -1.019  -6.381   1.594  0.00  0.00    +0.051 C 
ATOM     21  C   UNL     1       1.081  -8.532  -0.254  0.00  0.00    +0.247 C 
ATOM     22  O   UNL     1       2.281  -8.709  -0.341  0.00  0.00    -0.270 OA
ATOM     23  H   UNL     1      -1.077  -4.603  -0.268  0.00  0.00    +0.147 HD
ENDROOT
BRANCH  21  24
ATOM     24  C   UNL     1       0.153  -9.663  -0.447  0.00  0.00    +0.044 A 
ATOM     25  C   UNL     1      -1.018  -9.489  -1.189  0.00  0.00    +0.062 A 
ATOM     26  C   UNL     1      -1.886 -10.550  -1.368  0.00  0.00    +0.166 A 
ATOM     27  C   UNL     1      -1.594 -11.792  -0.810  0.00  0.00    +0.204 A 
ATOM     28  C   UNL     1      -0.428 -11.968  -0.069  0.00  0.00    +0.166 A 
ATOM     29  C   UNL     1       0.446 -10.912   0.108  0.00  0.00    +0.062 A 
BRANCH  28  30
ATOM     30  O   UNL     1      -0.146 -13.182   0.476  0.00  0.00    -0.491 OA
ATOM     31  C   UNL     1       1.067 -13.291   1.223  0.00  0.00    +0.277 C 
ENDBRANCH  28  30
BRANCH  27  32
ATOM     32  O   UNL     1      -2.449 -12.833  -0.987  0.00  0.00    -0.488 OA
ATOM     33  C   UNL     1      -2.234 -13.661  -2.132  0.00  0.00    +0.277 C 
ENDBRANCH  27  32
BRANCH  26  34
ATOM     34  O   UNL     1      -3.026 -10.381  -2.091  0.00  0.00    -0.491 OA
ATOM     35  C   UNL     1      -3.262  -9.081  -2.635  0.00  0.00    +0.277 C 
ENDBRANCH  26  34
ENDBRANCH  21  24
TORSDOF 4
