REMARK  Name = ZINC66886096
REMARK  7 active torsions:
REMARK  status: ('A' for Active; 'I' for Inactive)
REMARK    1  A    between atoms: C_4  and  C_7
REMARK    2  A    between atoms: C_7  and  C_8
REMARK    3  A    between atoms: N_10  and  C_11
REMARK    4  A    between atoms: N_14  and  C_17
REMARK    5  A    between atoms: C_17  and  C_18
REMARK    6  A    between atoms: N_20  and  C_21
REMARK    7  A    between atoms: C_21  and  C_22
REMARK                            x       y       z     vdW  Elec       q    Type
REMARK                         _______ _______ _______ _____ _____    ______ ____
ROOT
ATOM      1  C   UNL     1       3.726  -4.080  -3.435  0.00  0.00    +0.069 C 
ATOM      2  C   UNL     1       2.449  -4.723  -3.985  0.00  0.00    +0.003 C 
ATOM      3  C   UNL     1       2.618  -6.244  -4.004  0.00  0.00    -0.076 C 
ATOM      4  N   UNL     1       3.755  -6.603  -4.860  0.00  0.00    +0.385 N 
ATOM      5  C   UNL     1       4.994  -6.049  -4.300  0.00  0.00    -0.076 C 
ATOM      6  C   UNL     1       4.917  -4.521  -4.292  0.00  0.00    +0.003 C 
ATOM      7  H   UNL     1       3.610  -6.229  -5.785  0.00  0.00    -0.081 HD
ENDROOT
BRANCH   1  10
ATOM      8  C   UNL     1       2.999  -1.962  -2.475  0.00  0.00    +0.213 C 
ATOM      9  O   UNL     1       2.561  -2.576  -1.526  0.00  0.00    -0.276 OA
ATOM     10  N   UNL     1       3.601  -2.621  -3.485  0.00  0.00    -0.313 N 
ATOM     11  H   UNL     1       3.951  -2.130  -4.245  0.00  0.00    +0.149 HD
BRANCH   8  12
ATOM     12  C   UNL     1       2.870  -0.461  -2.526  0.00  0.00    +0.099 C 
BRANCH  12  16
ATOM     13  C   UNL     1      -0.019   1.526   0.010  0.00  0.00    +0.000 C 
ATOM     14  C   UNL     1       1.417   2.055  -0.000  0.00  0.00    +0.000 C 
ATOM     15  C   UNL     1       2.133   1.562  -1.259  0.00  0.00    +0.004 C 
ATOM     16  C   UNL     1       2.154   0.032  -1.268  0.00  0.00    -0.002 C 
ATOM     17  C   UNL     1       0.718  -0.497  -1.257  0.00  0.00    +0.004 C 
ATOM     18  C   UNL     1       0.002  -0.004   0.002  0.00  0.00    +0.000 C 
ENDBRANCH  12  16
ENDBRANCH   8  12
ENDBRANCH   1  10
BRANCH   4  19
ATOM     19  C   UNL     1       3.865  -8.065  -4.937  0.00  0.00    +0.019 C 
BRANCH  19  20
ATOM     20  C   UNL     1       4.954  -8.436  -5.911  0.00  0.00    +0.196 C 
ATOM     21  O   UNL     1       5.577  -7.567  -6.484  0.00  0.00    -0.278 OA
ATOM     22  N   UNL     1       5.235  -9.733  -6.146  0.00  0.00    -0.317 N 
ATOM     23  H   UNL     1       4.737 -10.428  -5.687  0.00  0.00    +0.149 HD
BRANCH  22  24
ATOM     24  C   UNL     1       6.293 -10.094  -7.093  0.00  0.00    +0.110 C 
BRANCH  24  25
ATOM     25  C   UNL     1       6.408 -11.617  -7.173  0.00  0.00    +0.034 C 
ATOM     26  C   UNL     1       7.484 -12.036  -8.212  0.00  0.00    +0.035 C 
ATOM     27  C   UNL     1       7.933 -13.403  -7.635  0.00  0.00    +0.160 C 
ATOM     28  O   UNL     1       7.895 -13.238  -6.208  0.00  0.00    -0.379 OA
ATOM     29  C   UNL     1       6.971 -12.197  -5.858  0.00  0.00    +0.165 C 
ENDBRANCH  24  25
ENDBRANCH  22  24
ENDBRANCH  19  20
ENDBRANCH   4  19
TORSDOF 7
