REMARK  Name = ZINC02426301
REMARK  8 active torsions:
REMARK  status: ('A' for Active; 'I' for Inactive)
REMARK    1  A    between atoms: C_1  and  C_2
REMARK    2  A    between atoms: C_2  and  C_3
REMARK    3  A    between atoms: C_3  and  O_4
REMARK    4  A    between atoms: O_4  and  C_5
REMARK    5  A    between atoms: C_5  and  C_7
REMARK    6  A    between atoms: N_18  and  C_21
REMARK    7  A    between atoms: C_19  and  N_20
REMARK    8  A    between atoms: C_21  and  C_22
REMARK                            x       y       z     vdW  Elec       q    Type
REMARK                         _______ _______ _______ _____ _____    ______ ____
ROOT
ATOM      1  C   UNL     1       1.438  -3.964   2.322  0.00  0.00    +0.126 A 
ATOM      2  C   UNL     1       2.492  -4.826   1.763  0.00  0.00    +0.124 A 
ATOM      3  C   UNL     1       2.084  -6.196   2.087  0.00  0.00    +0.162 A 
ATOM      4  N   UNL     1       2.842  -7.203   1.708  0.00  0.00    -0.226 NA
ATOM      5  C   UNL     1       3.975  -6.969   1.034  0.00  0.00    +0.092 A 
ATOM      6  C   UNL     1       4.791  -8.040   0.625  0.00  0.00    +0.030 A 
ATOM      7  C   UNL     1       5.940  -7.792  -0.060  0.00  0.00    +0.002 A 
ATOM      8  C   UNL     1       6.325  -6.488  -0.367  0.00  0.00    +0.002 A 
ATOM      9  C   UNL     1       5.563  -5.427   0.012  0.00  0.00    +0.030 A 
ATOM     10  C   UNL     1       4.367  -5.643   0.722  0.00  0.00    +0.090 A 
ATOM     11  N   UNL     1       3.609  -4.607   1.099  0.00  0.00    -0.241 NA
ATOM     12  N   UNL     1       0.891  -6.110   2.775  0.00  0.00    -0.307 N 
ATOM     13  C   UNL     1       0.511  -4.812   2.921  0.00  0.00    +0.114 A 
ENDROOT
BRANCH  13  14
ATOM     14  N   UNL     1      -0.625  -4.398   3.565  0.00  0.00    -0.344 N 
ATOM     15  H   UNL     1      -0.831  -3.452   3.627  0.00  0.00    +0.144 HD
ATOM     16  H   UNL     1      -1.224  -5.051   3.960  0.00  0.00    +0.144 HD
ENDBRANCH  13  14
BRANCH   1  17
ATOM     17  C   UNL     1       1.381  -2.550   2.266  0.00  0.00    +0.345 C 
ATOM     18  O   UNL     1       1.891  -1.885   3.148  0.00  0.00    -0.245 OA
BRANCH  17  19
ATOM     19  O   UNL     1       0.761  -1.940   1.234  0.00  0.00    -0.461 OA
BRANCH  19  20
ATOM     20  C   UNL     1       0.742  -0.511   1.242  0.00  0.00    +0.232 C 
BRANCH  20  22
ATOM     21  C   UNL     1      -0.019   1.526   0.010  0.00  0.00    +0.007 C 
ATOM     22  C   UNL     1       0.002  -0.004   0.002  0.00  0.00    +0.038 C 
ENDBRANCH  20  22
ENDBRANCH  19  20
ENDBRANCH  17  19
ENDBRANCH   1  17
BRANCH  12  23
ATOM     23  C   UNL     1       0.139  -7.259   3.285  0.00  0.00    +0.167 C 
BRANCH  23  24
ATOM     24  C   UNL     1       0.595  -7.576   4.686  0.00  0.00    +0.010 A 
ATOM     25  C   UNL     1       0.117  -7.110   5.865  0.00  0.00    +0.013 A 
ATOM     26  C   UNL     1       0.696  -7.544   7.043  0.00  0.00    +0.008 A 
ATOM     27  C   UNL     1       1.726  -8.424   6.983  0.00  0.00    +0.045 A 
ATOM     28  S   UNL     1       1.900  -8.669   5.223  0.00  0.00    -0.100 S 
ENDBRANCH  23  24
ENDBRANCH  12  23
TORSDOF 7
