REMARK  Name = ZINC02661625
REMARK  8 active torsions:
REMARK  status: ('A' for Active; 'I' for Inactive)
REMARK    1  A    between atoms: C_1  and  C_2
REMARK    2  A    between atoms: C_6  and  C_15
REMARK    3  A    between atoms: C_10  and  C_11
REMARK    4  A    between atoms: C_11  and  O_13
REMARK    5  A    between atoms: O_13  and  C_14
REMARK    6  A    between atoms: C_15  and  N_60
REMARK    7  A    between atoms: C_16  and  N_60
REMARK    8  A    between atoms: N_22  and  C_23
REMARK                            x       y       z     vdW  Elec       q    Type
REMARK                         _______ _______ _______ _____ _____    ______ ____
ROOT
ATOM      1  C   UNL     1      -3.745  -2.386   0.608  0.00  0.00    +0.046 C 
ATOM      2  C   UNL     1      -2.362  -2.980   0.532  0.00  0.00    -0.017 A 
ATOM      3  C   UNL     1      -2.191  -4.316   0.146  0.00  0.00    +0.051 A 
ATOM      4  C   UNL     1      -3.176  -5.284  -0.215  0.00  0.00    +0.131 A 
ATOM      5  N   UNL     1      -2.789  -6.505  -0.545  0.00  0.00    -0.219 NA
ATOM      6  C   UNL     1      -1.518  -6.864  -0.551  0.00  0.00    +0.116 A 
ATOM      7  N   UNL     1      -0.560  -6.016  -0.227  0.00  0.00    -0.227 NA
ATOM      8  C   UNL     1      -0.853  -4.778   0.114  0.00  0.00    +0.114 A 
ATOM      9  S   UNL     1       0.084  -3.354   0.606  0.00  0.00    -0.062 S 
ATOM     10  C   UNL     1      -1.274  -2.218   0.835  0.00  0.00    +0.102 A 
ATOM     11  N   UNL     1      -4.515  -4.950  -0.221  0.00  0.00    -0.326 N 
ATOM     12  H   UNL     1      -4.786  -4.030  -0.074  0.00  0.00    +0.148 HD
ENDROOT
BRANCH  11  13
ATOM     13  C   UNL     1      -5.527  -5.985  -0.449  0.00  0.00    +0.072 C 
ATOM     14  C   UNL     1      -5.721  -6.186  -1.953  0.00  0.00    +0.022 C 
ATOM     15  C   UNL     1      -6.778  -7.266  -2.191  0.00  0.00    +0.002 C 
ATOM     16  C   UNL     1      -8.102  -6.832  -1.559  0.00  0.00    +0.000 C 
ATOM     17  C   UNL     1      -7.907  -6.631  -0.054  0.00  0.00    +0.002 C 
ATOM     18  C   UNL     1      -6.851  -5.551   0.183  0.00  0.00    +0.022 C 
ENDBRANCH  11  13
BRANCH  10  19
ATOM     19  C   UNL     1      -1.230  -0.813   1.252  0.00  0.00    +0.346 C 
ATOM     20  O   UNL     1      -2.261  -0.178   1.359  0.00  0.00    -0.244 OA
BRANCH  19  21
ATOM     21  O   UNL     1      -0.045  -0.225   1.516  0.00  0.00    -0.464 OA
ATOM     22  C   UNL     1      -0.077   1.168   1.924  0.00  0.00    +0.280 C 
ENDBRANCH  19  21
ENDBRANCH  10  19
BRANCH   6  23
ATOM     23  C   UNL     1      -1.153  -8.274  -0.939  0.00  0.00    -0.005 C 
BRANCH  23  24
ATOM     24  N   UNL     1      -0.932  -8.334  -2.396  0.00  0.00    +0.386 N 
ATOM     25  H   UNL     1      -0.170  -7.694  -2.649  0.00  0.00    -0.085 HD
ATOM     26  H   UNL     1      -1.792  -8.050  -2.881  0.00  0.00    -0.085 HD
BRANCH  24  27
ATOM     27  C   UNL     1      -0.573  -9.705  -2.804  0.00  0.00    -0.071 C 
ATOM     28  C   UNL     1       0.933  -9.912  -2.630  0.00  0.00    -0.016 C 
ATOM     29  C   UNL     1       1.306 -11.331  -3.062  0.00  0.00    -0.002 C 
ATOM     30  C   UNL     1       0.930 -11.533  -4.532  0.00  0.00    -0.000 C 
ATOM     31  C   UNL     1      -0.576 -11.326  -4.705  0.00  0.00    -0.002 C 
ATOM     32  C   UNL     1      -0.949  -9.906  -4.273  0.00  0.00    -0.016 C 
ENDBRANCH  24  27
ENDBRANCH  23  24
ENDBRANCH   6  23
TORSDOF 6
