REMARK  Name = ZINC15044521
REMARK  11 active torsions:
REMARK  status: ('A' for Active; 'I' for Inactive)
REMARK    1  A    between atoms: C_4  and  O_33
REMARK    2  A    between atoms: C_5  and  C_7
REMARK    3  A    between atoms: N_11  and  C_15
REMARK    4  A    between atoms: C_15  and  C_16
REMARK    5  A    between atoms: C_16  and  C_17
REMARK    6  A    between atoms: C_17  and  C_18
REMARK    7  A    between atoms: C_18  and  C_19
REMARK    8  A    between atoms: C_19  and  C_20
REMARK    9  A    between atoms: N_22  and  C_23
REMARK   10  A    between atoms: C_26  and  S_29
REMARK   11  A    between atoms: S_29  and  N_32
REMARK                            x       y       z     vdW  Elec       q    Type
REMARK                         _______ _______ _______ _____ _____    ______ ____
ROOT
ATOM      1  C   UNL     1      -0.094  -2.235   0.014  0.00  0.00    +0.002 C 
ENDROOT
BRANCH   1   2
ATOM      2  C   UNL     1      -0.098  -0.725   0.259  0.00  0.00    +0.019 C 
BRANCH   2   3
ATOM      3  C   UNL     1       0.190   0.005  -1.055  0.00  0.00    +0.115 C 
BRANCH   3   8
ATOM      4  C   UNL     1       2.228   4.384   0.078  0.00  0.00    +0.031 C 
ATOM      5  C   UNL     1       1.246   3.513  -0.267  0.00  0.00    +0.077 C 
ATOM      6  C   UNL     1       1.315   2.055  -0.489  0.00  0.00    +0.258 C 
ATOM      7  O   UNL     1       2.359   1.440  -0.372  0.00  0.00    -0.269 OA
ATOM      8  N   UNL     1       0.186   1.451  -0.821  0.00  0.00    -0.255 N 
ATOM      9  C   UNL     1      -0.967   2.138  -0.954  0.00  0.00    +0.121 C 
ATOM     10  S   UNL     1      -2.515   1.543  -1.378  0.00  0.00    -0.027 S 
ATOM     11  S   UNL     1      -0.488   3.816  -0.577  0.00  0.00    -0.061 S 
BRANCH   4  16
ATOM     12  C   UNL     1       0.582   7.700  -0.503  0.00  0.00    +0.001 A 
ATOM     13  C   UNL     1       1.427   8.548   0.195  0.00  0.00    +0.004 A 
ATOM     14  C   UNL     1       2.532   8.047   0.856  0.00  0.00    +0.046 A 
ATOM     15  C   UNL     1       2.801   6.688   0.829  0.00  0.00    +0.124 A 
ATOM     16  C   UNL     1       1.952   5.825   0.119  0.00  0.00    +0.018 A 
ATOM     17  C   UNL     1       0.836   6.346  -0.546  0.00  0.00    +0.011 A 
BRANCH  15  18
ATOM     18  O   UNL     1       3.884   6.194   1.483  0.00  0.00    -0.506 OA
ATOM     19  H   UNL     1       4.688   6.166   0.947  0.00  0.00    +0.292 HD
ENDBRANCH  15  18
ENDBRANCH   4  16
ENDBRANCH   3   8
ENDBRANCH   2   3
ENDBRANCH   1   2
BRANCH   1  20
ATOM     20  C   UNL     1      -0.382  -2.965   1.327  0.00  0.00    +0.009 C 
BRANCH  20  21
ATOM     21  C   UNL     1      -0.378  -4.476   1.083  0.00  0.00    +0.096 C 
BRANCH  21  22
ATOM     22  C   UNL     1      -0.662  -5.195   2.377  0.00  0.00    +0.217 C 
ATOM     23  O   UNL     1      -0.848  -4.561   3.394  0.00  0.00    -0.275 OA
ATOM     24  N   UNL     1      -0.708  -6.541   2.403  0.00  0.00    -0.285 N 
ATOM     25  H   UNL     1      -0.660  -7.045   1.575  0.00  0.00    +0.155 HD
BRANCH  24  26
ATOM     26  C   UNL     1      -0.825  -7.214   3.624  0.00  0.00    +0.033 A 
ATOM     27  C   UNL     1      -0.167  -8.421   3.820  0.00  0.00    +0.025 A 
ATOM     28  C   UNL     1      -0.281  -9.079   5.029  0.00  0.00    +0.030 A 
ATOM     29  C   UNL     1      -1.058  -8.543   6.040  0.00  0.00    +0.105 A 
ATOM     30  C   UNL     1      -1.719  -7.344   5.846  0.00  0.00    +0.030 A 
ATOM     31  C   UNL     1      -1.605  -6.678   4.641  0.00  0.00    +0.025 A 
BRANCH  29  32
ATOM     32  S   UNL     1      -1.205  -9.389   7.578  0.00  0.00    +0.056 S 
ATOM     33  O   UNL     1      -0.053 -10.213   7.700  0.00  0.00    -0.153 OA
ATOM     34  O   UNL     1      -1.548  -8.410   8.549  0.00  0.00    -0.153 OA
BRANCH  32  35
ATOM     35  N   UNL     1      -2.505 -10.408   7.454  0.00  0.00    -0.204 NA
ATOM     36  H   UNL     1      -2.520 -11.238   7.956  0.00  0.00    +0.144 HD
ATOM     37  H   UNL     1      -3.250 -10.176   6.879  0.00  0.00    +0.144 HD
ENDBRANCH  32  35
ENDBRANCH  29  32
ENDBRANCH  24  26
ENDBRANCH  21  22
ENDBRANCH  20  21
ENDBRANCH   1  20
TORSDOF 11
