REMARK  Name = ZINC20237724
REMARK  12 active torsions:
REMARK  status: ('A' for Active; 'I' for Inactive)
REMARK    1  A    between atoms: C_1  and  C_2
REMARK    2  A    between atoms: C_2  and  C_3
REMARK    3  A    between atoms: C_8  and  N_9
REMARK    4  A    between atoms: C_10  and  C_12
REMARK    5  A    between atoms: C_12  and  S_13
REMARK    6  A    between atoms: S_13  and  C_14
REMARK    7  A    between atoms: C_18  and  C_26
REMARK    8  A    between atoms: C_19  and  C_21
REMARK    9  A    between atoms: C_21  and  O_23
REMARK   10  A    between atoms: O_23  and  C_24
REMARK   11  A    between atoms: C_24  and  C_25
REMARK   12  A    between atoms: N_29  and  N_30
REMARK                            x       y       z     vdW  Elec       q    Type
REMARK                         _______ _______ _______ _____ _____    ______ ____
ROOT
ATOM      1  C   UNL     1       0.157   0.934   2.735  0.00  0.00    +0.190 A 
ATOM      2  N   UNL     1       1.194   0.208   2.368  0.00  0.00    -0.215 NA
ATOM      3  C   UNL     1       1.998  -0.350   3.257  0.00  0.00    +0.117 A 
ATOM      4  C   UNL     1       1.786  -0.211   4.651  0.00  0.00    +0.077 A 
ATOM      5  C   UNL     1       2.710  -0.859   5.473  0.00  0.00    -0.015 A 
ATOM      6  C   UNL     1       3.734  -1.569   4.916  0.00  0.00    +0.102 A 
ATOM      7  S   UNL     1       3.453  -1.363   3.166  0.00  0.00    -0.062 S 
ATOM      8  C   UNL     1       2.576  -0.774   6.971  0.00  0.00    +0.046 C 
ATOM      9  C   UNL     1       0.611   0.605   5.030  0.00  0.00    +0.280 A 
ATOM     10  O   UNL     1       0.334   0.791   6.201  0.00  0.00    -0.265 OA
ATOM     11  N   UNL     1      -0.144   1.137   4.049  0.00  0.00    -0.209 N 
ENDROOT
BRANCH  11  12
ATOM     12  N   UNL     1      -1.233   1.893   4.378  0.00  0.00    -0.293 N 
ATOM     13  H   UNL     1      -1.486   2.063   5.435  0.00  0.00    +0.163 HD
ATOM     14  H   UNL     1      -1.857   2.332   3.586  0.00  0.00    +0.163 HD
ENDBRANCH  11  12
BRANCH   6  15
ATOM     15  C   UNL     1       4.799  -2.313   5.588  0.00  0.00    +0.346 C 
ATOM     16  O   UNL     1       4.842  -2.350   6.803  0.00  0.00    -0.244 OA
BRANCH  15  17
ATOM     17  O   UNL     1       5.733  -2.959   4.859  0.00  0.00    -0.461 OA
BRANCH  17  18
ATOM     18  C   UNL     1       6.744  -3.666   5.581  0.00  0.00    +0.229 C 
ATOM     19  C   UNL     1       7.706  -4.330   4.594  0.00  0.00    +0.048 C 
ENDBRANCH  17  18
ENDBRANCH  15  17
ENDBRANCH   6  15
BRANCH   1  20
ATOM     20  S   UNL     1      -0.869   1.655   1.497  0.00  0.00    -0.077 S 
BRANCH  20  21
ATOM     21  C   UNL     1      -0.021   1.073   0.008  0.00  0.00    +0.173 C 
BRANCH  21  23
ATOM     22  N   UNL     1      -0.288   1.272  -2.443  0.00  0.00    -0.285 N 
ATOM     23  C   UNL     1      -0.743   1.582  -1.213  0.00  0.00    +0.227 C 
ATOM     24  O   UNL     1      -1.734   2.271  -1.088  0.00  0.00    -0.275 OA
ATOM     25  H   UNL     1       0.659   0.726  -2.558  0.00  0.00    +0.155 HD
BRANCH  22  31
ATOM     26  C   UNL     1      -0.382   1.807  -4.796  0.00  0.00    -0.026 A 
ATOM     27  C   UNL     1      -1.108   2.176  -5.912  0.00  0.00    +0.005 A 
ATOM     28  C   UNL     1      -2.471   2.386  -5.812  0.00  0.00    +0.000 A 
ATOM     29  C   UNL     1      -3.112   2.226  -4.597  0.00  0.00    +0.002 A 
ATOM     30  C   UNL     1      -2.392   1.853  -3.479  0.00  0.00    +0.023 A 
ATOM     31  C   UNL     1      -1.022   1.646  -3.575  0.00  0.00    +0.037 A 
BRANCH  26  33
ATOM     32  C   UNL     1       1.375   0.088  -5.126  0.00  0.00    +0.009 C 
ATOM     33  C   UNL     1       1.104   1.578  -4.906  0.00  0.00    +0.033 C 
ENDBRANCH  26  33
ENDBRANCH  22  31
ENDBRANCH  21  23
ENDBRANCH  20  21
ENDBRANCH   1  20
TORSDOF 9
