REMARK  Name = ZINC13523397
REMARK  2 active torsions:
REMARK  status: ('A' for Active; 'I' for Inactive)
REMARK    1  A    between atoms: C_7  and  C_11
REMARK    2  A    between atoms: N_12  and  N_13
REMARK                            x       y       z     vdW  Elec       q    Type
REMARK                         _______ _______ _______ _____ _____    ______ ____
ROOT
ATOM      1  N   UNL     1       2.684   7.304   0.121  0.00  0.00    -0.127 N 
ATOM      2  C   UNL     1       2.258   8.569   0.229  0.00  0.00    +0.246 C 
ATOM      3  O   UNL     1       1.098   8.921   0.252  0.00  0.00    -0.273 OA
ATOM      4  C   UNL     1       3.457   9.489   0.323  0.00  0.00    +0.097 C 
ATOM      5  C   UNL     1       3.442  10.451  -0.873  0.00  0.00    +0.027 C 
ATOM      6  C   UNL     1       3.511   9.594  -2.132  0.00  0.00    -0.026 C 
ATOM      7  C   UNL     1       4.548   8.768  -2.201  0.00  0.00    -0.026 C 
ATOM      8  C   UNL     1       5.498   8.813  -1.010  0.00  0.00    +0.027 C 
ATOM      9  C   UNL     1       4.657   8.531   0.242  0.00  0.00    +0.097 C 
ATOM     10  C   UNL     1       4.016   7.166   0.114  0.00  0.00    +0.246 C 
ATOM     11  O   UNL     1       4.613   6.115   0.019  0.00  0.00    -0.273 OA
ATOM     12  C   UNL     1       5.985  10.283  -0.907  0.00  0.00    +0.001 C 
ATOM     13  C   UNL     1       4.772  11.250  -0.827  0.00  0.00    +0.001 C 
ATOM     14  C   UNL     1       5.645  11.033   0.411  0.00  0.00    +0.009 C 
ENDROOT
BRANCH   1  16
ATOM     15  C   UNL     1       2.276   5.003   0.019  0.00  0.00    +0.141 C 
ATOM     16  N   UNL     1       1.808   6.216   0.018  0.00  0.00    -0.178 NA
BRANCH  15  23
ATOM     17  C   UNL     1      -2.396   4.667   0.030  0.00  0.00    +0.001 A 
ATOM     18  C   UNL     1      -2.830   3.348   0.034  0.00  0.00    +0.002 A 
ATOM     19  C   UNL     1      -1.924   2.311   0.040  0.00  0.00    +0.026 A 
ATOM     20  C   UNL     1      -0.559   2.581   0.030  0.00  0.00    +0.047 A 
ATOM     21  C   UNL     1      -0.121   3.915   0.027  0.00  0.00    +0.008 A 
ATOM     22  C   UNL     1      -1.049   4.955   0.027  0.00  0.00    +0.010 A 
ATOM     23  C   UNL     1       1.352   3.859   0.024  0.00  0.00    +0.020 A 
ATOM     24  C   UNL     1       1.690   2.540   0.026  0.00  0.00    +0.093 A 
ATOM     25  N   UNL     1       0.562   1.778   0.030  0.00  0.00    -0.360 N 
ATOM     26  H   UNL     1       0.548   0.808   0.032  0.00  0.00    +0.165 HD
ENDBRANCH  15  23
ENDBRANCH   1  16
TORSDOF 2
