REMARK  Name = ZINC63165360
REMARK  7 active torsions:
REMARK  status: ('A' for Active; 'I' for Inactive)
REMARK    1  A    between atoms: C_1  and  C_2
REMARK    2  A    between atoms: C_3  and  C_7
REMARK    3  A    between atoms: N_9  and  N_10
REMARK    4  A    between atoms: C_11  and  C_13
REMARK    5  A    between atoms: C_13  and  C_14
REMARK    6  A    between atoms: C_14  and  C_15
REMARK    7  A    between atoms: C_23  and  C_25
REMARK                            x       y       z     vdW  Elec       q    Type
REMARK                         _______ _______ _______ _____ _____    ______ ____
ROOT
ATOM      1  C   UNL     1      -9.615  -1.788   0.079  0.00  0.00    -0.034 C 
ATOM      2  C   UNL     1     -10.026  -0.499   0.095  0.00  0.00    +0.002 A 
ATOM      3  C   UNL     1      -9.299   0.776   0.096  0.00  0.00    +0.048 A 
ATOM      4  C   UNL     1     -10.003   1.933   0.115  0.00  0.00    +0.124 A 
ATOM      5  C   UNL     1     -11.406   1.942   0.132  0.00  0.00    +0.040 A 
ATOM      6  C   UNL     1     -12.142   0.810   0.132  0.00  0.00    +0.029 A 
ATOM      7  C   UNL     1     -11.506  -0.462   0.113  0.00  0.00    +0.043 A 
ATOM      8  N   UNL     1     -11.991  -1.680   0.109  0.00  0.00    -0.374 N 
ATOM      9  C   UNL     1     -10.872  -2.629   0.081  0.00  0.00    +0.137 C 
ATOM     10  F   UNL     1      -9.337   3.108   0.117  0.00  0.00    -0.205 F 
ATOM     11  H   UNL     1     -12.932  -1.914   0.119  0.00  0.00    +0.161 HD
ENDROOT
BRANCH   9  12
ATOM     12  C   UNL     1     -10.934  -3.473  -1.165  0.00  0.00    -0.021 A 
ATOM     13  C   UNL     1     -11.355  -2.914  -2.358  0.00  0.00    +0.009 A 
ATOM     14  C   UNL     1     -11.412  -3.688  -3.502  0.00  0.00    +0.039 A 
ATOM     15  C   UNL     1     -11.047  -5.022  -3.453  0.00  0.00    +0.123 A 
ATOM     16  C   UNL     1     -10.626  -5.581  -2.258  0.00  0.00    +0.039 A 
ATOM     17  C   UNL     1     -10.565  -4.804  -1.117  0.00  0.00    +0.009 A 
ATOM     18  F   UNL     1     -11.103  -5.780  -4.571  0.00  0.00    -0.205 F 
ENDBRANCH   9  12
BRANCH   1  19
ATOM     19  C   UNL     1      -8.193  -2.285   0.058  0.00  0.00    +0.043 C 
BRANCH  19  20
ATOM     20  C   UNL     1      -7.235  -1.091   0.063  0.00  0.00    +0.102 C 
BRANCH  20  22
ATOM     21  N   UNL     1      -4.792  -0.709   0.043  0.00  0.00    -0.234 N 
ATOM     22  C   UNL     1      -5.813  -1.589   0.042  0.00  0.00    +0.229 C 
ATOM     23  O   UNL     1      -5.587  -2.780   0.024  0.00  0.00    -0.274 OA
ATOM     24  H   UNL     1      -4.972   0.244   0.057  0.00  0.00    +0.173 HD
BRANCH  21  27
ATOM     25  C   UNL     1      -2.448  -0.292   0.024  0.00  0.00    +0.259 C 
ATOM     26  O   UNL     1      -2.674   0.904   0.042  0.00  0.00    -0.269 OA
ATOM     27  N   UNL     1      -3.469  -1.171   0.023  0.00  0.00    -0.231 N 
ATOM     28  H   UNL     1      -3.288  -2.124   0.008  0.00  0.00    +0.173 HD
BRANCH  25  31
ATOM     29  C   UNL     1      -0.018   1.503   0.010  0.00  0.00    +0.086 C 
ATOM     30  C   UNL     1       0.002  -0.004   0.002  0.00  0.00    +0.103 C 
ATOM     31  C   UNL     1      -1.109  -0.759   0.003  0.00  0.00    +0.056 C 
ATOM     32  C   UNL     1      -0.658  -2.211  -0.020  0.00  0.00    +0.085 C 
ATOM     33  C   UNL     1       0.827  -2.070  -0.434  0.00  0.00    +0.233 C 
ATOM     34  O   UNL     1       1.134  -0.729  -0.013  0.00  0.00    -0.496 OA
ENDBRANCH  25  31
ENDBRANCH  21  27
ENDBRANCH  20  22
ENDBRANCH  19  20
ENDBRANCH   1  19
TORSDOF 6
