REMARK  Name = ZINC20533251
REMARK  7 active torsions:
REMARK  status: ('A' for Active; 'I' for Inactive)
REMARK    1  A    between atoms: C_1  and  O_2
REMARK    2  A    between atoms: O_2  and  C_3
REMARK    3  A    between atoms: C_8  and  O_9
REMARK    4  A    between atoms: O_9  and  C_10
REMARK    5  A    between atoms: C_11  and  C_16
REMARK    6  A    between atoms: N_20  and  C_23
REMARK    7  A    between atoms: C_27  and  C_29
REMARK                            x       y       z     vdW  Elec       q    Type
REMARK                         _______ _______ _______ _____ _____    ______ ____
ROOT
ATOM      1  C   UNL     1      -5.558  -4.029  -0.988  0.00  0.00    +0.072 A 
ATOM      2  C   UNL     1      -4.965  -5.106  -0.398  0.00  0.00    +0.260 A 
ATOM      3  N   UNL     1      -4.229  -5.975  -1.163  0.00  0.00    -0.274 N 
ATOM      4  C   UNL     1      -4.091  -5.769  -2.486  0.00  0.00    +0.337 A 
ATOM      5  N   UNL     1      -4.668  -4.713  -3.086  0.00  0.00    -0.229 N 
ATOM      6  C   UNL     1      -5.405  -3.838  -2.372  0.00  0.00    +0.267 A 
ATOM      7  O   UNL     1      -5.930  -2.886  -2.922  0.00  0.00    -0.267 OA
ATOM      8  O   UNL     1      -3.435  -6.550  -3.149  0.00  0.00    -0.246 OA
ATOM      9  O   UNL     1      -5.100  -5.315   0.929  0.00  0.00    -0.267 OA
ATOM     10  H   UNL     1      -3.805  -6.743  -0.749  0.00  0.00    +0.173 HD
ENDROOT
BRANCH   1  17
ATOM     11  C   UNL     1      -4.386   0.732  -0.173  0.00  0.00    +0.162 A 
ATOM     12  C   UNL     1      -5.763   0.678  -0.296  0.00  0.00    +0.053 A 
ATOM     13  C   UNL     1      -6.418  -0.544  -0.299  0.00  0.00    -0.044 A 
ATOM     14  C   UNL     1      -5.697  -1.714  -0.178  0.00  0.00    -0.050 A 
ATOM     15  C   UNL     1      -4.317  -1.665  -0.057  0.00  0.00    +0.052 A 
ATOM     16  C   UNL     1      -3.657  -0.448  -0.059  0.00  0.00    +0.162 A 
ATOM     17  C   UNL     1      -6.371  -3.061  -0.168  0.00  0.00    +0.001 C 
ATOM     18  N   UNL     1      -7.721  -2.968  -0.732  0.00  0.00    +0.387 N 
ATOM     19  C   UNL     1      -8.467  -1.921  -0.016  0.00  0.00    -0.077 C 
ATOM     20  C   UNL     1      -7.919  -0.557  -0.440  0.00  0.00    +0.016 C 
ATOM     21  H   UNL     1      -7.662  -2.731  -1.711  0.00  0.00    -0.085 HD
ATOM     22  H   UNL     1      -8.194  -3.852  -0.624  0.00  0.00    -0.085 HD
BRANCH  11  24
ATOM     23  C   UNL     1      -4.561   3.101  -0.289  0.00  0.00    +0.277 C 
ATOM     24  O   UNL     1      -3.747   1.933  -0.169  0.00  0.00    -0.491 OA
ENDBRANCH  11  24
BRANCH  16  25
ATOM     25  O   UNL     1      -2.303  -0.406   0.055  0.00  0.00    -0.491 OA
ATOM     26  C   UNL     1      -1.622  -1.657   0.168  0.00  0.00    +0.277 C 
ENDBRANCH  16  25
ENDBRANCH   1  17
BRANCH   5  27
ATOM     27  C   UNL     1      -4.507  -4.522  -4.465  0.00  0.00    +0.055 A 
ATOM     28  C   UNL     1      -3.441  -3.773  -4.945  0.00  0.00    +0.026 A 
ATOM     29  C   UNL     1      -3.285  -3.587  -6.304  0.00  0.00    +0.003 A 
ATOM     30  C   UNL     1      -4.190  -4.147  -7.188  0.00  0.00    +0.012 A 
ATOM     31  C   UNL     1      -5.253  -4.893  -6.714  0.00  0.00    +0.057 A 
ATOM     32  C   UNL     1      -5.410  -5.088  -5.356  0.00  0.00    +0.038 A 
BRANCH  31  33
ATOM     33  C   UNL     1      -6.236  -5.501  -7.681  0.00  0.00    +0.417 C 
ATOM     34  F   UNL     1      -5.867  -5.173  -8.990  0.00  0.00    -0.166 F 
ATOM     35  F   UNL     1      -6.239  -6.892  -7.531  0.00  0.00    -0.166 F 
ATOM     36  F   UNL     1      -7.517  -5.001  -7.419  0.00  0.00    -0.166 F 
ENDBRANCH  31  33
ENDBRANCH   5  27
TORSDOF 5
