REMARK  Name = ZINC46554979
REMARK  7 active torsions:
REMARK  status: ('A' for Active; 'I' for Inactive)
REMARK    1  A    between atoms: N_7  and  C_15
REMARK    2  A    between atoms: C_15  and  C_16
REMARK    3  A    between atoms: C_16  and  C_17
REMARK    4  A    between atoms: N_19  and  C_20
REMARK    5  A    between atoms: C_20  and  C_21
REMARK    6  A    between atoms: C_24  and  S_27
REMARK    7  A    between atoms: S_27  and  N_30
REMARK                            x       y       z     vdW  Elec       q    Type
REMARK                         _______ _______ _______ _____ _____    ______ ____
ROOT
ATOM      1  C   UNL     1      -0.295  -3.791  -3.004  0.00  0.00    +0.215 C 
ATOM      2  O   UNL     1      -1.344  -4.107  -2.484  0.00  0.00    -0.276 OA
ATOM      3  N   UNL     1      -0.058  -4.110  -4.292  0.00  0.00    -0.311 N 
ATOM      4  H   UNL     1       0.781  -3.857  -4.708  0.00  0.00    +0.149 HD
ENDROOT
BRANCH   1   5
ATOM      5  C   UNL     1       0.744  -3.042  -2.210  0.00  0.00    +0.115 C 
BRANCH   5   6
ATOM      6  C   UNL     1       0.229  -2.808  -0.788  0.00  0.00    +0.120 C 
BRANCH   6  13
ATOM      7  C   UNL     1      -0.017   1.379   0.010  0.00  0.00    +0.002 A 
ATOM      8  C   UNL     1       1.165   2.096   0.002  0.00  0.00    +0.001 A 
ATOM      9  C   UNL     1       2.380   1.430  -0.013  0.00  0.00    +0.017 A 
ATOM     10  C   UNL     1       2.404   0.049  -0.021  0.00  0.00    +0.034 A 
ATOM     11  C   UNL     1       1.212  -0.680  -0.013  0.00  0.00    +0.048 A 
ATOM     12  C   UNL     1       0.002  -0.004   0.002  0.00  0.00    +0.024 A 
ATOM     13  N   UNL     1       1.239  -2.079  -0.017  0.00  0.00    -0.298 N 
ATOM     14  C   UNL     1       2.202  -2.802   0.695  0.00  0.00    +0.048 A 
ATOM     15  C   UNL     1       1.860  -3.986   1.330  0.00  0.00    +0.024 A 
ATOM     16  C   UNL     1       2.817  -4.695   2.034  0.00  0.00    +0.002 A 
ATOM     17  C   UNL     1       4.117  -4.232   2.109  0.00  0.00    +0.001 A 
ATOM     18  C   UNL     1       4.470  -3.050   1.478  0.00  0.00    +0.017 A 
ATOM     19  C   UNL     1       3.517  -2.338   0.775  0.00  0.00    +0.034 A 
ATOM     20  S   UNL     1       3.936  -0.828  -0.040  0.00  0.00    -0.086 S 
ENDBRANCH   6  13
ENDBRANCH   5   6
ENDBRANCH   1   5
BRANCH   3  21
ATOM     21  C   UNL     1      -1.068  -4.839  -5.063  0.00  0.00    +0.139 C 
BRANCH  21  22
ATOM     22  C   UNL     1      -0.561  -5.069  -6.464  0.00  0.00    -0.030 A 
ATOM     23  C   UNL     1      -0.808  -4.133  -7.451  0.00  0.00    +0.007 A 
ATOM     24  C   UNL     1      -0.343  -4.344  -8.735  0.00  0.00    +0.029 A 
ATOM     25  C   UNL     1       0.370  -5.491  -9.032  0.00  0.00    +0.105 A 
ATOM     26  C   UNL     1       0.618  -6.426  -8.045  0.00  0.00    +0.029 A 
ATOM     27  C   UNL     1       0.156  -6.213  -6.760  0.00  0.00    +0.007 A 
BRANCH  25  28
ATOM     28  S   UNL     1       0.962  -5.761 -10.670  0.00  0.00    +0.056 S 
ATOM     29  O   UNL     1       1.129  -7.164 -10.815  0.00  0.00    -0.153 OA
ATOM     30  O   UNL     1       0.130  -4.999 -11.534  0.00  0.00    -0.153 OA
BRANCH  28  31
ATOM     31  N   UNL     1       2.475  -5.092 -10.760  0.00  0.00    -0.204 NA
ATOM     32  H   UNL     1       2.860  -4.657  -9.983  0.00  0.00    +0.144 HD
ATOM     33  H   UNL     1       2.976  -5.136 -11.589  0.00  0.00    +0.144 HD
ENDBRANCH  28  31
ENDBRANCH  25  28
ENDBRANCH  21  22
ENDBRANCH   3  21
TORSDOF 7
