REMARK  Name = ZINC22735309
REMARK  9 active torsions:
REMARK  status: ('A' for Active; 'I' for Inactive)
REMARK    1  A    between atoms: C_1  and  C_2
REMARK    2  A    between atoms: C_7  and  N_8
REMARK    3  A    between atoms: C_9  and  C_11
REMARK    4  A    between atoms: N_13  and  C_14
REMARK    5  A    between atoms: C_14  and  C_15
REMARK    6  A    between atoms: C_15  and  C_17
REMARK    7  A    between atoms: C_15  and  N_28
REMARK    8  A    between atoms: N_26  and  C_27
REMARK    9  A    between atoms: N_31  and  C_34
REMARK                            x       y       z     vdW  Elec       q    Type
REMARK                         _______ _______ _______ _____ _____    ______ ____
ROOT
ATOM      1  C   UNL     1       3.035  -1.457   4.606  0.00  0.00    +0.104 C 
ENDROOT
BRANCH   1   2
ATOM      2  C   UNL     1       2.411  -0.801   3.401  0.00  0.00    -0.028 A 
ATOM      3  C   UNL     1       1.352  -1.409   2.751  0.00  0.00    +0.007 A 
ATOM      4  C   UNL     1       0.786  -0.809   1.647  0.00  0.00    +0.024 A 
ATOM      5  C   UNL     1       1.274   0.411   1.178  0.00  0.00    +0.033 A 
ATOM      6  C   UNL     1       2.331   1.018   1.834  0.00  0.00    -0.026 A 
ATOM      7  C   UNL     1       2.897   0.407   2.942  0.00  0.00    +0.010 A 
ATOM      8  C   UNL     1       2.894   2.344   1.388  0.00  0.00    +0.038 C 
ATOM      9  C   UNL     1       2.413   2.655  -0.032  0.00  0.00    +0.024 C 
ATOM     10  C   UNL     1       0.902   2.401  -0.085  0.00  0.00    +0.105 C 
ATOM     11  N   UNL     1       0.664   0.963   0.052  0.00  0.00    -0.333 N 
ATOM     12  C   UNL     1      -0.774   0.663   0.034  0.00  0.00    +0.129 C 
ENDBRANCH   1   2
BRANCH   1  13
ATOM     13  N   UNL     1       1.981  -2.046   5.443  0.00  0.00    -0.297 NA
ATOM     14  C   UNL     1       0.948  -1.051   5.766  0.00  0.00    +0.066 C 
ATOM     15  C   UNL     1      -0.168  -1.722   6.570  0.00  0.00    -0.064 C 
ATOM     16  N   UNL     1       0.397  -2.306   7.794  0.00  0.00    +0.379 N 
ATOM     17  C   UNL     1       1.430  -3.301   7.471  0.00  0.00    -0.064 C 
ATOM     18  C   UNL     1       2.546  -2.630   6.667  0.00  0.00    +0.066 C 
ATOM     19  C   UNL     1      -0.657  -2.895   8.632  0.00  0.00    -0.096 C 
ATOM     20  H   UNL     1       0.872  -1.498   8.369  0.00  0.00    -0.082 HD
ENDBRANCH   1  13
BRANCH   1  21
ATOM     21  C   UNL     1       3.996  -2.556   4.148  0.00  0.00    +0.128 C 
BRANCH  21  24
ATOM     22  C   UNL     1       6.133  -2.724   2.990  0.00  0.00    +0.299 C 
ATOM     23  O   UNL     1       6.135  -3.914   3.228  0.00  0.00    -0.265 OA
ATOM     24  N   UNL     1       5.107  -1.956   3.406  0.00  0.00    -0.306 N 
ATOM     25  H   UNL     1       5.105  -0.877   3.190  0.00  0.00    +0.149 HD
BRANCH  22  27
ATOM     26  N   UNL     1       8.291  -2.881   1.817  0.00  0.00    -0.277 N 
ATOM     27  C   UNL     1       7.266  -2.112   2.233  0.00  0.00    +0.303 C 
ATOM     28  O   UNL     1       7.263  -0.922   1.995  0.00  0.00    -0.265 OA
ATOM     29  H   UNL     1       8.257  -3.970   1.964  0.00  0.00    +0.155 HD
BRANCH  26  36
ATOM     30  C   UNL     1      10.793  -4.224   1.985  0.00  0.00    +0.045 C 
ATOM     31  C   UNL     1      10.639  -2.916   1.255  0.00  0.00    -0.029 A 
ATOM     32  C   UNL     1      11.731  -2.333   0.642  0.00  0.00    +0.006 A 
ATOM     33  C   UNL     1      11.591  -1.132  -0.028  0.00  0.00    +0.020 A 
ATOM     34  C   UNL     1      10.356  -0.509  -0.088  0.00  0.00    +0.043 A 
ATOM     35  C   UNL     1       9.258  -1.090   0.519  0.00  0.00    +0.043 A 
ATOM     36  C   UNL     1       9.398  -2.294   1.198  0.00  0.00    +0.038 A 
ATOM     37 CL   UNL     1      10.185   0.999  -0.931  0.00  0.00    -0.083 Cl
ENDBRANCH  26  36
ENDBRANCH  22  27
ENDBRANCH  21  24
ENDBRANCH   1  21
TORSDOF 6
