REMARK  Name = ZINC09972394
REMARK  8 active torsions:
REMARK  status: ('A' for Active; 'I' for Inactive)
REMARK    1  A    between atoms: C_1  and  C_2
REMARK    2  A    between atoms: C_2  and  C_3
REMARK    3  A    between atoms: C_3  and  C_4
REMARK    4  A    between atoms: N_7  and  C_9
REMARK    5  A    between atoms: C_16  and  N_37
REMARK    6  A    between atoms: C_17  and  C_35
REMARK    7  A    between atoms: N_25  and  C_28
REMARK    8  A    between atoms: C_28  and  C_29
REMARK                            x       y       z     vdW  Elec       q    Type
REMARK                         _______ _______ _______ _____ _____    ______ ____
ROOT
ATOM      1  C   UNL     1      -0.136   5.820   2.580  0.00  0.00    +0.072 A 
ATOM      2  C   UNL     1       0.229   5.951   1.246  0.00  0.00    +0.062 A 
ATOM      3  C   UNL     1       1.246   6.864   1.173  0.00  0.00    +0.230 A 
ATOM      4  N   UNL     1       1.504   7.286   2.429  0.00  0.00    -0.200 N 
ATOM      5  N   UNL     1       0.624   6.617   3.294  0.00  0.00    -0.168 NA
ATOM      6  O   UNL     1       1.827   7.218   0.000  0.00  0.00    -0.423 OA
ATOM      7  C   UNL     1       1.212   6.856  -1.144  0.00  0.00    +0.201 C 
ATOM      8  C   UNL     1       0.203   5.955  -1.201  0.00  0.00    +0.110 C 
ATOM      9  C   UNL     1      -0.324   5.267   0.028  0.00  0.00    +0.145 C 
ATOM     10  C   UNL     1       0.013   3.811   0.020  0.00  0.00    -0.001 A 
ATOM     11  C   UNL     1       1.224   3.152   0.006  0.00  0.00    +0.007 A 
ATOM     12  C   UNL     1       1.185   1.762   0.000  0.00  0.00    +0.000 A 
ATOM     13  C   UNL     1      -0.013   1.076   0.008  0.00  0.00    +0.002 A 
ATOM     14  C   UNL     1      -1.234   1.731   0.017  0.00  0.00    +0.024 A 
ATOM     15  C   UNL     1      -1.209   3.127   0.029  0.00  0.00    +0.041 A 
ATOM     16  N   UNL     1      -2.262   4.024   0.043  0.00  0.00    -0.265 N 
ATOM     17  C   UNL     1      -1.836   5.305   0.043  0.00  0.00    +0.241 C 
ATOM     18  O   UNL     1      -2.533   6.298   0.053  0.00  0.00    -0.274 OA
ENDROOT
BRANCH   4  19
ATOM     19  C   UNL     1       2.477   8.224   2.803  0.00  0.00    +0.069 A 
ATOM     20  C   UNL     1       3.687   8.278   2.125  0.00  0.00    +0.028 A 
ATOM     21  C   UNL     1       4.641   9.207   2.492  0.00  0.00    +0.002 A 
ATOM     22  C   UNL     1       4.396  10.075   3.541  0.00  0.00    +0.000 A 
ATOM     23  C   UNL     1       3.194  10.019   4.221  0.00  0.00    +0.002 A 
ATOM     24  C   UNL     1       2.234   9.097   3.855  0.00  0.00    +0.028 A 
ENDBRANCH   4  19
BRANCH   7  25
ATOM     25  N   UNL     1       1.632   7.434  -2.317  0.00  0.00    -0.328 N 
ATOM     26  H   UNL     1       1.208   7.193  -3.155  0.00  0.00    +0.145 HD
ATOM     27  H   UNL     1       2.353   8.083  -2.306  0.00  0.00    +0.145 HD
ENDBRANCH   7  25
BRANCH   8  28
ATOM     28  C   UNL     1      -0.381   5.648  -2.472  0.00  0.00    +0.102 C 
ATOM     29  N   UNL     1      -0.844   5.403  -3.480  0.00  0.00    -0.191 NA
ENDBRANCH   8  28
BRANCH   1  30
ATOM     30  C   UNL     1      -1.217   4.918   3.115  0.00  0.00    +0.057 C 
BRANCH  30  32
ATOM     31  C   UNL     1      -1.718   2.635   3.998  0.00  0.00    +0.004 C 
ATOM     32  C   UNL     1      -0.619   3.551   3.455  0.00  0.00    +0.003 C 
ENDBRANCH  30  32
ENDBRANCH   1  30
BRANCH  16  33
ATOM     33  C   UNL     1      -3.673   3.631   0.058  0.00  0.00    +0.148 C 
BRANCH  33  34
ATOM     34  C   UNL     1      -4.173   3.501  -1.358  0.00  0.00    -0.030 A 
ATOM     35  C   UNL     1      -4.729   4.593  -1.998  0.00  0.00    +0.005 A 
ATOM     36  C   UNL     1      -5.183   4.474  -3.298  0.00  0.00    +0.000 A 
ATOM     37  C   UNL     1      -5.091   3.261  -3.955  0.00  0.00    +0.000 A 
ATOM     38  C   UNL     1      -4.539   2.168  -3.313  0.00  0.00    +0.000 A 
ATOM     39  C   UNL     1      -4.081   2.288  -2.015  0.00  0.00    +0.005 A 
ENDBRANCH  33  34
ENDBRANCH  16  33
TORSDOF 7
