REMARK  Name = ZINC40059565
REMARK  6 active torsions:
REMARK  status: ('A' for Active; 'I' for Inactive)
REMARK    1  A    between atoms: C_1  and  C_2
REMARK    2  A    between atoms: C_2  and  C_4
REMARK    3  A    between atoms: C_2  and  N_13
REMARK    4  A    between atoms: N_13  and  C_14
REMARK    5  A    between atoms: N_13  and  S_15
REMARK    6  A    between atoms: S_15  and  N_18
REMARK                            x       y       z     vdW  Elec       q    Type
REMARK                         _______ _______ _______ _____ _____    ______ ____
ROOT
ATOM      1  N   UNL     1       0.711  -0.489   1.189  0.00  0.00    -0.159 NA
ATOM      2  C   UNL     1       2.110  -0.118   1.409  0.00  0.00    +0.133 C 
ENDROOT
BRANCH   1   3
ATOM      3  S   UNL     1      -0.071  -1.458   2.281  0.00  0.00    +0.100 S 
ATOM      4  O   UNL     1       0.610  -1.305   3.519  0.00  0.00    -0.141 OA
ATOM      5  O   UNL     1      -1.460  -1.194   2.138  0.00  0.00    -0.141 OA
BRANCH   3   6
ATOM      6  N   UNL     1       0.165  -3.026   1.802  0.00  0.00    -0.166 NA
ATOM      7  C   UNL     1      -0.788  -3.623   0.893  0.00  0.00    +0.110 C 
ATOM      8  C   UNL     1      -1.930  -4.287   1.700  0.00  0.00    +0.017 C 
ATOM      9  C   UNL     1      -1.441  -5.499   2.375  0.00  0.00    +0.001 C 
ATOM     10  C   UNL     1      -0.346  -5.245   3.408  0.00  0.00    +0.001 C 
ATOM     11  C   UNL     1       0.994  -5.202   2.716  0.00  0.00    +0.017 C 
ATOM     12  C   UNL     1       1.342  -3.753   2.316  0.00  0.00    +0.110 C 
ENDBRANCH   3   6
ENDBRANCH   1   3
BRANCH   1  14
ATOM     13  C   UNL     1      -0.019   1.526   0.010  0.00  0.00    +0.034 C 
ATOM     14  C   UNL     1       0.002  -0.004   0.002  0.00  0.00    +0.143 C 
BRANCH  14  15
ATOM     15  C   UNL     1       0.707  -0.490  -1.238  0.00  0.00    +0.125 A 
ATOM     16  C   UNL     1       0.096  -0.923  -2.349  0.00  0.00    +0.055 A 
ATOM     17  C   UNL     1       1.163  -1.291  -3.287  0.00  0.00    +0.020 A 
ATOM     18  C   UNL     1       1.188  -1.799  -4.585  0.00  0.00    +0.011 A 
ATOM     19  C   UNL     1       2.387  -2.040  -5.196  0.00  0.00    +0.001 A 
ATOM     20  C   UNL     1       3.578  -1.783  -4.531  0.00  0.00    +0.004 A 
ATOM     21  C   UNL     1       3.573  -1.281  -3.248  0.00  0.00    +0.047 A 
ATOM     22  C   UNL     1       2.365  -1.028  -2.609  0.00  0.00    +0.135 A 
ATOM     23  O   UNL     1       2.042  -0.547  -1.392  0.00  0.00    -0.458 OA
ENDBRANCH  14  15
ENDBRANCH   1  14
TORSDOF 4
