REMARK  Name = ZINC12375195
REMARK  3 active torsions:
REMARK  status: ('A' for Active; 'I' for Inactive)
REMARK    1  A    between atoms: C_6  and  S_7
REMARK    2  A    between atoms: S_7  and  N_10
REMARK    3  A    between atoms: N_10  and  C_11
REMARK                            x       y       z     vdW  Elec       q    Type
REMARK                         _______ _______ _______ _____ _____    ______ ____
ROOT
ATOM      1  C   UNL     1       2.109   2.087   2.622  0.00  0.00    +0.030 A 
ATOM      2  C   UNL     1       2.188   2.766   3.823  0.00  0.00    +0.025 A 
ATOM      3  C   UNL     1       1.665   4.048   3.929  0.00  0.00    +0.037 A 
ATOM      4  C   UNL     1       1.063   4.643   2.828  0.00  0.00    -0.024 A 
ATOM      5  C   UNL     1       0.993   3.962   1.629  0.00  0.00    +0.034 A 
ATOM      6  C   UNL     1       1.510   2.683   1.528  0.00  0.00    +0.106 A 
ATOM      7  C   UNL     1       0.496   6.034   2.943  0.00  0.00    +0.046 C 
ATOM      8  C   UNL     1      -0.067   6.240   4.350  0.00  0.00    +0.101 C 
ATOM      9  C   UNL     1       0.940   5.795   5.376  0.00  0.00    +0.218 C 
ATOM     10  O   UNL     1       1.030   6.395   6.426  0.00  0.00    -0.275 OA
ATOM     11  N   UNL     1       1.742   4.741   5.141  0.00  0.00    -0.285 N 
ATOM     12  H   UNL     1       2.377   4.459   5.817  0.00  0.00    +0.155 HD
ENDROOT
BRANCH   6  13
ATOM     13  S   UNL     1       1.412   1.813  -0.002  0.00  0.00    +0.059 S 
ATOM     14  O   UNL     1       2.457   0.851   0.010  0.00  0.00    -0.153 OA
ATOM     15  O   UNL     1       1.292   2.796  -1.021  0.00  0.00    -0.153 OA
BRANCH  13  16
ATOM     16  N   UNL     1      -0.011   0.966   0.007  0.00  0.00    -0.179 NA
ATOM     17  H   UNL     1       0.002  -0.004   0.002  0.00  0.00    +0.149 HD
BRANCH  16  18
ATOM     18  C   UNL     1      -1.290   1.681   0.017  0.00  0.00    +0.154 C 
ATOM     19  C   UNL     1      -2.272   0.952  -0.898  0.00  0.00    +0.040 C 
ATOM     20  C   UNL     1      -3.713   1.313  -0.468  0.00  0.00    +0.079 C 
ATOM     21  S   UNL     1      -3.506   1.580   1.333  0.00  0.00    -0.086 S 
ATOM     22  C   UNL     1      -1.789   1.772   1.442  0.00  0.00    +0.208 C 
ATOM     23  O   UNL     1      -1.129   1.943   2.445  0.00  0.00    -0.283 OA
ENDBRANCH  16  18
ENDBRANCH  13  16
ENDBRANCH   6  13
TORSDOF 3
