REMARK  Name = ZINC21219758
REMARK  10 active torsions:
REMARK  status: ('A' for Active; 'I' for Inactive)
REMARK    1  A    between atoms: C_1  and  O_2
REMARK    2  A    between atoms: O_2  and  C_3
REMARK    3  A    between atoms: C_6  and  O_37
REMARK    4  A    between atoms: C_7  and  C_9
REMARK    5  A    between atoms: C_14  and  C_24
REMARK    6  A    between atoms: C_27  and  O_32
REMARK    7  A    between atoms: C_29  and  O_30
REMARK    8  A    between atoms: O_30  and  C_31
REMARK    9  A    between atoms: O_32  and  C_33
REMARK   10  A    between atoms: O_37  and  C_38
REMARK                            x       y       z     vdW  Elec       q    Type
REMARK                         _______ _______ _______ _____ _____    ______ ____
ROOT
ATOM      1  C   UNL     1      -2.578  -0.157   0.536  0.00  0.00    +0.036 C 
ATOM      2  C   UNL     1      -3.289  -0.550  -0.758  0.00  0.00    +0.060 C 
ATOM      3  C   UNL     1      -4.585   0.231  -0.896  0.00  0.00    +0.017 C 
ATOM      4  C   UNL     1      -5.285   0.591   0.195  0.00  0.00    +0.037 C 
ATOM      5  C   UNL     1      -6.588   1.353   0.199  0.00  0.00    +0.139 C 
ATOM      6  N   UNL     1      -7.219   1.474  -1.098  0.00  0.00    -0.331 N 
ATOM      7  C   UNL     1      -6.612   2.193  -2.126  0.00  0.00    +0.049 A 
ATOM      8  C   UNL     1      -7.181   3.348  -2.637  0.00  0.00    +0.025 A 
ATOM      9  C   UNL     1      -6.518   4.054  -3.626  0.00  0.00    +0.002 A 
ATOM     10  C   UNL     1      -5.295   3.614  -4.099  0.00  0.00    +0.002 A 
ATOM     11  C   UNL     1      -4.732   2.450  -3.603  0.00  0.00    +0.025 A 
ATOM     12  C   UNL     1      -5.406   1.731  -2.631  0.00  0.00    +0.052 A 
ATOM     13  N   UNL     1      -4.957   0.498  -2.174  0.00  0.00    -0.316 N 
ATOM     14  C   UNL     1      -4.810   0.260   1.486  0.00  0.00    +0.163 C 
ATOM     15  O   UNL     1      -5.471   0.582   2.454  0.00  0.00    -0.292 OA
ATOM     16  C   UNL     1      -3.521  -0.475   1.702  0.00  0.00    +0.088 C 
ATOM     17  H   UNL     1      -8.192   0.995  -1.283  0.00  0.00    +0.147 HD
ATOM     18  H   UNL     1      -4.913  -0.294  -2.936  0.00  0.00    +0.152 HD
ENDROOT
BRANCH   1  23
ATOM     19  C   UNL     1      -0.175  -3.059   0.831  0.00  0.00    +0.121 A 
ATOM     20  C   UNL     1       1.041  -2.401   0.948  0.00  0.00    +0.049 A 
ATOM     21  C   UNL     1       1.084  -1.021   0.927  0.00  0.00    +0.049 A 
ATOM     22  C   UNL     1      -0.088  -0.292   0.790  0.00  0.00    +0.124 A 
ATOM     23  C   UNL     1      -1.304  -0.949   0.679  0.00  0.00    +0.002 A 
ATOM     24  C   UNL     1      -1.347  -2.330   0.694  0.00  0.00    +0.053 A 
BRANCH  19  26
ATOM     25  C   UNL     1       1.027  -5.104   0.996  0.00  0.00    +0.277 C 
ATOM     26  O   UNL     1      -0.218  -4.418   0.852  0.00  0.00    -0.495 OA
ENDBRANCH  19  26
BRANCH  22  27
ATOM     27  O   UNL     1      -0.045   1.067   0.769  0.00  0.00    -0.495 OA
ATOM     28  C   UNL     1       1.241   1.677   0.894  0.00  0.00    +0.277 C 
ENDBRANCH  22  27
ENDBRANCH   1  23
BRANCH   5  29
ATOM     29  C   UNL     1      -6.329   2.737   0.735  0.00  0.00    +0.019 A 
ATOM     30  C   UNL     1      -5.038   3.228   0.785  0.00  0.00    +0.013 A 
ATOM     31  C   UNL     1      -4.798   4.500   1.270  0.00  0.00    +0.046 A 
ATOM     32  C   UNL     1      -5.853   5.282   1.720  0.00  0.00    +0.124 A 
ATOM     33  C   UNL     1      -7.147   4.790   1.676  0.00  0.00    +0.091 A 
ATOM     34  C   UNL     1      -7.386   3.516   1.183  0.00  0.00    +0.129 A 
BRANCH  34  35
ATOM     35  O   UNL     1      -8.655   3.031   1.139  0.00  0.00    -0.495 OA
ATOM     36  C   UNL     1      -9.694   3.887   1.617  0.00  0.00    +0.277 C 
ENDBRANCH  34  35
BRANCH  32  37
ATOM     37  O   UNL     1      -5.615   6.530   2.203  0.00  0.00    -0.495 OA
ATOM     38  C   UNL     1      -4.256   6.972   2.218  0.00  0.00    +0.277 C 
ENDBRANCH  32  37
ENDBRANCH   5  29
TORSDOF 6
