REMARK  Name = ZINC56826391
REMARK  3 active torsions:
REMARK  status: ('A' for Active; 'I' for Inactive)
REMARK    1  A    between atoms: C_1  and  C_2
REMARK    2  A    between atoms: C_8  and  C_10
REMARK    3  A    between atoms: N_18  and  C_19
REMARK                            x       y       z     vdW  Elec       q    Type
REMARK                         _______ _______ _______ _____ _____    ______ ____
ROOT
ATOM      1  C   UNL     1       0.093  -5.172   3.139  0.00  0.00    +0.078 C 
ATOM      2  C   UNL     1       1.342  -4.916   3.986  0.00  0.00    +0.032 C 
ATOM      3  C   UNL     1       1.339  -5.859   5.193  0.00  0.00    +0.110 C 
ATOM      4  N   UNL     1       1.209  -7.241   4.713  0.00  0.00    -0.286 N 
ATOM      5  C   UNL     1       0.093  -7.576   3.818  0.00  0.00    +0.110 C 
ATOM      6  C   UNL     1       0.110  -6.614   2.626  0.00  0.00    +0.032 C 
ATOM      7  C   UNL     1       2.097  -8.184   5.086  0.00  0.00    +0.303 C 
ATOM      8  O   UNL     1       1.928  -9.342   4.757  0.00  0.00    -0.253 OA
ATOM      9  N   UNL     1       3.172  -7.842   5.823  0.00  0.00    -0.292 N 
ATOM     10  H   UNL     1       3.269  -6.933   6.148  0.00  0.00    +0.151 HD
ENDROOT
BRANCH   1  18
ATOM     11  C   UNL     1      -0.007   1.500   0.000  0.00  0.00    +0.066 C 
ATOM     12  C   UNL     1       0.012  -0.007  -0.007  0.00  0.00    +0.047 A 
ATOM     13  C   UNL     1       0.016  -0.710  -1.166  0.00  0.00    +0.071 A 
ATOM     14  S   UNL     1       0.041  -2.382  -0.541  0.00  0.00    -0.060 S 
ATOM     15  C   UNL     1       0.043  -2.017   1.101  0.00  0.00    +0.165 A 
ATOM     16  N   UNL     1       0.031  -0.701   1.116  0.00  0.00    -0.230 NA
ATOM     17  N   UNL     1       0.059  -2.892   2.181  0.00  0.00    -0.264 N 
ATOM     18  C   UNL     1       0.076  -4.223   1.969  0.00  0.00    +0.222 C 
ATOM     19  O   UNL     1       0.077  -4.657   0.836  0.00  0.00    -0.275 OA
ATOM     20  H   UNL     1       0.058  -2.545   3.087  0.00  0.00    +0.157 HD
ENDBRANCH   1  18
BRANCH   9  21
ATOM     21  C   UNL     1       4.195  -8.844   6.135  0.00  0.00    +0.105 C 
ATOM     22  C   UNL     1       4.969  -8.441   7.407  0.00  0.00    +0.032 C 
ATOM     23  C   UNL     1       6.168  -7.657   6.832  0.00  0.00    +0.037 C 
ATOM     24  C   UNL     1       6.369  -8.209   5.437  0.00  0.00    -0.042 A 
ATOM     25  C   UNL     1       5.234  -8.893   5.035  0.00  0.00    -0.024 A 
ATOM     26  C   UNL     1       5.190  -9.487   3.785  0.00  0.00    +0.006 A 
ATOM     27  C   UNL     1       6.277  -9.400   2.936  0.00  0.00    +0.000 A 
ATOM     28  C   UNL     1       7.411  -8.719   3.334  0.00  0.00    +0.000 A 
ATOM     29  C   UNL     1       7.458  -8.122   4.586  0.00  0.00    +0.004 A 
ENDBRANCH   9  21
TORSDOF 2
