REMARK  Name = ZINC47462465
REMARK  6 active torsions:
REMARK  status: ('A' for Active; 'I' for Inactive)
REMARK    1  A    between atoms: C_1  and  C_2
REMARK    2  A    between atoms: C_4  and  O_20
REMARK    3  A    between atoms: C_6  and  C_19
REMARK    4  A    between atoms: C_7  and  S_8
REMARK    5  A    between atoms: S_8  and  N_11
REMARK    6  A    between atoms: O_20  and  C_21
REMARK                            x       y       z     vdW  Elec       q    Type
REMARK                         _______ _______ _______ _____ _____    ______ ____
ROOT
ATOM      1  S   UNL     1       0.332   0.086   2.744  0.00  0.00    +0.061 S 
ATOM      2  O   UNL     1       1.111  -0.822   3.511  0.00  0.00    -0.153 OA
ATOM      3  O   UNL     1       0.736   1.428   2.511  0.00  0.00    -0.153 OA
ENDROOT
BRANCH   1   4
ATOM      4  N   UNL     1      -1.157   0.159   3.465  0.00  0.00    -0.175 NA
ATOM      5  C   UNL     1      -1.970   1.359   3.279  0.00  0.00    +0.119 C 
ATOM      6  C   UNL     1      -2.180   2.051   4.631  0.00  0.00    +0.113 C 
ATOM      7  C   UNL     1      -3.283   1.332   5.375  0.00  0.00    +0.214 C 
ATOM      8  O   UNL     1      -4.363   1.867   5.515  0.00  0.00    -0.276 OA
ATOM      9  N   UNL     1      -3.078   0.112   5.878  0.00  0.00    -0.314 N 
ATOM     10  C   UNL     1      -1.776  -0.552   5.724  0.00  0.00    +0.121 C 
ATOM     11  C   UNL     1      -1.610  -0.981   4.258  0.00  0.00    +0.128 C 
ATOM     12  H   UNL     1      -3.795  -0.341   6.349  0.00  0.00    +0.149 HD
ENDBRANCH   1   4
BRANCH   1  19
ATOM     13  C   UNL     1      -0.306   1.628   0.223  0.00  0.00    +0.046 C 
ATOM     14  C   UNL     1      -0.181   0.135   0.064  0.00  0.00    -0.020 A 
ATOM     15  C   UNL     1      -0.351  -0.443  -1.179  0.00  0.00    +0.051 A 
ATOM     16  C   UNL     1      -0.236  -1.818  -1.325  0.00  0.00    +0.121 A 
ATOM     17  C   UNL     1       0.049  -2.609  -0.221  0.00  0.00    +0.051 A 
ATOM     18  C   UNL     1       0.218  -2.026   1.020  0.00  0.00    -0.020 A 
ATOM     19  C   UNL     1       0.108  -0.655   1.161  0.00  0.00    +0.111 A 
ATOM     20  C   UNL     1       0.528  -2.885   2.219  0.00  0.00    +0.046 C 
BRANCH  16  21
ATOM     21  O   UNL     1      -0.403  -2.389  -2.547  0.00  0.00    -0.495 OA
ATOM     22  C   UNL     1      -0.270  -3.810  -2.622  0.00  0.00    +0.277 C 
ENDBRANCH  16  21
ENDBRANCH   1  19
TORSDOF 3
