REMARK  Name = ZINC06198142
REMARK  13 active torsions:
REMARK  status: ('A' for Active; 'I' for Inactive)
REMARK    1  A    between atoms: C_1  and  C_2
REMARK    2  A    between atoms: C_2  and  C_3
REMARK    3  A    between atoms: C_10  and  C_15
REMARK    4  A    between atoms: C_15  and  C_17
REMARK    5  A    between atoms: C_15  and  N_69
REMARK    6  A    between atoms: N_21  and  C_22
REMARK    7  A    between atoms: C_22  and  C_23
REMARK    8  A    between atoms: C_22  and  C_24
REMARK    9  A    between atoms: C_22  and  C_25
REMARK   10  A    between atoms: C_26  and  C_27
REMARK   11  A    between atoms: C_26  and  N_69
REMARK   12  A    between atoms: C_34  and  C_35
REMARK   13  A    between atoms: C_34  and  N_69
REMARK                            x       y       z     vdW  Elec       q    Type
REMARK                         _______ _______ _______ _____ _____    ______ ____
ROOT
ATOM      1  C   UNL     1       3.556   0.476  -0.215  0.00  0.00    +0.040 C 
ENDROOT
BRANCH   1   9
ATOM      2  C   UNL     1       3.775  -0.644  -6.297  0.00  0.00    -0.047 A 
ATOM      3  C   UNL     1       5.134  -0.404  -6.450  0.00  0.00    +0.005 A 
ATOM      4  C   UNL     1       5.910  -0.041  -5.371  0.00  0.00    +0.026 A 
ATOM      5  C   UNL     1       5.329   0.084  -4.114  0.00  0.00    +0.049 A 
ATOM      6  C   UNL     1       3.951  -0.161  -3.962  0.00  0.00    -0.001 A 
ATOM      7  C   UNL     1       3.183  -0.527  -5.072  0.00  0.00    +0.013 A 
ATOM      8  C   UNL     1       3.350  -0.032  -2.633  0.00  0.00    +0.017 A 
ATOM      9  C   UNL     1       4.144   0.330  -1.595  0.00  0.00    +0.011 A 
ATOM     10  C   UNL     1       5.520   0.564  -1.801  0.00  0.00    +0.251 A 
ATOM     11  O   UNL     1       6.217   0.884  -0.853  0.00  0.00    -0.268 OA
ATOM     12  N   UNL     1       6.082   0.443  -3.017  0.00  0.00    -0.322 N 
ATOM     13  H   UNL     1       7.061   0.617  -3.126  0.00  0.00    +0.169 HD
BRANCH   2  15
ATOM     14  C   UNL     1       2.390   0.219  -8.164  0.00  0.00    +0.009 C 
ATOM     15  C   UNL     1       2.947  -1.038  -7.492  0.00  0.00    +0.032 C 
ENDBRANCH   2  15
ENDBRANCH   1   9
BRANCH   1  16
ATOM     16  C   UNL     1       2.053   0.392  -0.298  0.00  0.00    +0.143 A 
ATOM     17  N   UNL     1       1.261   1.190  -0.971  0.00  0.00    -0.115 NA
ATOM     18  N   UNL     1       0.049   0.792  -0.791  0.00  0.00    -0.023 NA
ATOM     19  N   UNL     1       0.048  -0.240  -0.021  0.00  0.00    -0.043 NA
ATOM     20  N   UNL     1       1.265  -0.517   0.304  0.00  0.00    -0.225 N 
BRANCH  20  21
ATOM     21  C   UNL     1       1.706  -1.615   1.168  0.00  0.00    +0.059 C 
ATOM     22  C   UNL     1       0.490  -2.424   1.626  0.00  0.00    +0.036 C 
ATOM     23  C   UNL     1       2.659  -2.525   0.390  0.00  0.00    +0.036 C 
ATOM     24  C   UNL     1       2.429  -1.045   2.390  0.00  0.00    +0.036 C 
ENDBRANCH  20  21
ENDBRANCH   1  16
BRANCH   1  25
ATOM     25  N   UNL     1       3.971   1.780   0.342  0.00  0.00    +0.397 N 
ATOM     26  H   UNL     1       4.978   1.904   0.187  0.00  0.00    -0.079 HD
BRANCH  25  27
ATOM     27  C   UNL     1       3.701   1.817   1.795  0.00  0.00    -0.039 C 
BRANCH  27  28
ATOM     28  C   UNL     1       4.209   3.122   2.353  0.00  0.00    -0.046 A 
ATOM     29  C   UNL     1       5.505   3.214   2.826  0.00  0.00    +0.003 A 
ATOM     30  C   UNL     1       5.972   4.412   3.333  0.00  0.00    +0.000 A 
ATOM     31  C   UNL     1       5.141   5.516   3.377  0.00  0.00    +0.001 A 
ATOM     32  C   UNL     1       3.844   5.424   2.909  0.00  0.00    +0.020 A 
ATOM     33  C   UNL     1       3.377   4.226   2.397  0.00  0.00    +0.042 A 
ATOM     34 CL   UNL     1       1.748   4.110   1.809  0.00  0.00    -0.083 Cl
ENDBRANCH  27  28
ENDBRANCH  25  27
BRANCH  25  35
ATOM     35  C   UNL     1       3.243   2.874  -0.335  0.00  0.00    -0.001 C 
BRANCH  35  36
ATOM     36  C   UNL     1       3.824   3.062  -1.712  0.00  0.00    +0.089 A 
ATOM     37  C   UNL     1       3.309   2.578  -2.856  0.00  0.00    +0.042 A 
ATOM     38  C   UNL     1       4.169   2.990  -3.900  0.00  0.00    +0.041 A 
ATOM     39  C   UNL     1       5.159   3.701  -3.331  0.00  0.00    +0.195 A 
ATOM     40  O   UNL     1       4.941   3.747  -2.006  0.00  0.00    -0.470 OA
ENDBRANCH  35  36
ENDBRANCH  25  35
ENDBRANCH   1  25
TORSDOF 9
