REMARK  Name = ZINC21251799
REMARK  10 active torsions:
REMARK  status: ('A' for Active; 'I' for Inactive)
REMARK    1  A    between atoms: C_1  and  C_2
REMARK    2  A    between atoms: C_2  and  C_3
REMARK    3  A    between atoms: C_2  and  O_4
REMARK    4  A    between atoms: O_4  and  C_5
REMARK    5  A    between atoms: C_8  and  C_13
REMARK    6  A    between atoms: C_10  and  O_11
REMARK    7  A    between atoms: O_11  and  C_12
REMARK    8  A    between atoms: C_18  and  C_28
REMARK    9  A    between atoms: C_33  and  O_34
REMARK   10  A    between atoms: O_34  and  C_35
REMARK                            x       y       z     vdW  Elec       q    Type
REMARK                         _______ _______ _______ _____ _____    ______ ____
ROOT
ATOM      1  C   UNL     1       0.427   1.090  -0.244  0.00  0.00    +0.032 C 
ATOM      2  C   UNL     1       0.237   1.774   1.109  0.00  0.00    +0.059 C 
ATOM      3  C   UNL     1       1.266   1.258   2.100  0.00  0.00    +0.017 C 
ATOM      4  C   UNL     1       2.487   0.879   1.683  0.00  0.00    +0.037 C 
ATOM      5  C   UNL     1       3.601   0.362   2.560  0.00  0.00    +0.139 C 
ATOM      6  N   UNL     1       3.378   0.531   3.980  0.00  0.00    -0.331 N 
ATOM      7  C   UNL     1       2.339  -0.135   4.627  0.00  0.00    +0.049 A 
ATOM      8  C   UNL     1       2.585  -1.093   5.598  0.00  0.00    +0.025 A 
ATOM      9  C   UNL     1       1.521  -1.761   6.178  0.00  0.00    +0.002 A 
ATOM     10  C   UNL     1       0.223  -1.480   5.793  0.00  0.00    +0.002 A 
ATOM     11  C   UNL     1      -0.027  -0.510   4.836  0.00  0.00    +0.025 A 
ATOM     12  C   UNL     1       1.035   0.174   4.271  0.00  0.00    +0.052 A 
ATOM     13  N   UNL     1       0.851   1.236   3.393  0.00  0.00    -0.316 N 
ATOM     14  C   UNL     1       2.821   0.942   0.310  0.00  0.00    +0.163 C 
ATOM     15  O   UNL     1       3.937   0.610  -0.038  0.00  0.00    -0.292 OA
ATOM     16  C   UNL     1       1.846   1.405  -0.732  0.00  0.00    +0.088 C 
ATOM     17  H   UNL     1       4.034   1.193   4.564  0.00  0.00    +0.147 HD
ATOM     18  H   UNL     1       0.326   2.105   3.817  0.00  0.00    +0.152 HD
ENDROOT
BRANCH   1  22
ATOM     19  C   UNL     1      -2.431   2.600  -3.045  0.00  0.00    +0.162 A 
ATOM     20  C   UNL     1      -1.534   3.461  -2.434  0.00  0.00    +0.050 A 
ATOM     21  C   UNL     1      -0.611   2.970  -1.529  0.00  0.00    +0.008 A 
ATOM     22  C   UNL     1      -0.581   1.620  -1.231  0.00  0.00    -0.040 A 
ATOM     23  C   UNL     1      -1.470   0.755  -1.841  0.00  0.00    +0.053 A 
ATOM     24  C   UNL     1      -2.401   1.242  -2.745  0.00  0.00    +0.162 A 
BRANCH  24  25
ATOM     25  O   UNL     1      -3.280   0.393  -3.342  0.00  0.00    -0.491 OA
ATOM     26  C   UNL     1      -3.191  -0.989  -2.986  0.00  0.00    +0.277 C 
ENDBRANCH  24  25
BRANCH  19  27
ATOM     27  O   UNL     1      -3.339   3.082  -3.935  0.00  0.00    -0.486 OA
BRANCH  27  29
ATOM     28  C   UNL     1      -2.328   4.920  -5.134  0.00  0.00    +0.051 C 
ATOM     29  C   UNL     1      -3.386   4.499  -4.112  0.00  0.00    +0.167 C 
ATOM     30  C   UNL     1      -4.772   4.905  -4.616  0.00  0.00    +0.051 C 
ENDBRANCH  27  29
ENDBRANCH  19  27
ENDBRANCH   1  22
BRANCH   5  31
ATOM     31  C   UNL     1       3.788  -1.107   2.278  0.00  0.00    +0.019 A 
ATOM     32  C   UNL     1       2.799  -1.817   1.625  0.00  0.00    +0.009 A 
ATOM     33  C   UNL     1       2.972  -3.163   1.362  0.00  0.00    +0.001 A 
ATOM     34  C   UNL     1       4.131  -3.804   1.761  0.00  0.00    +0.004 A 
ATOM     35  C   UNL     1       5.120  -3.100   2.418  0.00  0.00    +0.046 A 
ATOM     36  C   UNL     1       4.951  -1.748   2.679  0.00  0.00    +0.125 A 
BRANCH  36  37
ATOM     37  O   UNL     1       5.923  -1.053   3.326  0.00  0.00    -0.495 OA
ATOM     38  C   UNL     1       7.094  -1.778   3.709  0.00  0.00    +0.277 C 
ENDBRANCH  36  37
ENDBRANCH   5  31
TORSDOF 6
