REMARK  Name = ZINC08792261
REMARK  5 active torsions:
REMARK  status: ('A' for Active; 'I' for Inactive)
REMARK    1  A    between atoms: C_1  and  C_2
REMARK    2  A    between atoms: C_2  and  C_4
REMARK    3  A    between atoms: C_2  and  O_17
REMARK    4  A    between atoms: C_4  and  N_6
REMARK    5  A    between atoms: O_17  and  C_18
REMARK                            x       y       z     vdW  Elec       q    Type
REMARK                         _______ _______ _______ _____ _____    ______ ____
ROOT
ATOM      1  C   UNL     1      -0.031  -0.600   2.304  0.00  0.00    +0.122 A 
ATOM      2  C   UNL     1      -1.403  -0.375   2.284  0.00  0.00    +0.048 A 
ATOM      3  C   UNL     1      -2.146  -0.497   3.439  0.00  0.00    +0.030 A 
ATOM      4  C   UNL     1      -1.532  -0.845   4.635  0.00  0.00    +0.058 A 
ATOM      5  C   UNL     1      -0.142  -1.073   4.657  0.00  0.00    +0.012 A 
ATOM      6  C   UNL     1       0.597  -0.953   3.484  0.00  0.00    +0.056 A 
ATOM      7  C   UNL     1       0.204  -1.418   6.044  0.00  0.00    +0.012 A 
ATOM      8  C   UNL     1       1.336  -1.754   6.781  0.00  0.00    +0.028 A 
ATOM      9  C   UNL     1       1.192  -2.015   8.135  0.00  0.00    +0.084 A 
ATOM     10  N   UNL     1       0.024  -1.960   8.754  0.00  0.00    -0.359 N 
ATOM     11  C   UNL     1      -1.083  -1.645   8.097  0.00  0.00    +0.072 A 
ATOM     12  C   UNL     1      -1.002  -1.370   6.739  0.00  0.00    +0.082 A 
ATOM     13  N   UNL     1      -2.039  -1.032   5.922  0.00  0.00    -0.274 N 
ATOM     14  C   UNL     1      -3.282  -0.939   6.447  0.00  0.00    +0.264 A 
ATOM     15  O   UNL     1      -4.219  -0.634   5.734  0.00  0.00    -0.267 OA
ATOM     16  C   UNL     1      -3.505  -1.208   7.878  0.00  0.00    +0.049 A 
ATOM     17  C   UNL     1      -2.421  -1.562   8.714  0.00  0.00    +0.013 A 
ATOM     18  C   UNL     1      -2.632  -1.817  10.061  0.00  0.00    +0.011 A 
ATOM     19  C   UNL     1      -3.908  -1.725  10.583  0.00  0.00    +0.001 A 
ATOM     20  C   UNL     1      -4.975  -1.379   9.769  0.00  0.00    +0.001 A 
ATOM     21  C   UNL     1      -4.784  -1.118   8.428  0.00  0.00    +0.014 A 
ATOM     22  H   UNL     1      -0.023  -2.153   9.703  0.00  0.00    +0.165 HD
ENDROOT
BRANCH   1  23
ATOM     23  O   UNL     1       0.693  -0.477   1.160  0.00  0.00    -0.480 OA
BRANCH  23  25
ATOM     24  C   UNL     1      -0.293   1.273  -0.184  0.00  0.00    +0.062 C 
ATOM     25  C   UNL     1      -0.034  -0.229  -0.045  0.00  0.00    +0.258 C 
BRANCH  25  26
ATOM     26  C   UNL     1       0.769  -0.712  -1.225  0.00  0.00    +0.279 C 
ATOM     27  O   UNL     1       1.896  -1.136  -1.061  0.00  0.00    -0.270 OA
BRANCH  26  28
ATOM     28  N   UNL     1       0.245  -0.673  -2.446  0.00  0.00    -0.153 NA
ATOM     29  C   UNL     1       0.954  -1.100  -3.489  0.00  0.00    +0.164 A 
ATOM     30  N   UNL     1       0.582  -1.127  -4.793  0.00  0.00    -0.335 N 
ATOM     31  H   UNL     1      -0.297  -0.810  -5.055  0.00  0.00    +0.168 HD
ATOM     32  C   UNL     1       1.457  -1.608  -5.748  0.00  0.00    +0.055 A 
ATOM     33  C   UNL     1       1.280  -1.725  -7.134  0.00  0.00    +0.027 A 
ATOM     34  C   UNL     1       2.280  -2.235  -7.928  0.00  0.00    +0.002 A 
ATOM     35  C   UNL     1       3.487  -2.646  -7.385  0.00  0.00    +0.001 A 
ATOM     36  C   UNL     1       3.688  -2.540  -6.020  0.00  0.00    +0.017 A 
ATOM     37  C   UNL     1       2.688  -2.031  -5.226  0.00  0.00    +0.039 A 
ATOM     38  S   UNL     1       2.517  -1.719  -3.488  0.00  0.00    -0.052 S 
ENDBRANCH  26  28
ENDBRANCH  25  26
ENDBRANCH  23  25
ENDBRANCH   1  23
TORSDOF 4
