REMARK  Name = ZINC06768430
REMARK  4 active torsions:
REMARK  status: ('A' for Active; 'I' for Inactive)
REMARK    1  A    between atoms: C_3  and  C_8
REMARK    2  A    between atoms: C_9  and  N_19
REMARK    3  A    between atoms: C_14  and  C_17
REMARK    4  A    between atoms: N_19  and  C_20
REMARK                            x       y       z     vdW  Elec       q    Type
REMARK                         _______ _______ _______ _____ _____    ______ ____
ROOT
ATOM      1  C   UNL     1       2.252   1.247   0.900  0.00  0.00    +0.088 A 
ATOM      2  C   UNL     1       1.282   1.522  -0.002  0.00  0.00    +0.147 A 
ATOM      3  N   UNL     1       1.793   2.409  -0.931  0.00  0.00    -0.199 N 
ATOM      4  C   UNL     1       3.083   2.673  -0.601  0.00  0.00    +0.154 A 
ATOM      5  N   UNL     1       3.391   1.962   0.529  0.00  0.00    -0.336 N 
ATOM      6  H   UNL     1       4.245   1.959   0.989  0.00  0.00    +0.167 HD
ATOM      7  C   UNL     1       3.576   3.569  -1.553  0.00  0.00    +0.114 A 
ATOM      8  C   UNL     1       2.525   3.824  -2.460  0.00  0.00    +0.156 A 
ATOM      9  N   UNL     1       1.481   3.137  -2.086  0.00  0.00    -0.170 NA
ENDROOT
BRANCH   1  12
ATOM     10  C   UNL     1       3.019  -1.408   3.442  0.00  0.00    +0.002 A 
ATOM     11  C   UNL     1       3.140  -0.572   2.352  0.00  0.00    +0.010 A 
ATOM     12  C   UNL     1       2.129   0.348   2.065  0.00  0.00    +0.003 A 
ATOM     13  C   UNL     1       1.004   0.418   2.889  0.00  0.00    +0.030 A 
ATOM     14  C   UNL     1       0.893  -0.429   3.973  0.00  0.00    +0.042 A 
ATOM     15  C   UNL     1       1.900  -1.338   4.251  0.00  0.00    +0.020 A 
ATOM     16 CL   UNL     1      -0.508  -0.348   4.995  0.00  0.00    -0.084 Cl
ENDBRANCH   1  12
BRANCH   7  17
ATOM     17  C   UNL     1       4.896   4.123  -1.600  0.00  0.00    +0.104 C 
ATOM     18  N   UNL     1       5.943   4.562  -1.637  0.00  0.00    -0.191 NA
ENDBRANCH   7  17
BRANCH   2  19
ATOM     19  N   UNL     1      -0.012   1.005   0.008  0.00  0.00    -0.324 N 
ATOM     20  H   UNL     1       0.002  -0.004   0.002  0.00  0.00    +0.148 HD
BRANCH  19  21
ATOM     21  C   UNL     1      -0.795   1.527  -1.120  0.00  0.00    +0.072 C 
ATOM     22  C   UNL     1      -1.341   2.920  -0.746  0.00  0.00    +0.022 C 
ATOM     23  C   UNL     1      -1.685   3.655  -2.014  0.00  0.00    +0.002 C 
ATOM     24  C   UNL     1      -3.167   3.495  -2.404  0.00  0.00    +0.000 C 
ATOM     25  C   UNL     1      -3.685   2.058  -2.205  0.00  0.00    +0.000 C 
ATOM     26  C   UNL     1      -2.693   1.020  -2.654  0.00  0.00    +0.002 C 
ATOM     27  C   UNL     1      -1.857   0.582  -1.434  0.00  0.00    +0.022 C 
ENDBRANCH  19  21
ENDBRANCH   2  19
TORSDOF 4
