REMARK  Name = ZINC39673876
REMARK  9 active torsions:
REMARK  status: ('A' for Active; 'I' for Inactive)
REMARK    1  A    between atoms: C_1  and  C_2
REMARK    2  A    between atoms: C_2  and  C_3
REMARK    3  A    between atoms: C_3  and  C_4
REMARK    4  A    between atoms: C_4  and  C_6
REMARK    5  A    between atoms: C_4  and  N_7
REMARK    6  A    between atoms: C_8  and  C_10
REMARK    7  A    between atoms: C_21  and  C_23
REMARK    8  A    between atoms: C_30  and  C_34
REMARK    9  A    between atoms: N_32  and  C_33
REMARK                            x       y       z     vdW  Elec       q    Type
REMARK                         _______ _______ _______ _____ _____    ______ ____
ROOT
ATOM      1  C   UNL     1       0.342  -4.232  -2.613  0.00  0.00    +0.100 C 
ATOM      2  C   UNL     1       1.427  -3.254  -3.115  0.00  0.00    +0.121 C 
ATOM      3  N   UNL     1       2.700  -3.812  -2.602  0.00  0.00    -0.296 N 
ATOM      4  C   UNL     1       2.550  -5.279  -2.760  0.00  0.00    +0.115 C 
ATOM      5  C   UNL     1       1.082  -5.561  -2.385  0.00  0.00    -0.004 C 
ATOM      6  C   UNL     1       0.506  -6.648  -3.287  0.00  0.00    -0.010 C 
ATOM      7  C   UNL     1       1.218  -7.973  -3.000  0.00  0.00    -0.082 C 
ATOM      8  N   UNL     1       1.037  -8.333  -1.588  0.00  0.00    +0.379 N 
ATOM      9  C   UNL     1       1.676  -7.328  -0.730  0.00  0.00    -0.082 C 
ATOM     10  C   UNL     1       0.983  -5.976  -0.920  0.00  0.00    -0.010 C 
ATOM     11  C   UNL     1       3.756  -3.139  -2.104  0.00  0.00    +0.250 C 
ATOM     12  O   UNL     1       3.691  -1.935  -1.949  0.00  0.00    -0.270 OA
ATOM     13  H   UNL     1       0.051  -8.376  -1.377  0.00  0.00    -0.086 HD
ATOM     14  H   UNL     1       1.455  -9.235  -1.416  0.00  0.00    -0.086 HD
ENDROOT
BRANCH  11  15
ATOM     15  C   UNL     1       4.992  -3.863  -1.748  0.00  0.00    +0.074 A 
ATOM     16  C   UNL     1       5.412  -4.966  -2.505  0.00  0.00    +0.127 A 
ATOM     17  N   UNL     1       6.507  -5.624  -2.205  0.00  0.00    -0.235 NA
ATOM     18  C   UNL     1       7.272  -5.280  -1.173  0.00  0.00    +0.160 A 
ATOM     19  C   UNL     1       6.920  -4.182  -0.363  0.00  0.00    +0.060 A 
ATOM     20  C   UNL     1       5.762  -3.455  -0.656  0.00  0.00    +0.067 A 
ATOM     21 CL   UNL     1       5.292  -2.091   0.310  0.00  0.00    -0.082 Cl
ATOM     22  C   UNL     1       7.953  -4.076   0.662  0.00  0.00    +0.071 A 
ATOM     23  N   UNL     1       8.815  -5.030   0.452  0.00  0.00    -0.174 NA
ATOM     24  N   UNL     1       8.433  -5.786  -0.660  0.00  0.00    -0.249 N 
ATOM     25  C   UNL     1       9.163  -6.939  -1.192  0.00  0.00    +0.174 C 
ATOM     26  C   UNL     1       8.012  -3.050   1.764  0.00  0.00    +0.068 C 
ENDBRANCH  11  15
BRANCH   1  28
ATOM     27  N   UNL     1      -1.538  -4.018  -1.020  0.00  0.00    -0.312 N 
ATOM     28  C   UNL     1      -0.255  -3.735  -1.322  0.00  0.00    +0.218 C 
ATOM     29  O   UNL     1       0.419  -3.082  -0.554  0.00  0.00    -0.275 OA
ATOM     30  H   UNL     1      -2.077  -4.541  -1.634  0.00  0.00    +0.149 HD
BRANCH  27  31
ATOM     31  C   UNL     1      -2.118  -3.535   0.236  0.00  0.00    +0.070 C 
ATOM     32  C   UNL     1      -1.790  -4.519   1.361  0.00  0.00    +0.028 C 
BRANCH  31  33
ATOM     33  C   UNL     1      -3.636  -3.420   0.085  0.00  0.00    +0.022 C 
BRANCH  33  35
ATOM     34  C   UNL     1      -5.484  -2.231  -1.103  0.00  0.00    +0.004 C 
ATOM     35  C   UNL     1      -3.966  -2.345  -0.953  0.00  0.00    -0.002 C 
ENDBRANCH  33  35
ENDBRANCH  31  33
ENDBRANCH  27  31
ENDBRANCH   1  28
TORSDOF 5
