REMARK  Name = ZINC32863009
REMARK  9 active torsions:
REMARK  status: ('A' for Active; 'I' for Inactive)
REMARK    1  A    between atoms: C_1  and  C_2
REMARK    2  A    between atoms: C_2  and  C_4
REMARK    3  A    between atoms: C_2  and  N_14
REMARK    4  A    between atoms: C_7  and  S_10
REMARK    5  A    between atoms: S_10  and  N_13
REMARK    6  A    between atoms: N_17  and  C_18
REMARK    7  A    between atoms: N_17  and  C_19
REMARK    8  A    between atoms: C_19  and  C_20
REMARK    9  A    between atoms: C_23  and  N_26
REMARK                            x       y       z     vdW  Elec       q    Type
REMARK                         _______ _______ _______ _____ _____    ______ ____
ROOT
ATOM      1  N   UNL     1      -2.250   3.801   5.822  0.00  0.00    -0.293 N 
ATOM      2  C   UNL     1      -2.528   3.834   7.140  0.00  0.00    +0.303 C 
ATOM      3  O   UNL     1      -3.509   3.259   7.569  0.00  0.00    -0.253 OA
ATOM      4  N   UNL     1      -1.717   4.504   7.983  0.00  0.00    -0.284 N 
ATOM      5  C   UNL     1      -0.535   5.197   7.465  0.00  0.00    +0.134 C 
ATOM      6  H   UNL     1      -1.362   4.321   5.433  0.00  0.00    +0.151 HD
ENDROOT
BRANCH   1   8
ATOM      7  C   UNL     1      -4.294   3.975   4.489  0.00  0.00    +0.033 C 
ATOM      8  C   UNL     1      -3.131   3.072   4.906  0.00  0.00    +0.102 C 
BRANCH   8   9
ATOM      9  C   UNL     1      -2.353   2.659   3.683  0.00  0.00    -0.027 A 
ATOM     10  C   UNL     1      -2.559   1.412   3.121  0.00  0.00    +0.007 A 
ATOM     11  C   UNL     1      -1.846   1.033   2.000  0.00  0.00    +0.029 A 
ATOM     12  C   UNL     1      -0.927   1.900   1.439  0.00  0.00    +0.105 A 
ATOM     13  C   UNL     1      -0.717   3.145   2.004  0.00  0.00    +0.029 A 
ATOM     14  C   UNL     1      -1.434   3.526   3.123  0.00  0.00    +0.007 A 
BRANCH  12  15
ATOM     15  S   UNL     1      -0.017   1.417   0.010  0.00  0.00    +0.056 S 
ATOM     16  O   UNL     1       0.002  -0.004   0.002  0.00  0.00    -0.153 OA
ATOM     17  O   UNL     1       1.172   2.195   0.003  0.00  0.00    -0.153 OA
BRANCH  15  18
ATOM     18  N   UNL     1      -0.897   1.885  -1.312  0.00  0.00    -0.204 NA
ATOM     19  H   UNL     1      -0.361   1.601  -2.229  0.00  0.00    +0.144 HD
ATOM     20  H   UNL     1      -1.036   2.977  -1.292  0.00  0.00    +0.144 HD
ENDBRANCH  15  18
ENDBRANCH  12  15
ENDBRANCH   8   9
ENDBRANCH   1   8
BRANCH   4  21
ATOM     21  C   UNL     1      -2.019   4.540   9.416  0.00  0.00    +0.144 C 
BRANCH  21  22
ATOM     22  C   UNL     1      -1.349   3.376  10.099  0.00  0.00    -0.030 A 
ATOM     23  C   UNL     1      -2.019   2.173  10.229  0.00  0.00    +0.007 A 
ATOM     24  C   UNL     1      -1.406   1.103  10.850  0.00  0.00    +0.023 A 
ATOM     25  C   UNL     1      -0.119   1.239  11.354  0.00  0.00    +0.030 A 
ATOM     26  C   UNL     1       0.549   2.450  11.228  0.00  0.00    +0.023 A 
ATOM     27  C   UNL     1      -0.068   3.515  10.601  0.00  0.00    +0.007 A 
BRANCH  25  28
ATOM     28  N   UNL     1       0.502   0.160  11.988  0.00  0.00    -0.326 N 
ATOM     29  C   UNL     1       1.784  -0.163  11.343  0.00  0.00    +0.133 C 
ATOM     30  C   UNL     1       2.457  -1.309  12.103  0.00  0.00    +0.178 C 
ATOM     31  O   UNL     1       1.573  -2.432  12.143  0.00  0.00    -0.377 OA
ATOM     32  C   UNL     1       0.315  -2.154  12.764  0.00  0.00    +0.178 C 
ATOM     33  C   UNL     1      -0.380  -1.016  12.011  0.00  0.00    +0.133 C 
ENDBRANCH  25  28
ENDBRANCH  21  22
ENDBRANCH   4  21
TORSDOF 7
