REMARK  Name = ZINC12325118
REMARK  4 active torsions:
REMARK  status: ('A' for Active; 'I' for Inactive)
REMARK    1  A    between atoms: C_1  and  O_2
REMARK    2  A    between atoms: O_2  and  C_3
REMARK    3  A    between atoms: C_8  and  N_9
REMARK    4  A    between atoms: C_15  and  C_16
REMARK                            x       y       z     vdW  Elec       q    Type
REMARK                         _______ _______ _______ _____ _____    ______ ____
ROOT
ATOM      1  N   UNL     1      -1.202   2.148  -0.055  0.00  0.00    -0.301 N 
ATOM      2  C   UNL     1      -1.397   2.853   1.213  0.00  0.00    +0.224 C 
ATOM      3  N   UNL     1      -2.616   3.661   1.191  0.00  0.00    -0.229 N 
ATOM      4  C   UNL     1      -2.885   4.717   1.989  0.00  0.00    +0.272 C 
ATOM      5  O   UNL     1      -2.146   5.223   2.814  0.00  0.00    -0.268 OA
ATOM      6  C   UNL     1      -4.261   5.130   1.650  0.00  0.00    +0.129 C 
ATOM      7  C   UNL     1      -4.982   6.137   2.223  0.00  0.00    +0.041 C 
ATOM      8  N   UNL     1      -4.665   4.297   0.646  0.00  0.00    -0.220 NA
ATOM      9  C   UNL     1      -3.702   3.463   0.361  0.00  0.00    +0.166 C 
ATOM     10  S   UNL     1      -3.721   2.252  -0.930  0.00  0.00    -0.071 S 
ATOM     11  C   UNL     1      -2.324   1.242  -0.357  0.00  0.00    +0.184 C 
ENDROOT
BRANCH   1  17
ATOM     12  C   UNL     1       1.217   2.162  -0.040  0.00  0.00    +0.141 A 
ATOM     13  C   UNL     1       2.419   1.475  -0.043  0.00  0.00    +0.047 A 
ATOM     14  C   UNL     1       2.425   0.092  -0.070  0.00  0.00    +0.004 A 
ATOM     15  C   UNL     1       1.233  -0.608  -0.093  0.00  0.00    +0.002 A 
ATOM     16  C   UNL     1       0.029   0.071  -0.091  0.00  0.00    +0.027 A 
ATOM     17  C   UNL     1       0.015   1.458  -0.064  0.00  0.00    +0.074 A 
BRANCH  12  19
ATOM     18  C   UNL     1       2.479   4.178   0.011  0.00  0.00    +0.277 C 
ATOM     19  O   UNL     1       1.210   3.522  -0.013  0.00  0.00    -0.493 OA
ENDBRANCH  12  19
ENDBRANCH   1  17
BRANCH   7  20
ATOM     20  C   UNL     1      -6.393   6.326   1.865  0.00  0.00    -0.023 A 
ATOM     21  C   UNL     1      -7.100   7.434   2.348  0.00  0.00    +0.008 A 
ATOM     22  C   UNL     1      -8.423   7.606   2.002  0.00  0.00    +0.001 A 
ATOM     23  C   UNL     1      -9.056   6.682   1.188  0.00  0.00    +0.000 A 
ATOM     24  C   UNL     1      -8.366   5.581   0.711  0.00  0.00    +0.001 A 
ATOM     25  C   UNL     1      -7.041   5.396   1.042  0.00  0.00    +0.008 A 
ENDBRANCH   7  20
TORSDOF 3
