REMARK  Name = ZINC29703483
REMARK  10 active torsions:
REMARK  status: ('A' for Active; 'I' for Inactive)
REMARK    1  A    between atoms: C_1  and  C_2
REMARK    2  A    between atoms: C_5  and  C_8
REMARK    3  A    between atoms: C_10  and  C_13
REMARK    4  A    between atoms: C_13  and  N_14
REMARK    5  A    between atoms: N_14  and  C_15
REMARK    6  A    between atoms: N_14  and  C_16
REMARK    7  A    between atoms: C_16  and  C_18
REMARK    8  A    between atoms: C_16  and  C_19
REMARK    9  A    between atoms: C_22  and  S_25
REMARK   10  A    between atoms: S_25  and  N_28
REMARK                            x       y       z     vdW  Elec       q    Type
REMARK                         _______ _______ _______ _____ _____    ______ ____
ROOT
ATOM      1  N   UNL     1       3.997   0.264   1.326  0.00  0.00    +0.387 N 
ATOM      2  C   UNL     1       3.622   1.577   1.868  0.00  0.00    -0.095 C 
ATOM      3  H   UNL     1       3.464  -0.505   1.905  0.00  0.00    -0.081 HD
ENDROOT
BRANCH   1   4
ATOM      4  C   UNL     1       5.438   0.024   1.475  0.00  0.00    -0.041 C 
ATOM      5  C   UNL     1       6.216   1.179   0.841  0.00  0.00    -0.008 C 
BRANCH   4   6
ATOM      6  C   UNL     1       5.783  -0.069   2.939  0.00  0.00    -0.061 A 
ATOM      7  C   UNL     1       6.985   0.434   3.400  0.00  0.00    +0.004 A 
ATOM      8  C   UNL     1       7.300   0.353   4.743  0.00  0.00    +0.029 A 
ATOM      9  C   UNL     1       6.416  -0.240   5.625  0.00  0.00    +0.105 A 
ATOM     10  C   UNL     1       5.215  -0.748   5.164  0.00  0.00    +0.029 A 
ATOM     11  C   UNL     1       4.899  -0.662   3.821  0.00  0.00    +0.004 A 
BRANCH   9  12
ATOM     12  S   UNL     1       6.819  -0.350   7.337  0.00  0.00    +0.056 S 
ATOM     13  O   UNL     1       7.756   0.686   7.600  0.00  0.00    -0.153 OA
ATOM     14  O   UNL     1       5.588  -0.460   8.038  0.00  0.00    -0.153 OA
BRANCH  12  15
ATOM     15  N   UNL     1       7.621  -1.781   7.560  0.00  0.00    -0.204 NA
ATOM     16  H   UNL     1       7.892  -1.889   8.621  0.00  0.00    +0.144 HD
ATOM     17  H   UNL     1       8.534  -1.790   6.946  0.00  0.00    +0.144 HD
ENDBRANCH  12  15
ENDBRANCH   9  12
ENDBRANCH   4   6
ENDBRANCH   1   4
BRANCH   1  18
ATOM     18  C   UNL     1       3.584   0.137  -0.079  0.00  0.00    +0.000 C 
BRANCH  18  21
ATOM     19  C   UNL     1      -0.031   0.687  -0.332  0.00  0.00    +0.113 A 
ATOM     20  C   UNL     1       1.285   1.228  -0.309  0.00  0.00    +0.074 A 
ATOM     21  C   UNL     1       2.080   0.144  -0.163  0.00  0.00    +0.122 A 
ATOM     22  O   UNL     1       1.270  -0.923  -0.109  0.00  0.00    -0.361 OA
ATOM     23  N   UNL     1       0.106  -0.609  -0.203  0.00  0.00    -0.078 NA
BRANCH  19  28
ATOM     24  C   UNL     1      -4.964   3.606  -0.901  0.00  0.00    +0.044 C 
ATOM     25  C   UNL     1      -3.674   2.842  -0.752  0.00  0.00    -0.050 A 
ATOM     26  C   UNL     1      -3.698   1.465  -0.625  0.00  0.00    +0.004 A 
ATOM     27  C   UNL     1      -2.519   0.761  -0.488  0.00  0.00    +0.010 A 
ATOM     28  C   UNL     1      -1.302   1.439  -0.478  0.00  0.00    +0.004 A 
ATOM     29  C   UNL     1      -1.284   2.827  -0.601  0.00  0.00    +0.010 A 
ATOM     30  C   UNL     1      -2.468   3.521  -0.743  0.00  0.00    +0.004 A 
ENDBRANCH  19  28
ENDBRANCH  18  21
ENDBRANCH   1  18
TORSDOF 7
