REMARK  Name = ZINC39696260
REMARK  8 active torsions:
REMARK  status: ('A' for Active; 'I' for Inactive)
REMARK    1  A    between atoms: C_1  and  C_2
REMARK    2  A    between atoms: C_2  and  C_3
REMARK    3  A    between atoms: C_6  and  C_9
REMARK    4  A    between atoms: C_9  and  C_11
REMARK    5  A    between atoms: C_9  and  N_12
REMARK    6  A    between atoms: C_13  and  C_15
REMARK    7  A    between atoms: C_26  and  C_28
REMARK    8  A    between atoms: C_31  and  C_33
REMARK                            x       y       z     vdW  Elec       q    Type
REMARK                         _______ _______ _______ _____ _____    ______ ____
ROOT
ATOM      1  C   UNL     1      -6.692  -4.983  -1.997  0.00  0.00    +0.100 C 
ATOM      2  C   UNL     1      -5.375  -5.764  -2.202  0.00  0.00    +0.121 C 
ATOM      3  N   UNL     1      -5.529  -6.982  -1.372  0.00  0.00    -0.294 N 
ATOM      4  C   UNL     1      -6.945  -7.379  -1.559  0.00  0.00    +0.115 C 
ATOM      5  C   UNL     1      -7.721  -6.047  -1.579  0.00  0.00    -0.004 C 
ATOM      6  C   UNL     1      -8.268  -5.735  -0.189  0.00  0.00    -0.010 C 
ATOM      7  C   UNL     1      -9.330  -6.774   0.181  0.00  0.00    -0.082 C 
ATOM      8  N   UNL     1     -10.412  -6.745  -0.810  0.00  0.00    +0.379 N 
ATOM      9  C   UNL     1      -9.895  -7.137  -2.127  0.00  0.00    -0.082 C 
ATOM     10  C   UNL     1      -8.857  -6.113  -2.595  0.00  0.00    -0.010 C 
ATOM     11  C   UNL     1      -4.593  -7.591  -0.617  0.00  0.00    +0.282 C 
ATOM     12  O   UNL     1      -4.877  -8.593   0.012  0.00  0.00    -0.267 OA
ATOM     13  H   UNL     1     -11.139  -7.387  -0.531  0.00  0.00    -0.086 HD
ATOM     14  H   UNL     1     -10.793  -5.813  -0.863  0.00  0.00    -0.086 HD
ENDROOT
BRANCH  11  15
ATOM     15  C   UNL     1      -3.234  -7.047  -0.555  0.00  0.00    +0.190 A 
ATOM     16  C   UNL     1      -2.185  -7.571   0.168  0.00  0.00    +0.055 A 
ATOM     17  C   UNL     1      -1.083  -6.741  -0.060  0.00  0.00    +0.050 A 
ATOM     18  C   UNL     1      -1.494  -5.751  -0.905  0.00  0.00    +0.136 A 
ATOM     19  O   UNL     1      -2.790  -5.949  -1.202  0.00  0.00    -0.450 OA
BRANCH  18  20
ATOM     20  C   UNL     1      -0.653  -4.649  -1.414  0.00  0.00    +0.017 A 
ATOM     21  C   UNL     1       0.689  -4.561  -1.038  0.00  0.00    +0.014 A 
ATOM     22  C   UNL     1       1.470  -3.530  -1.517  0.00  0.00    +0.039 A 
ATOM     23  C   UNL     1       0.925  -2.582  -2.369  0.00  0.00    +0.123 A 
ATOM     24  C   UNL     1      -0.407  -2.665  -2.745  0.00  0.00    +0.039 A 
ATOM     25  C   UNL     1      -1.196  -3.694  -2.278  0.00  0.00    +0.014 A 
ATOM     26  F   UNL     1       1.694  -1.575  -2.835  0.00  0.00    -0.205 F 
ENDBRANCH  18  20
ENDBRANCH  11  15
BRANCH   1  28
ATOM     27  N   UNL     1      -7.268  -2.827  -0.930  0.00  0.00    -0.308 N 
ATOM     28  C   UNL     1      -6.529  -3.954  -0.909  0.00  0.00    +0.219 C 
ATOM     29  O   UNL     1      -5.733  -4.140  -0.013  0.00  0.00    -0.275 OA
ATOM     30  H   UNL     1      -7.904  -2.678  -1.647  0.00  0.00    +0.149 HD
BRANCH  27  31
ATOM     31  C   UNL     1      -7.109  -1.826   0.128  0.00  0.00    +0.100 C 
ATOM     32  C   UNL     1      -7.987  -2.204   1.323  0.00  0.00    +0.033 C 
BRANCH  31  36
ATOM     33  C   UNL     1      -8.282   2.006  -1.349  0.00  0.00    -0.048 A 
ATOM     34  C   UNL     1      -7.176   1.891  -0.527  0.00  0.00    +0.004 A 
ATOM     35  C   UNL     1      -6.797   0.651  -0.049  0.00  0.00    +0.006 A 
ATOM     36  C   UNL     1      -7.523  -0.474  -0.393  0.00  0.00    -0.027 A 
ATOM     37  C   UNL     1      -8.629  -0.359  -1.214  0.00  0.00    +0.006 A 
ATOM     38  C   UNL     1      -9.011   0.882  -1.689  0.00  0.00    +0.004 A 
BRANCH  33  40
ATOM     39  C   UNL     1      -9.671   4.008  -0.887  0.00  0.00    +0.009 C 
ATOM     40  C   UNL     1      -8.695   3.358  -1.871  0.00  0.00    +0.032 C 
ENDBRANCH  33  40
ENDBRANCH  31  36
ENDBRANCH  27  31
ENDBRANCH   1  28
TORSDOF 6
