REMARK  Name = ZINC10384398
REMARK  6 active torsions:
REMARK  status: ('A' for Active; 'I' for Inactive)
REMARK    1  A    between atoms: C_2  and  N_9
REMARK    2  A    between atoms: C_10  and  C_12
REMARK    3  A    between atoms: C_12  and  C_13
REMARK    4  A    between atoms: C_26  and  C_27
REMARK    5  A    between atoms: C_26  and  N_66
REMARK    6  A    between atoms: C_32  and  C_35
REMARK                            x       y       z     vdW  Elec       q    Type
REMARK                         _______ _______ _______ _____ _____    ______ ____
ROOT
ATOM      1  C   UNL     1      -3.231   6.540   0.853  0.00  0.00    +0.029 C 
ATOM      2  C   UNL     1      -4.486   7.215   1.328  0.00  0.00    +0.200 C 
ATOM      3  O   UNL     1      -4.691   8.363   0.996  0.00  0.00    -0.278 OA
ATOM      4  N   UNL     1      -5.388   6.600   2.104  0.00  0.00    -0.315 N 
ATOM      5  C   UNL     1      -5.248   5.209   2.515  0.00  0.00    +0.059 C 
ATOM      6  C   UNL     1      -5.738   5.023   3.947  0.00  0.00    +0.021 C 
ATOM      7  C   UNL     1      -4.849   5.810   4.911  0.00  0.00    +0.002 C 
ATOM      8  C   UNL     1      -3.408   5.307   4.789  0.00  0.00    -0.001 C 
ATOM      9  C   UNL     1      -2.917   5.526   3.369  0.00  0.00    -0.013 C 
ATOM     10  C   UNL     1      -3.795   4.759   2.376  0.00  0.00    -0.046 C 
ATOM     11  H   UNL     1      -6.164   7.099   2.403  0.00  0.00    +0.149 HD
ATOM     12  N   UNL     1      -3.364   5.080   1.000  0.00  0.00    +0.396 N 
ATOM     13  H   UNL     1      -4.071   4.739   0.338  0.00  0.00    -0.080 HD
ENDROOT
BRANCH   1  14
ATOM     14  C   UNL     1      -3.005   6.875  -0.623  0.00  0.00    +0.090 C 
BRANCH  14  16
ATOM     15  N   UNL     1      -4.091   6.387  -2.792  0.00  0.00    -0.285 N 
ATOM     16  C   UNL     1      -4.123   6.292  -1.448  0.00  0.00    +0.216 C 
ATOM     17  O   UNL     1      -5.053   5.737  -0.901  0.00  0.00    -0.276 OA
ATOM     18  H   UNL     1      -3.299   6.732  -3.234  0.00  0.00    +0.155 HD
BRANCH  15  20
ATOM     19  C   UNL     1      -5.018   5.463  -4.821  0.00  0.00    +0.043 A 
ATOM     20  C   UNL     1      -5.198   5.989  -3.548  0.00  0.00    +0.036 A 
ATOM     21  C   UNL     1      -6.479   6.113  -3.026  0.00  0.00    +0.043 A 
ATOM     22  C   UNL     1      -7.571   5.724  -3.778  0.00  0.00    +0.044 A 
ATOM     23  C   UNL     1      -7.389   5.200  -5.046  0.00  0.00    +0.040 A 
ATOM     24  C   UNL     1      -6.114   5.070  -5.567  0.00  0.00    +0.044 A 
ATOM     25 CL   UNL     1      -5.889   4.413  -7.158  0.00  0.00    -0.083 Cl
ATOM     26 CL   UNL     1      -9.173   5.886  -3.128  0.00  0.00    -0.083 Cl
ENDBRANCH  15  20
ENDBRANCH  14  16
ENDBRANCH   1  14
BRANCH  12  27
ATOM     27  C   UNL     1      -2.069   4.421   0.704  0.00  0.00    +0.020 C 
BRANCH  27  28
ATOM     28  C   UNL     1      -2.317   2.962   0.423  0.00  0.00    +0.199 C 
ATOM     29  O   UNL     1      -3.452   2.538   0.371  0.00  0.00    -0.278 OA
ATOM     30  N   UNL     1      -1.277   2.127   0.228  0.00  0.00    -0.303 N 
ATOM     31  C   UNL     1      -1.496   0.684   0.060  0.00  0.00    +0.108 C 
ATOM     32  C   UNL     1      -0.625  -0.069   1.071  0.00  0.00    +0.032 C 
ATOM     33  C   UNL     1       0.832   0.369   0.908  0.00  0.00    +0.078 C 
ATOM     34  C   UNL     1       0.951   1.868   1.190  0.00  0.00    +0.032 C 
ATOM     35  C   UNL     1       0.098   2.643   0.180  0.00  0.00    +0.108 C 
BRANCH  33  36
ATOM     36  C   UNL     1       1.697  -0.394   1.878  0.00  0.00    +0.214 C 
ATOM     37  O   UNL     1       1.197  -1.207   2.626  0.00  0.00    -0.276 OA
ATOM     38  N   UNL     1       3.026  -0.173   1.914  0.00  0.00    -0.329 N 
ATOM     39  H   UNL     1       3.426   0.477   1.315  0.00  0.00    +0.145 HD
ATOM     40  H   UNL     1       3.583  -0.665   2.538  0.00  0.00    +0.145 HD
ENDBRANCH  33  36
ENDBRANCH  27  28
ENDBRANCH  12  27
TORSDOF 6
