REMARK  Name = ZINC35710501
REMARK  12 active torsions:
REMARK  status: ('A' for Active; 'I' for Inactive)
REMARK    1  A    between atoms: C_1  and  C_2
REMARK    2  A    between atoms: C_2  and  C_3
REMARK    3  A    between atoms: C_3  and  N_4
REMARK    4  A    between atoms: C_5  and  C_38
REMARK    5  A    between atoms: C_6  and  C_34
REMARK    6  A    between atoms: C_7  and  C_12
REMARK    7  A    between atoms: C_15  and  N_18
REMARK    8  A    between atoms: C_19  and  C_21
REMARK    9  A    between atoms: C_21  and  C_22
REMARK   10  A    between atoms: C_21  and  C_28
REMARK   11  A    between atoms: C_34  and  O_36
REMARK   12  A    between atoms: O_36  and  C_37
REMARK                            x       y       z     vdW  Elec       q    Type
REMARK                         _______ _______ _______ _____ _____    ______ ____
ROOT
ATOM      1  C   UNL     1      -0.609  -5.598  -0.961  0.00  0.00    -0.022 A 
ATOM      2  C   UNL     1      -1.442  -5.171   0.057  0.00  0.00    +0.007 A 
ATOM      3  C   UNL     1      -1.718  -6.007   1.121  0.00  0.00    +0.023 A 
ATOM      4  C   UNL     1      -1.159  -7.277   1.168  0.00  0.00    +0.033 A 
ATOM      5  C   UNL     1      -0.324  -7.703   0.144  0.00  0.00    +0.023 A 
ATOM      6  C   UNL     1      -0.055  -6.865  -0.920  0.00  0.00    +0.007 A 
ENDROOT
BRANCH   1  10
ATOM      7  N   UNL     1      -0.733  -1.952  -2.194  0.00  0.00    -0.259 N 
ATOM      8  C   UNL     1       0.480  -2.390  -1.748  0.00  0.00    +0.024 C 
ATOM      9  C   UNL     1       0.764  -3.709  -1.683  0.00  0.00    +0.078 C 
ATOM     10  C   UNL     1      -0.309  -4.684  -2.121  0.00  0.00    +0.143 C 
ATOM     11  N   UNL     1      -1.583  -4.109  -2.586  0.00  0.00    -0.288 N 
ATOM     12  C   UNL     1      -1.718  -2.768  -2.589  0.00  0.00    +0.307 C 
ATOM     13  O   UNL     1      -2.767  -2.284  -2.967  0.00  0.00    -0.252 OA
ATOM     14  C   UNL     1       1.520  -1.386  -1.321  0.00  0.00    +0.061 C 
ATOM     15  H   UNL     1      -2.308  -4.682  -2.880  0.00  0.00    +0.151 HD
BRANCH   9  16
ATOM     16  C   UNL     1       2.021  -4.165  -1.221  0.00  0.00    +0.339 C 
ATOM     17  O   UNL     1       2.869  -3.363  -0.874  0.00  0.00    -0.245 OA
BRANCH  16  18
ATOM     18  O   UNL     1       2.281  -5.488  -1.165  0.00  0.00    -0.465 OA
ATOM     19  C   UNL     1       3.571  -5.877  -0.689  0.00  0.00    +0.280 C 
ENDBRANCH  16  18
ENDBRANCH   9  16
BRANCH   7  20
ATOM     20  C   UNL     1      -0.973  -0.507  -2.239  0.00  0.00    +0.114 C 
BRANCH  20  22
ATOM     21  C   UNL     1      -0.668   1.571  -3.592  0.00  0.00    +0.005 C 
ATOM     22  C   UNL     1      -0.418   0.062  -3.546  0.00  0.00    +0.016 C 
ENDBRANCH  20  22
ENDBRANCH   7  20
ENDBRANCH   1  10
BRANCH   4  23
ATOM     23  N   UNL     1      -1.437  -8.126   2.245  0.00  0.00    -0.285 N 
ATOM     24  C   UNL     1      -2.656  -8.108   2.820  0.00  0.00    +0.229 C 
ATOM     25  O   UNL     1      -3.483  -7.296   2.463  0.00  0.00    -0.274 OA
ATOM     26  H   UNL     1      -0.752  -8.727   2.578  0.00  0.00    +0.155 HD
BRANCH  24  27
ATOM     27  C   UNL     1      -2.990  -9.097   3.907  0.00  0.00    +0.135 C 
BRANCH  27  28
ATOM     28  C   UNL     1      -4.404  -8.867   4.378  0.00  0.00    -0.031 A 
ATOM     29  C   UNL     1      -4.645  -8.508   5.691  0.00  0.00    +0.005 A 
ATOM     30  C   UNL     1      -5.941  -8.297   6.123  0.00  0.00    +0.000 A 
ATOM     31  C   UNL     1      -6.996  -8.444   5.242  0.00  0.00    +0.000 A 
ATOM     32  C   UNL     1      -6.754  -8.801   3.928  0.00  0.00    +0.000 A 
ATOM     33  C   UNL     1      -5.458  -9.008   3.495  0.00  0.00    +0.005 A 
ENDBRANCH  27  28
BRANCH  27  34
ATOM     34  C   UNL     1      -2.863 -10.498   3.368  0.00  0.00    -0.031 A 
ATOM     35  C   UNL     1      -3.438 -10.827   2.155  0.00  0.00    +0.005 A 
ATOM     36  C   UNL     1      -3.321 -12.113   1.660  0.00  0.00    +0.000 A 
ATOM     37  C   UNL     1      -2.628 -13.069   2.379  0.00  0.00    +0.000 A 
ATOM     38  C   UNL     1      -2.053 -12.740   3.592  0.00  0.00    +0.000 A 
ATOM     39  C   UNL     1      -2.166 -11.454   4.084  0.00  0.00    +0.005 A 
ENDBRANCH  27  34
ENDBRANCH  24  27
ENDBRANCH   4  23
TORSDOF 9
