REMARK  Name = ZINC39914836
REMARK  9 active torsions:
REMARK  status: ('A' for Active; 'I' for Inactive)
REMARK    1  A    between atoms: C_1  and  C_2
REMARK    2  A    between atoms: C_4  and  O_38
REMARK    3  A    between atoms: C_5  and  C_9
REMARK    4  A    between atoms: N_17  and  C_30
REMARK    5  A    between atoms: C_18  and  C_20
REMARK    6  A    between atoms: C_23  and  O_26
REMARK    7  A    between atoms: O_26  and  C_27
REMARK    8  A    between atoms: C_27  and  C_28
REMARK    9  A    between atoms: C_30  and  C_31
REMARK                            x       y       z     vdW  Elec       q    Type
REMARK                         _______ _______ _______ _____ _____    ______ ____
ROOT
ATOM      1  C   UNL     1       0.247  -4.554  -0.109  0.00  0.00    +0.102 A 
ATOM      2  C   UNL     1       0.257  -5.256   1.102  0.00  0.00    +0.035 A 
ATOM      3  C   UNL     1       0.203  -6.594   0.761  0.00  0.00    +0.126 A 
ATOM      4  N   UNL     1       0.164  -6.637  -0.604  0.00  0.00    -0.272 N 
ATOM      5  H   UNL     1       0.122  -7.448  -1.134  0.00  0.00    +0.189 HD
ATOM      6  N   UNL     1       0.186  -5.443  -1.080  0.00  0.00    -0.173 NA
ATOM      7  C   UNL     1       0.209  -7.389   1.994  0.00  0.00    +0.266 C 
ATOM      8  O   UNL     1       0.170  -8.604   2.037  0.00  0.00    -0.268 OA
ATOM      9  N   UNL     1       0.265  -6.585   3.071  0.00  0.00    -0.281 N 
ATOM     10  C   UNL     1       0.299  -5.193   2.604  0.00  0.00    +0.142 C 
ENDROOT
BRANCH   1  15
ATOM     11  C   UNL     1       0.418   1.173  -0.732  0.00  0.00    +0.045 C 
ATOM     12  C   UNL     1       0.376  -0.324  -0.571  0.00  0.00    -0.029 A 
ATOM     13  C   UNL     1       1.195  -1.124  -1.346  0.00  0.00    +0.050 A 
ATOM     14  C   UNL     1       1.159  -2.501  -1.201  0.00  0.00    +0.126 A 
ATOM     15  C   UNL     1       0.292  -3.079  -0.269  0.00  0.00    +0.045 A 
ATOM     16  C   UNL     1      -0.528  -2.266   0.507  0.00  0.00    +0.034 A 
ATOM     17  C   UNL     1      -0.480  -0.893   0.357  0.00  0.00    +0.045 A 
ATOM     18 CL   UNL     1      -1.499   0.120   1.330  0.00  0.00    -0.083 Cl
BRANCH  14  19
ATOM     19  O   UNL     1       1.963  -3.287  -1.964  0.00  0.00    -0.506 OA
ATOM     20  H   UNL     1       2.827  -3.467  -1.568  0.00  0.00    +0.292 HD
ENDBRANCH  14  19
ENDBRANCH   1  15
BRANCH  10  21
ATOM     21  C   UNL     1       1.571  -4.524   3.059  0.00  0.00    -0.022 A 
ATOM     22  C   UNL     1       2.789  -5.143   2.850  0.00  0.00    +0.009 A 
ATOM     23  C   UNL     1       3.956  -4.533   3.267  0.00  0.00    +0.046 A 
ATOM     24  C   UNL     1       3.905  -3.297   3.895  0.00  0.00    +0.121 A 
ATOM     25  C   UNL     1       2.681  -2.677   4.103  0.00  0.00    +0.046 A 
ATOM     26  C   UNL     1       1.518  -3.290   3.680  0.00  0.00    +0.009 A 
BRANCH  24  27
ATOM     27  O   UNL     1       5.052  -2.694   4.306  0.00  0.00    -0.488 OA
BRANCH  27  28
ATOM     28  C   UNL     1       4.923  -1.423   4.946  0.00  0.00    +0.256 C 
BRANCH  28  29
ATOM     29  C   UNL     1       6.288  -0.913   5.329  0.00  0.00    +0.006 C 
ATOM     30  C   UNL     1       6.612   0.334   5.093  0.00  0.00    +0.007 C 
ENDBRANCH  28  29
ENDBRANCH  27  28
ENDBRANCH  24  27
ENDBRANCH  10  21
BRANCH   9  31
ATOM     31  C   UNL     1       0.287  -7.022   4.469  0.00  0.00    +0.144 C 
BRANCH  31  32
ATOM     32  C   UNL     1       1.715  -7.219   4.910  0.00  0.00    -0.030 A 
ATOM     33  C   UNL     1       2.323  -8.450   4.751  0.00  0.00    +0.008 A 
ATOM     34  C   UNL     1       3.632  -8.632   5.155  0.00  0.00    +0.038 A 
ATOM     35  C   UNL     1       4.334  -7.581   5.720  0.00  0.00    +0.123 A 
ATOM     36  C   UNL     1       3.724  -6.348   5.879  0.00  0.00    +0.038 A 
ATOM     37  C   UNL     1       2.416  -6.167   5.469  0.00  0.00    +0.008 A 
ATOM     38  F   UNL     1       5.614  -7.758   6.116  0.00  0.00    -0.205 F 
ENDBRANCH  31  32
ENDBRANCH   9  31
TORSDOF 8
