REMARK  Name = ZINC39689188
REMARK  8 active torsions:
REMARK  status: ('A' for Active; 'I' for Inactive)
REMARK    1  A    between atoms: C_1  and  S_2
REMARK    2  A    between atoms: S_2  and  C_3
REMARK    3  A    between atoms: C_3  and  C_4
REMARK    4  A    between atoms: C_4  and  C_5
REMARK    5  A    between atoms: C_9  and  C_18
REMARK    6  A    between atoms: N_20  and  C_21
REMARK    7  A    between atoms: C_21  and  C_22
REMARK    8  A    between atoms: N_25  and  C_28
REMARK                            x       y       z     vdW  Elec       q    Type
REMARK                         _______ _______ _______ _____ _____    ______ ____
ROOT
ATOM      1  C   UNL     1      -3.496  -2.382  -0.012  0.00  0.00    +0.216 C 
ATOM      2  O   UNL     1      -4.370  -1.544   0.055  0.00  0.00    -0.276 OA
ATOM      3  N   UNL     1      -3.814  -3.692   0.019  0.00  0.00    -0.300 N 
ATOM      4  C   UNL     1      -2.893  -4.851  -0.045  0.00  0.00    +0.121 C 
ATOM      5  C   UNL     1      -3.482  -5.872   0.955  0.00  0.00    +0.100 C 
ATOM      6  C   UNL     1      -4.971  -5.504   1.060  0.00  0.00    -0.004 C 
ATOM      7  C   UNL     1      -5.162  -4.297   0.131  0.00  0.00    +0.115 C 
ATOM      8  C   UNL     1      -5.321  -5.118   2.494  0.00  0.00    -0.010 C 
ATOM      9  C   UNL     1      -6.818  -4.811   2.586  0.00  0.00    -0.082 C 
ATOM     10  N   UNL     1      -7.587  -5.992   2.174  0.00  0.00    +0.379 N 
ATOM     11  C   UNL     1      -7.315  -6.301   0.765  0.00  0.00    -0.082 C 
ATOM     12  C   UNL     1      -5.838  -6.671   0.597  0.00  0.00    -0.010 C 
ATOM     13  H   UNL     1      -7.323  -6.780   2.747  0.00  0.00    -0.086 HD
ATOM     14  H   UNL     1      -8.572  -5.809   2.293  0.00  0.00    -0.086 HD
ENDROOT
BRANCH   5  15
ATOM     15  C   UNL     1      -3.322  -7.275   0.429  0.00  0.00    +0.218 C 
ATOM     16  O   UNL     1      -3.329  -7.478  -0.767  0.00  0.00    -0.275 OA
ATOM     17  N   UNL     1      -3.170  -8.303   1.286  0.00  0.00    -0.315 N 
ATOM     18  H   UNL     1      -3.164  -8.140   2.243  0.00  0.00    +0.149 HD
BRANCH  17  19
ATOM     19  C   UNL     1      -3.014  -9.667   0.775  0.00  0.00    +0.107 C 
BRANCH  19  20
ATOM     20  C   UNL     1      -2.861 -10.637   1.947  0.00  0.00    +0.003 C 
ATOM     21  C   UNL     1      -1.554 -10.341   2.690  0.00  0.00    -0.014 C 
ATOM     22  C   UNL     1      -1.368 -11.365   3.812  0.00  0.00    -0.078 C 
ATOM     23  N   UNL     1      -1.313 -12.717   3.241  0.00  0.00    +0.382 N 
ATOM     24  C   UNL     1      -2.589 -13.034   2.590  0.00  0.00    -0.078 C 
ATOM     25  C   UNL     1      -2.822 -12.075   1.421  0.00  0.00    -0.014 C 
ATOM     26  H   UNL     1      -0.569 -12.764   2.562  0.00  0.00    -0.081 HD
BRANCH  23  27
ATOM     27  C   UNL     1      -1.057 -13.688   4.313  0.00  0.00    -0.069 C 
ATOM     28  C   UNL     1      -0.864 -15.107   3.723  0.00  0.00    -0.015 C 
ATOM     29  C   UNL     1      -0.038 -15.824   4.820  0.00  0.00    -0.002 C 
ATOM     30  C   UNL     1       0.933 -14.741   5.332  0.00  0.00    -0.002 C 
ATOM     31  C   UNL     1       0.285 -13.383   5.009  0.00  0.00    -0.015 C 
ENDBRANCH  23  27
ENDBRANCH  19  20
ENDBRANCH  17  19
ENDBRANCH   5  15
BRANCH   1  32
ATOM     32  C   UNL     1      -2.054  -1.959  -0.131  0.00  0.00    +0.106 C 
BRANCH  32  33
ATOM     33  C   UNL     1      -1.970  -0.432  -0.144  0.00  0.00    +0.078 C 
BRANCH  33  35
ATOM     34  C   UNL     1      -0.308   1.890  -0.288  0.00  0.00    +0.084 C 
ATOM     35  S   UNL     1      -0.235   0.077  -0.287  0.00  0.00    -0.164 S 
ENDBRANCH  33  35
ENDBRANCH  32  33
ENDBRANCH   1  32
TORSDOF 7
