REMARK  Name = ZINC39674827
REMARK  7 active torsions:
REMARK  status: ('A' for Active; 'I' for Inactive)
REMARK    1  A    between atoms: C_1  and  C_2
REMARK    2  A    between atoms: C_4  and  C_14
REMARK    3  A    between atoms: C_7  and  C_12
REMARK    4  A    between atoms: C_14  and  C_15
REMARK    5  A    between atoms: C_15  and  N_16
REMARK    6  A    between atoms: C_17  and  C_19
REMARK    7  A    between atoms: C_30  and  C_32
REMARK                            x       y       z     vdW  Elec       q    Type
REMARK                         _______ _______ _______ _____ _____    ______ ____
ROOT
ATOM      1  C   UNL     1       1.871  -1.013  -6.571  0.00  0.00    +0.100 C 
ATOM      2  C   UNL     1       1.579   0.313  -7.310  0.00  0.00    +0.121 C 
ATOM      3  N   UNL     1       2.874   0.691  -7.924  0.00  0.00    -0.300 N 
ATOM      4  C   UNL     1       3.447  -0.592  -8.397  0.00  0.00    +0.115 C 
ATOM      5  C   UNL     1       3.094  -1.605  -7.290  0.00  0.00    -0.004 C 
ATOM      6  C   UNL     1       2.743  -2.957  -7.904  0.00  0.00    -0.010 C 
ATOM      7  C   UNL     1       3.991  -3.553  -8.562  0.00  0.00    -0.082 C 
ATOM      8  N   UNL     1       5.050  -3.709  -7.558  0.00  0.00    +0.379 N 
ATOM      9  C   UNL     1       5.446  -2.394  -7.040  0.00  0.00    -0.082 C 
ATOM     10  C   UNL     1       4.260  -1.749  -6.317  0.00  0.00    -0.010 C 
ATOM     11  C   UNL     1       3.410   1.923  -8.029  0.00  0.00    +0.219 C 
ATOM     12  O   UNL     1       2.851   2.873  -7.521  0.00  0.00    -0.275 OA
ATOM     13  H   UNL     1       4.710  -4.280  -6.798  0.00  0.00    -0.086 HD
ATOM     14  H   UNL     1       5.849  -4.158  -7.980  0.00  0.00    -0.086 HD
ENDROOT
BRANCH  11  15
ATOM     15  C   UNL     1       4.702   2.122  -8.777  0.00  0.00    +0.079 C 
ATOM     16  C   UNL     1       5.413   3.377  -8.255  0.00  0.00    +0.017 C 
ATOM     17  C   UNL     1       6.798   3.454  -8.903  0.00  0.00    +0.027 C 
ATOM     18  C   UNL     1       6.684   3.274 -10.388  0.00  0.00    -0.031 C 
ATOM     19  C   UNL     1       5.647   2.775 -10.981  0.00  0.00    -0.030 C 
ATOM     20  C   UNL     1       4.410   2.311 -10.268  0.00  0.00    +0.039 C 
ENDBRANCH  11  15
BRANCH   1  22
ATOM     21  N   UNL     1       1.913  -1.679  -4.189  0.00  0.00    -0.315 N 
ATOM     22  C   UNL     1       2.191  -0.747  -5.123  0.00  0.00    +0.218 C 
ATOM     23  O   UNL     1       2.698   0.305  -4.797  0.00  0.00    -0.275 OA
ATOM     24  H   UNL     1       1.508  -2.521  -4.450  0.00  0.00    +0.149 HD
BRANCH  21  25
ATOM     25  C   UNL     1       2.225  -1.421  -2.781  0.00  0.00    +0.108 C 
BRANCH  25  26
ATOM     26  C   UNL     1       1.814  -2.629  -1.938  0.00  0.00    +0.052 C 
BRANCH  26  29
ATOM     27  C   UNL     1       0.398  -3.591   0.814  0.00  0.00    +0.035 C 
ATOM     28  C   UNL     1       1.892  -3.290   0.680  0.00  0.00    +0.103 C 
ATOM     29  C   UNL     1       2.134  -2.363  -0.489  0.00  0.00    -0.037 C 
ATOM     30  C   UNL     1       2.697  -1.243   0.030  0.00  0.00    +0.000 A 
ATOM     31  C   UNL     1       3.140  -0.038  -0.576  0.00  0.00    +0.028 A 
ATOM     32  C   UNL     1       3.687   0.962   0.195  0.00  0.00    +0.052 A 
ATOM     33  C   UNL     1       3.825   0.815   1.640  0.00  0.00    +0.021 A 
ATOM     34  C   UNL     1       3.421  -0.308   2.270  0.00  0.00    +0.027 A 
ATOM     35  C   UNL     1       2.832  -1.405   1.494  0.00  0.00    +0.043 A 
ATOM     36  N   UNL     1       2.372  -2.576   1.868  0.00  0.00    -0.378 N 
ATOM     37  H   UNL     1       2.353  -2.914   2.777  0.00  0.00    +0.160 HD
BRANCH  32  38
ATOM     38  C   UNL     1       4.129   2.171  -0.433  0.00  0.00    +0.099 C 
ATOM     39  N   UNL     1       4.479   3.130  -0.931  0.00  0.00    -0.191 NA
ENDBRANCH  32  38
ENDBRANCH  26  29
ENDBRANCH  25  26
ENDBRANCH  21  25
ENDBRANCH   1  22
TORSDOF 6
