REMARK  Name = ZINC46964390
REMARK  5 active torsions:
REMARK  status: ('A' for Active; 'I' for Inactive)
REMARK    1  A    between atoms: C_1  and  C_2
REMARK    2  A    between atoms: C_2  and  C_4
REMARK    3  A    between atoms: C_2  and  N_10
REMARK    4  A    between atoms: N_8  and  C_9
REMARK    5  A    between atoms: C_17  and  C_19
REMARK                            x       y       z     vdW  Elec       q    Type
REMARK                         _______ _______ _______ _____ _____    ______ ____
ROOT
ATOM      1  N   UNL     1      -1.372  -0.511   0.012  0.00  0.00    -0.290 N 
ATOM      2  C   UNL     1      -2.029  -0.655   1.181  0.00  0.00    +0.303 C 
ATOM      3  O   UNL     1      -1.480  -0.364   2.226  0.00  0.00    -0.253 OA
ATOM      4  N   UNL     1      -3.293  -1.122   1.190  0.00  0.00    -0.278 N 
ATOM      5  C   UNL     1      -4.072  -1.517   0.003  0.00  0.00    +0.110 C 
ATOM      6  C   UNL     1      -5.129  -2.515   0.536  0.00  0.00    +0.021 C 
ATOM      7  C   UNL     1      -5.477  -1.894   1.915  0.00  0.00    +0.029 C 
ATOM      8  C   UNL     1      -4.122  -1.327   2.387  0.00  0.00    +0.114 C 
ATOM      9  H   UNL     1      -1.810  -0.743  -0.822  0.00  0.00    +0.151 HD
ENDROOT
BRANCH   8  10
ATOM     10  C   UNL     1      -4.337  -0.013   3.093  0.00  0.00    +0.010 A 
ATOM     11  C   UNL     1      -4.364   0.247   4.423  0.00  0.00    +0.013 A 
ATOM     12  C   UNL     1      -4.579   1.545   4.848  0.00  0.00    +0.008 A 
ATOM     13  C   UNL     1      -4.758   2.519   3.922  0.00  0.00    +0.045 A 
ATOM     14  S   UNL     1      -4.616   1.606   2.394  0.00  0.00    -0.100 S 
ENDBRANCH   8  10
BRANCH   1  16
ATOM     15  C   UNL     1      -0.019   1.526   0.010  0.00  0.00    +0.036 C 
ATOM     16  C   UNL     1       0.002  -0.004   0.002  0.00  0.00    +0.139 C 
BRANCH  16  17
ATOM     17  C   UNL     1       0.707  -0.490  -1.238  0.00  0.00    +0.153 A 
ATOM     18  N   UNL     1       0.229  -0.486  -2.452  0.00  0.00    -0.133 NA
ATOM     19  N   UNL     1       1.101  -0.972  -3.263  0.00  0.00    -0.138 NA
ATOM     20  C   UNL     1       2.175  -1.307  -2.603  0.00  0.00    +0.224 A 
ATOM     21  N   UNL     1       1.958  -1.007  -1.300  0.00  0.00    -0.319 N 
ATOM     22  C   UNL     1       2.887  -1.203  -0.183  0.00  0.00    +0.151 C 
ENDBRANCH  16  17
ENDBRANCH   1  16
TORSDOF 3
