REMARK  Name = ZINC05339799
REMARK  7 active torsions:
REMARK  status: ('A' for Active; 'I' for Inactive)
REMARK    1  A    between atoms: C_1  and  C_2
REMARK    2  A    between atoms: C_5  and  N_8
REMARK    3  A    between atoms: C_12  and  N_13
REMARK    4  A    between atoms: N_13  and  N_14
REMARK    5  A    between atoms: N_14  and  C_15
REMARK    6  A    between atoms: C_20  and  C_21
REMARK    7  A    between atoms: C_22  and  C_24
REMARK                            x       y       z     vdW  Elec       q    Type
REMARK                         _______ _______ _______ _____ _____    ______ ____
ROOT
ATOM      1  N   UNL     1       0.058  -4.171  -0.021  0.00  0.00    -0.156 N 
ATOM      2  C   UNL     1       0.069  -4.949   1.080  0.00  0.00    +0.273 C 
ATOM      3  O   UNL     1       0.063  -4.577   2.242  0.00  0.00    -0.268 OA
ATOM      4  C   UNL     1       0.087  -6.336   0.597  0.00  0.00    +0.076 C 
ATOM      5  C   UNL     1       0.102  -7.493   1.356  0.00  0.00    +0.102 C 
ATOM      6  C   UNL     1       0.085  -6.226  -0.870  0.00  0.00    +0.070 C 
ATOM      7  N   UNL     1       0.062  -4.964  -1.168  0.00  0.00    -0.176 NA
ATOM      8  C   UNL     1       0.100  -7.373  -1.848  0.00  0.00    +0.068 C 
ENDROOT
BRANCH   1  13
ATOM      9  C   UNL     1      -0.018   1.503   0.010  0.00  0.00    +0.044 C 
ATOM     10  C   UNL     1       0.002  -0.004   0.002  0.00  0.00    -0.050 A 
ATOM     11  C   UNL     1       0.006  -0.687  -1.200  0.00  0.00    +0.005 A 
ATOM     12  C   UNL     1       0.024  -2.068  -1.211  0.00  0.00    +0.026 A 
ATOM     13  C   UNL     1       0.040  -2.771  -0.013  0.00  0.00    +0.060 A 
ATOM     14  C   UNL     1       0.036  -2.081   1.192  0.00  0.00    +0.026 A 
ATOM     15  C   UNL     1       0.023  -0.700   1.197  0.00  0.00    +0.005 A 
ENDBRANCH   1  13
BRANCH   5  16
ATOM     16  N   UNL     1       0.101  -7.416   2.703  0.00  0.00    -0.273 N 
ATOM     17  H   UNL     1       0.090  -6.550   3.139  0.00  0.00    +0.169 HD
BRANCH  16  18
ATOM     18  N   UNL     1       0.116  -8.588   3.471  0.00  0.00    -0.267 N 
ATOM     19  H   UNL     1       0.127  -9.454   3.035  0.00  0.00    +0.170 HD
BRANCH  18  20
ATOM     20  C   UNL     1       0.115  -8.508   4.866  0.00  0.00    +0.047 A 
ATOM     21  C   UNL     1       0.093  -7.268   5.492  0.00  0.00    +0.025 A 
ATOM     22  C   UNL     1       0.093  -7.193   6.871  0.00  0.00    +0.002 A 
ATOM     23  C   UNL     1       0.114  -8.351   7.628  0.00  0.00    +0.000 A 
ATOM     24  C   UNL     1       0.136  -9.586   7.008  0.00  0.00    +0.005 A 
ATOM     25  C   UNL     1       0.130  -9.668   5.629  0.00  0.00    -0.028 A 
ATOM     26  C   UNL     1       0.147 -11.015   4.954  0.00  0.00    +0.046 C 
ENDBRANCH  18  20
ENDBRANCH  16  18
ENDBRANCH   5  16
TORSDOF 4
