REMARK  Name = ZINC12628441
REMARK  6 active torsions:
REMARK  status: ('A' for Active; 'I' for Inactive)
REMARK    1  A    between atoms: C_1  and  O_2
REMARK    2  A    between atoms: O_2  and  C_3
REMARK    3  A    between atoms: C_5  and  C_12
REMARK    4  A    between atoms: C_8  and  O_9
REMARK    5  A    between atoms: O_9  and  C_10
REMARK    6  A    between atoms: C_25  and  N_28
REMARK                            x       y       z     vdW  Elec       q    Type
REMARK                         _______ _______ _______ _____ _____    ______ ____
ROOT
ATOM      1  C   UNL     1       2.430  -2.815   0.037  0.00  0.00    +0.105 C 
ATOM      2  C   UNL     1       3.442  -2.038  -0.778  0.00  0.00    +0.029 C 
ATOM      3  C   UNL     1       4.896  -2.525  -0.774  0.00  0.00    +0.033 C 
ATOM      4  C   UNL     1       5.658  -1.215  -0.989  0.00  0.00    -0.030 C 
ATOM      5  C   UNL     1       4.935  -0.193  -0.543  0.00  0.00    -0.023 C 
ATOM      6  C   UNL     1       3.674  -0.723   0.030  0.00  0.00    +0.049 C 
ATOM      7  C   UNL     1       2.401   0.029  -0.004  0.00  0.00    -0.017 A 
ATOM      8  C   UNL     1       2.373   1.408  -0.005  0.00  0.00    +0.006 A 
ATOM      9  C   UNL     1       1.169   2.086   0.002  0.00  0.00    +0.003 A 
ATOM     10  C   UNL     1      -0.017   1.373   0.010  0.00  0.00    +0.034 A 
ATOM     11  C   UNL     1       0.002  -0.004   0.002  0.00  0.00    +0.147 A 
ATOM     12  C   UNL     1       1.211  -0.703  -0.013  0.00  0.00    +0.062 A 
ATOM     13  N   UNL     1       1.151  -2.094  -0.058  0.00  0.00    -0.335 N 
ATOM     14  H   UNL     1       0.485  -2.449   0.612  0.00  0.00    +0.147 HD
ENDROOT
BRANCH   1  17
ATOM     15  C   UNL     1       2.794  -6.545  -0.440  0.00  0.00    +0.163 A 
ATOM     16  C   UNL     1       2.936  -5.265   0.071  0.00  0.00    +0.055 A 
ATOM     17  C   UNL     1       2.278  -4.206  -0.524  0.00  0.00    -0.022 A 
ATOM     18  C   UNL     1       1.486  -4.417  -1.637  0.00  0.00    +0.024 A 
ATOM     19  C   UNL     1       1.344  -5.692  -2.156  0.00  0.00    +0.063 A 
ATOM     20  C   UNL     1       1.997  -6.759  -1.560  0.00  0.00    +0.175 A 
ATOM     21 BR   UNL     1       0.259  -5.977  -3.678  0.00  0.00    -0.046 Br
BRANCH  15  23
ATOM     22  C   UNL     1       4.238  -7.296   1.294  0.00  0.00    +0.277 C 
ATOM     23  O   UNL     1       3.437  -7.590   0.148  0.00  0.00    -0.491 OA
ENDBRANCH  15  23
BRANCH  20  24
ATOM     24  O   UNL     1       1.859  -8.013  -2.069  0.00  0.00    -0.490 OA
ATOM     25  C   UNL     1       2.800  -8.416  -3.066  0.00  0.00    +0.277 C 
ENDBRANCH  20  24
ENDBRANCH   1  17
BRANCH  11  26
ATOM     26  N   UNL     1      -1.275  -0.752   0.010  0.00  0.00    +0.058 N 
ATOM     27  O   UNL     1      -2.333  -0.150   0.024  0.00  0.00    -0.126 OA
ATOM     28  O   UNL     1      -1.267  -1.970   0.004  0.00  0.00    -0.126 OA
ENDBRANCH  11  26
TORSDOF 4
