REMARK  Name = ZINC66345695
REMARK  5 active torsions:
REMARK  status: ('A' for Active; 'I' for Inactive)
REMARK    1  A    between atoms: C_6  and  N_7
REMARK    2  A    between atoms: C_10  and  C_13
REMARK    3  A    between atoms: C_13  and  N_14
REMARK    4  A    between atoms: N_17  and  C_18
REMARK    5  A    between atoms: C_18  and  C_19
REMARK                            x       y       z     vdW  Elec       q    Type
REMARK                         _______ _______ _______ _____ _____    ______ ____
ROOT
ATOM      1  N   UNL     1      -4.597  -4.037  -0.688  0.00  0.00    -0.299 N 
ATOM      2  C   UNL     1      -5.272  -5.169  -0.409  0.00  0.00    +0.300 C 
ATOM      3  O   UNL     1      -4.773  -6.013   0.310  0.00  0.00    -0.253 OA
ATOM      4  N   UNL     1      -6.500  -5.367  -0.928  0.00  0.00    -0.291 N 
ATOM      5  H   UNL     1      -4.995  -3.364  -1.262  0.00  0.00    +0.150 HD
ATOM      6  H   UNL     1      -6.898  -4.694  -1.502  0.00  0.00    +0.151 HD
ENDROOT
BRANCH   1   7
ATOM      7  C   UNL     1      -3.262  -3.822  -0.125  0.00  0.00    +0.110 C 
BRANCH   7  11
ATOM      8  N   UNL     1      -1.198  -0.721   0.010  0.00  0.00    -0.330 N 
ATOM      9  C   UNL     1      -2.546  -0.134   0.020  0.00  0.00    +0.105 C 
ATOM     10  C   UNL     1      -3.555  -1.302  -0.002  0.00  0.00    +0.025 C 
ATOM     11  C   UNL     1      -2.722  -2.469  -0.594  0.00  0.00    +0.025 C 
ATOM     12  C   UNL     1      -1.323  -2.190   0.003  0.00  0.00    +0.110 C 
BRANCH   8  18
ATOM     13  C   UNL     1      -0.017   1.385   0.010  0.00  0.00    +0.026 A 
ATOM     14  C   UNL     1       1.171   2.090   0.002  0.00  0.00    +0.040 A 
ATOM     15  C   UNL     1       2.379   1.414  -0.013  0.00  0.00    +0.124 A 
ATOM     16  C   UNL     1       2.400   0.030  -0.021  0.00  0.00    +0.040 A 
ATOM     17  C   UNL     1       1.215  -0.680  -0.014  0.00  0.00    +0.026 A 
ATOM     18  C   UNL     1       0.002  -0.004   0.002  0.00  0.00    +0.030 A 
ATOM     19  F   UNL     1       3.539   2.107  -0.020  0.00  0.00    -0.205 F 
ENDBRANCH   8  18
ENDBRANCH   7  11
ENDBRANCH   1   7
BRANCH   4  20
ATOM     20  C   UNL     1      -7.234  -6.598  -0.624  0.00  0.00    +0.201 C 
BRANCH  20  21
ATOM     21  C   UNL     1      -8.570  -6.572  -1.321  0.00  0.00    +0.233 C 
ATOM     22  O   UNL     1      -8.878  -5.618  -2.004  0.00  0.00    -0.274 OA
ATOM     23  N   UNL     1      -9.421  -7.607  -1.185  0.00  0.00    -0.300 N 
ATOM     24  C   UNL     1      -9.064  -8.767  -0.357  0.00  0.00    +0.108 C 
ATOM     25  C   UNL     1     -10.180  -9.005   0.665  0.00  0.00    +0.019 C 
ATOM     26  C   UNL     1     -11.516  -9.145  -0.069  0.00  0.00    +0.003 C 
ATOM     27  C   UNL     1     -11.822  -7.851  -0.825  0.00  0.00    +0.019 C 
ATOM     28  C   UNL     1     -10.727  -7.596  -1.859  0.00  0.00    +0.108 C 
ENDBRANCH  20  21
ENDBRANCH   4  20
TORSDOF 5
