REMARK  Name = ZINC09777240
REMARK  10 active torsions:
REMARK  status: ('A' for Active; 'I' for Inactive)
REMARK    1  A    between atoms: C_1  and  C_2
REMARK    2  A    between atoms: C_4  and  C_47
REMARK    3  A    between atoms: C_6  and  N_8
REMARK    4  A    between atoms: C_9  and  C_11
REMARK    5  A    between atoms: N_22  and  C_39
REMARK    6  A    between atoms: C_23  and  C_25
REMARK    7  A    between atoms: N_27  and  C_28
REMARK    8  A    between atoms: C_33  and  C_38
REMARK    9  A    between atoms: C_35  and  C_37
REMARK   10  A    between atoms: C_39  and  C_40
REMARK                            x       y       z     vdW  Elec       q    Type
REMARK                         _______ _______ _______ _____ _____    ______ ____
ROOT
ATOM      1  C   UNL     1       0.781  -3.016   1.354  0.00  0.00    +0.123 C 
ATOM      2  C   UNL     1       1.676  -3.381   0.125  0.00  0.00    +0.155 C 
ATOM      3  C   UNL     1       0.797  -4.181  -0.843  0.00  0.00    +0.004 C 
ATOM      4  C   UNL     1      -0.059  -3.321  -1.408  0.00  0.00    +0.009 C 
ATOM      5  C   UNL     1       0.268  -2.023  -0.761  0.00  0.00    +0.127 C 
ATOM      6  C   UNL     1      -0.269  -2.090   0.716  0.00  0.00    +0.128 C 
ATOM      7  C   UNL     1      -0.169  -0.646   1.122  0.00  0.00    +0.223 C 
ATOM      8  O   UNL     1      -0.048  -0.243   2.259  0.00  0.00    -0.275 OA
ATOM      9  N   UNL     1      -0.234   0.136   0.014  0.00  0.00    -0.284 N 
ATOM     10  C   UNL     1      -0.252  -0.692  -1.216  0.00  0.00    +0.198 C 
ATOM     11  O   UNL     1       1.706  -2.077  -0.562  0.00  0.00    -0.358 OA
ENDROOT
BRANCH   1  13
ATOM     12  N   UNL     1       1.202  -2.340   3.696  0.00  0.00    -0.285 N 
ATOM     13  C   UNL     1       1.579  -2.285   2.403  0.00  0.00    +0.224 C 
ATOM     14  O   UNL     1       2.560  -1.648   2.084  0.00  0.00    -0.275 OA
ATOM     15  H   UNL     1       0.458  -2.904   3.961  0.00  0.00    +0.155 HD
BRANCH  12  21
ATOM     16  C   UNL     1       5.410  -0.423   5.367  0.00  0.00    +0.044 C 
ATOM     17  C   UNL     1       3.923  -0.639   5.491  0.00  0.00    -0.048 A 
ATOM     18  C   UNL     1       3.232  -0.089   6.555  0.00  0.00    +0.006 A 
ATOM     19  C   UNL     1       1.868  -0.285   6.672  0.00  0.00    -0.048 A 
ATOM     20  C   UNL     1       1.192  -1.031   5.726  0.00  0.00    +0.026 A 
ATOM     21  C   UNL     1       1.884  -1.584   4.656  0.00  0.00    +0.034 A 
ATOM     22  C   UNL     1       3.255  -1.391   4.545  0.00  0.00    +0.026 A 
ATOM     23  C   UNL     1       1.118   0.316   7.833  0.00  0.00    +0.044 C 
ENDBRANCH  12  21
ENDBRANCH   1  13
BRANCH  10  24
ATOM     24  C   UNL     1      -1.656  -0.822  -1.746  0.00  0.00    +0.237 C 
ATOM     25  O   UNL     1      -2.601  -0.587  -1.023  0.00  0.00    -0.274 OA
ATOM     26  N   UNL     1      -1.862  -1.200  -3.023  0.00  0.00    -0.311 N 
ATOM     27  H   UNL     1      -1.106  -1.388  -3.601  0.00  0.00    +0.149 HD
BRANCH  26  28
ATOM     28  C   UNL     1      -3.228  -1.326  -3.538  0.00  0.00    +0.076 C 
ATOM     29  C   UNL     1      -3.777  -2.712  -3.194  0.00  0.00    +0.022 C 
ATOM     30  C   UNL     1      -5.203  -2.844  -3.733  0.00  0.00    +0.002 C 
ATOM     31  C   UNL     1      -5.193  -2.661  -5.252  0.00  0.00    +0.003 C 
ATOM     32  C   UNL     1      -4.644  -1.275  -5.596  0.00  0.00    -0.009 C 
ATOM     33  C   UNL     1      -3.218  -1.143  -5.058  0.00  0.00    +0.009 C 
ATOM     34  C   UNL     1      -2.332  -2.215  -5.694  0.00  0.00    +0.009 C 
ATOM     35  C   UNL     1      -4.635  -1.093  -7.115  0.00  0.00    +0.008 C 
ENDBRANCH  26  28
ENDBRANCH  10  24
BRANCH   9  36
ATOM     36  C   UNL     1      -0.288   1.600   0.032  0.00  0.00    +0.140 C 
BRANCH  36  37
ATOM     37  C   UNL     1       1.134   2.163  -0.011  0.00  0.00    +0.136 C 
ATOM     38  C   UNL     1       1.108   3.701   0.133  0.00  0.00    +0.035 C 
ATOM     39  C   UNL     1       2.233   4.185  -0.809  0.00  0.00    +0.031 C 
ATOM     40  C   UNL     1       2.805   2.882  -1.411  0.00  0.00    +0.160 C 
ATOM     41  O   UNL     1       1.731   1.923  -1.304  0.00  0.00    -0.375 OA
ENDBRANCH  36  37
ENDBRANCH   9  36
TORSDOF 6
