REMARK  Name = ZINC55104294
REMARK  11 active torsions:
REMARK  status: ('A' for Active; 'I' for Inactive)
REMARK    1  A    between atoms: C_1  and  C_2
REMARK    2  A    between atoms: C_2  and  C_3
REMARK    3  A    between atoms: C_2  and  C_4
REMARK    4  A    between atoms: C_8  and  C_28
REMARK    5  A    between atoms: C_9  and  N_10
REMARK    6  A    between atoms: N_10  and  S_11
REMARK    7  A    between atoms: S_11  and  C_14
REMARK    8  A    between atoms: N_22  and  C_27
REMARK    9  A    between atoms: N_25  and  C_26
REMARK   10  A    between atoms: C_28  and  C_29
REMARK   11  A    between atoms: C_28  and  C_30
REMARK                            x       y       z     vdW  Elec       q    Type
REMARK                         _______ _______ _______ _____ _____    ______ ____
ROOT
ATOM      1  S   UNL     1      -1.392  -1.738  -4.111  0.00  0.00    +0.072 S 
ATOM      2  O   UNL     1      -0.393  -2.393  -4.881  0.00  0.00    -0.150 OA
ATOM      3  O   UNL     1      -2.758  -2.126  -4.148  0.00  0.00    -0.150 OA
ENDROOT
BRANCH   1   4
ATOM      4  C   UNL     1      -1.339  -0.035  -4.561  0.00  0.00    +0.109 A 
ATOM      5  C   UNL     1      -2.473   0.750  -4.418  0.00  0.00    +0.031 A 
ATOM      6  C   UNL     1      -2.452   2.086  -4.765  0.00  0.00    +0.028 A 
ATOM      7  C   UNL     1      -1.286   2.650  -5.261  0.00  0.00    +0.058 A 
ATOM      8  C   UNL     1      -0.136   1.855  -5.405  0.00  0.00    +0.065 A 
ATOM      9  C   UNL     1      -0.169   0.509  -5.047  0.00  0.00    +0.044 A 
ATOM     10  C   UNL     1       1.086   2.486  -5.934  0.00  0.00    +0.264 A 
ATOM     11  O   UNL     1       2.108   1.843  -6.080  0.00  0.00    -0.267 OA
ATOM     12  N   UNL     1       1.042   3.798  -6.255  0.00  0.00    -0.263 N 
ATOM     13  C   UNL     1      -0.081   4.515  -6.098  0.00  0.00    +0.332 A 
ATOM     14  O   UNL     1      -0.067   5.692  -6.402  0.00  0.00    -0.246 OA
ATOM     15  N   UNL     1      -1.222   3.988  -5.620  0.00  0.00    -0.296 N 
ATOM     16  C   UNL     1      -2.408   4.836  -5.477  0.00  0.00    +0.154 C 
ATOM     17  C   UNL     1       2.243   4.449  -6.782  0.00  0.00    +0.157 C 
ENDBRANCH   1   4
BRANCH   1  18
ATOM     18  N   UNL     1      -0.913  -1.841  -2.529  0.00  0.00    -0.216 N 
ATOM     19  H   UNL     1      -0.077  -2.278  -2.303  0.00  0.00    +0.174 HD
BRANCH  18  25
ATOM     20  C   UNL     1      -1.310  -0.152  -0.851  0.00  0.00    -0.022 A 
ATOM     21  C   UNL     1      -2.107   0.383   0.142  0.00  0.00    +0.006 A 
ATOM     22  C   UNL     1      -3.302  -0.226   0.475  0.00  0.00    +0.001 A 
ATOM     23  C   UNL     1      -3.705  -1.373  -0.186  0.00  0.00    +0.006 A 
ATOM     24  C   UNL     1      -2.913  -1.913  -1.180  0.00  0.00    -0.022 A 
ATOM     25  C   UNL     1      -1.714  -1.301  -1.520  0.00  0.00    +0.055 A 
BRANCH  20  27
ATOM     26  C   UNL     1      -0.264   1.978  -1.572  0.00  0.00    +0.012 C 
ATOM     27  C   UNL     1      -0.007   0.513  -1.213  0.00  0.00    +0.015 C 
ATOM     28  C   UNL     1       0.951   0.440  -0.023  0.00  0.00    +0.012 C 
ENDBRANCH  20  27
BRANCH  24  29
ATOM     29  C   UNL     1      -3.353  -3.163  -1.898  0.00  0.00    +0.015 C 
ATOM     30  C   UNL     1      -3.461  -4.315  -0.898  0.00  0.00    +0.012 C 
ATOM     31  C   UNL     1      -4.716  -2.924  -2.550  0.00  0.00    +0.012 C 
ENDBRANCH  24  29
ENDBRANCH  18  25
ENDBRANCH   1  18
TORSDOF 5
