REMARK  Name = ZINC67572974
REMARK  5 active torsions:
REMARK  status: ('A' for Active; 'I' for Inactive)
REMARK    1  A    between atoms: C_1  and  C_2
REMARK    2  A    between atoms: C_2  and  C_4
REMARK    3  A    between atoms: C_2  and  N_12
REMARK    4  A    between atoms: N_15  and  C_16
REMARK    5  A    between atoms: C_21  and  N_22
REMARK                            x       y       z     vdW  Elec       q    Type
REMARK                         _______ _______ _______ _____ _____    ______ ____
ROOT
ATOM      1  N   UNL     1       0.762  -0.716  -1.613  0.00  0.00    -0.288 N 
ATOM      2  C   UNL     1       2.100  -0.843  -1.516  0.00  0.00    +0.305 C 
ATOM      3  O   UNL     1       2.689  -0.360  -0.568  0.00  0.00    -0.252 OA
ATOM      4  N   UNL     1       2.785  -1.505  -2.469  0.00  0.00    -0.268 N 
ATOM      5  H   UNL     1       0.292  -1.101  -2.369  0.00  0.00    +0.151 HD
ATOM      6  H   UNL     1       2.309  -1.952  -3.186  0.00  0.00    +0.156 HD
ENDROOT
BRANCH   4   7
ATOM      7  C   UNL     1       4.186  -1.548  -2.424  0.00  0.00    +0.059 A 
ATOM      8  C   UNL     1       4.886  -0.611  -1.680  0.00  0.00    +0.063 A 
ATOM      9  C   UNL     1       6.269  -0.655  -1.636  0.00  0.00    +0.125 A 
ATOM     10  C   UNL     1       6.955  -1.634  -2.335  0.00  0.00    +0.040 A 
ATOM     11  C   UNL     1       6.263  -2.571  -3.079  0.00  0.00    +0.028 A 
ATOM     12  C   UNL     1       4.878  -2.536  -3.123  0.00  0.00    +0.051 A 
ATOM     13  F   UNL     1       6.950   0.258  -0.911  0.00  0.00    -0.205 F 
BRANCH  12  14
ATOM     14  N   UNL     1       4.175  -3.488  -3.873  0.00  0.00    -0.328 N 
ATOM     15  C   UNL     1       3.861  -3.244  -5.287  0.00  0.00    +0.105 C 
ATOM     16  C   UNL     1       4.371  -4.427  -6.116  0.00  0.00    +0.019 C 
ATOM     17  C   UNL     1       3.787  -5.727  -5.558  0.00  0.00    +0.003 C 
ATOM     18  C   UNL     1       4.250  -5.916  -4.111  0.00  0.00    +0.019 C 
ATOM     19  C   UNL     1       3.743  -4.753  -3.261  0.00  0.00    +0.105 C 
ENDBRANCH  12  14
ENDBRANCH   4   7
BRANCH   1  21
ATOM     20  C   UNL     1       0.035   1.502  -0.884  0.00  0.00    +0.038 C 
ATOM     21  C   UNL     1       0.017   0.004  -0.577  0.00  0.00    +0.157 C 
BRANCH  21  22
ATOM     22  C   UNL     1      -1.407  -0.487  -0.549  0.00  0.00    +0.236 C 
ATOM     23  O   UNL     1      -1.897  -0.984  -1.542  0.00  0.00    -0.274 OA
ATOM     24  N   UNL     1      -2.138  -0.373   0.577  0.00  0.00    -0.300 N 
ATOM     25  C   UNL     1      -1.604   0.339   1.747  0.00  0.00    +0.108 C 
ATOM     26  C   UNL     1      -2.610   1.413   2.172  0.00  0.00    +0.019 C 
ATOM     27  C   UNL     1      -3.977   0.764   2.401  0.00  0.00    +0.003 C 
ATOM     28  C   UNL     1      -4.468   0.132   1.097  0.00  0.00    +0.019 C 
ATOM     29  C   UNL     1      -3.486  -0.952   0.657  0.00  0.00    +0.108 C 
ENDBRANCH  21  22
ENDBRANCH   1  21
TORSDOF 4
