REMARK  Name = ZINC01050504
REMARK  2 active torsions:
REMARK  status: ('A' for Active; 'I' for Inactive)
REMARK    1  A    between atoms: C_4  and  C_7
REMARK    2  A    between atoms: N_22  and  C_23
REMARK                            x       y       z     vdW  Elec       q    Type
REMARK                         _______ _______ _______ _____ _____    ______ ____
ROOT
ATOM      1  C   UNL     1      -2.377  -2.746   0.210  0.00  0.00    +0.140 C 
ATOM      2  C   UNL     1      -2.036  -3.219   1.589  0.00  0.00    -0.000 A 
ATOM      3  C   UNL     1      -3.112  -3.626   2.375  0.00  0.00    +0.023 A 
ATOM      4  C   UNL     1      -2.926  -4.085   3.661  0.00  0.00    +0.018 A 
ATOM      5  C   UNL     1      -1.646  -4.142   4.183  0.00  0.00    +0.017 A 
ATOM      6  C   UNL     1      -0.580  -3.741   3.416  0.00  0.00    +0.025 A 
ATOM      7  C   UNL     1      -0.757  -3.271   2.103  0.00  0.00    +0.039 A 
ATOM      8  N   UNL     1       0.398  -2.900   1.456  0.00  0.00    -0.284 N 
ATOM      9  C   UNL     1       0.714  -2.211   0.398  0.00  0.00    +0.235 C 
ATOM     10  O   UNL     1       1.851  -1.793   0.339  0.00  0.00    -0.274 OA
ATOM     11  C   UNL     1      -0.185  -1.884  -0.756  0.00  0.00    +0.206 C 
ATOM     12  N   UNL     1      -1.544  -1.682  -0.284  0.00  0.00    -0.265 N 
ATOM     13  C   UNL     1      -2.052  -0.434  -0.314  0.00  0.00    +0.308 C 
ATOM     14  O   UNL     1      -3.155  -0.215   0.149  0.00  0.00    -0.252 OA
ATOM     15  N   UNL     1      -1.338   0.571  -0.859  0.00  0.00    -0.269 N 
ATOM     16 BR   UNL     1      -4.407  -4.632   4.702  0.00  0.00    -0.050 Br
ATOM     17  H   UNL     1       1.186  -3.243   1.907  0.00  0.00    +0.155 HD
ATOM     18  H   UNL     1      -0.478   0.389  -1.268  0.00  0.00    +0.156 HD
ENDROOT
BRANCH  15  19
ATOM     19  C   UNL     1      -1.838   1.877  -0.833  0.00  0.00    +0.035 A 
ATOM     20  C   UNL     1      -3.213   2.096  -0.980  0.00  0.00    +0.024 A 
ATOM     21  C   UNL     1      -3.726   3.354  -0.953  0.00  0.00    +0.010 A 
ATOM     22  C   UNL     1      -2.870   4.458  -0.787  0.00  0.00    -0.018 A 
ATOM     23  C   UNL     1      -3.373   5.770  -0.762  0.00  0.00    +0.008 A 
ATOM     24  C   UNL     1      -2.518   6.816  -0.601  0.00  0.00    +0.001 A 
ATOM     25  C   UNL     1      -1.147   6.608  -0.460  0.00  0.00    +0.001 A 
ATOM     26  C   UNL     1      -0.624   5.351  -0.479  0.00  0.00    +0.008 A 
ATOM     27  C   UNL     1      -1.476   4.245  -0.644  0.00  0.00    -0.016 A 
ATOM     28  C   UNL     1      -0.971   2.935  -0.669  0.00  0.00    +0.031 A 
ENDBRANCH  15  19
BRANCH   1  32
ATOM     29  C   UNL     1      -2.069  -6.059  -2.469  0.00  0.00    +0.000 A 
ATOM     30  C   UNL     1      -1.151  -5.908  -1.447  0.00  0.00    +0.000 A 
ATOM     31  C   UNL     1      -1.250  -4.837  -0.580  0.00  0.00    +0.006 A 
ATOM     32  C   UNL     1      -2.268  -3.914  -0.736  0.00  0.00    -0.022 A 
ATOM     33  C   UNL     1      -3.190  -4.067  -1.754  0.00  0.00    +0.006 A 
ATOM     34  C   UNL     1      -3.088  -5.137  -2.624  0.00  0.00    +0.000 A 
ENDBRANCH   1  32
TORSDOF 2
