REMARK  Name = ZINC05361220
REMARK  6 active torsions:
REMARK  status: ('A' for Active; 'I' for Inactive)
REMARK    1  A    between atoms: C_1  and  C_2
REMARK    2  A    between atoms: C_3  and  C_22
REMARK    3  A    between atoms: C_7  and  N_11
REMARK    4  A    between atoms: N_11  and  N_12
REMARK    5  A    between atoms: C_13  and  C_14
REMARK    6  A    between atoms: C_19  and  O_20
REMARK                            x       y       z     vdW  Elec       q    Type
REMARK                         _______ _______ _______ _____ _____    ______ ____
ROOT
ATOM      1  N   UNL     1       0.261   1.092   2.839  0.00  0.00    -0.220 N 
ATOM      2  H   UNL     1       0.109   1.724   2.119  0.00  0.00    +0.176 HD
ENDROOT
BRANCH   1   9
ATOM      3  C   UNL     1      -1.598   1.383   0.669  0.00  0.00    +0.045 C 
ATOM      4  C   UNL     1      -1.425  -0.112   0.598  0.00  0.00    -0.028 A 
ATOM      5  C   UNL     1      -2.081  -0.827  -0.329  0.00  0.00    -0.008 A 
ATOM      6  S   UNL     1      -1.557  -2.501  -0.011  0.00  0.00    -0.074 S 
ATOM      7  C   UNL     1      -0.471  -2.195   1.357  0.00  0.00    +0.114 A 
ATOM      8  C   UNL     1      -0.542  -0.795   1.526  0.00  0.00    +0.052 A 
ATOM      9  C   UNL     1       0.255  -0.267   2.579  0.00  0.00    +0.150 A 
ATOM     10  N   UNL     1       0.992  -1.092   3.307  0.00  0.00    -0.219 NA
ATOM     11  C   UNL     1       1.013  -2.394   3.088  0.00  0.00    +0.224 A 
ATOM     12  N   UNL     1       0.288  -2.943   2.133  0.00  0.00    -0.228 NA
ATOM     13  C   UNL     1      -3.035  -0.333  -1.386  0.00  0.00    +0.052 C 
ENDBRANCH   1   9
BRANCH   1  14
ATOM     14  N   UNL     1       0.486   1.554   4.142  0.00  0.00    -0.189 NA
ATOM     15  C   UNL     1       0.492   2.829   4.386  0.00  0.00    +0.142 C 
BRANCH  15  16
ATOM     16  C   UNL     1       0.729   3.316   5.757  0.00  0.00    +0.037 A 
ATOM     17  C   UNL     1       0.730   4.687   6.025  0.00  0.00    +0.028 A 
ATOM     18  C   UNL     1       0.953   5.136   7.311  0.00  0.00    +0.019 A 
ATOM     19  C   UNL     1       1.175   4.232   8.337  0.00  0.00    +0.019 A 
ATOM     20  C   UNL     1       1.177   2.873   8.084  0.00  0.00    +0.047 A 
ATOM     21  C   UNL     1       0.949   2.406   6.800  0.00  0.00    +0.126 A 
ATOM     22 BR   UNL     1       0.955   6.992   7.673  0.00  0.00    -0.050 Br
BRANCH  21  23
ATOM     23  O   UNL     1       0.944   1.070   6.552  0.00  0.00    -0.506 OA
ATOM     24  H   UNL     1       1.811   0.710   6.320  0.00  0.00    +0.292 HD
ENDBRANCH  21  23
ENDBRANCH  15  16
ENDBRANCH   1  14
TORSDOF 4
