REMARK  Name = ZINC18250094
REMARK  2 active torsions:
REMARK  status: ('A' for Active; 'I' for Inactive)
REMARK    1  A    between atoms: C_16  and  C_19
REMARK    2  A    between atoms: N_28  and  C_31
REMARK                            x       y       z     vdW  Elec       q    Type
REMARK                         _______ _______ _______ _____ _____    ______ ____
ROOT
ATOM      1  C   UNL     1       0.583  -0.122  -1.085  0.00  0.00    +0.001 A 
ATOM      2  C   UNL     1      -0.526   0.703  -1.021  0.00  0.00    +0.001 A 
ATOM      3  C   UNL     1      -0.379   2.057  -0.791  0.00  0.00    +0.012 A 
ATOM      4  C   UNL     1       0.894   2.603  -0.618  0.00  0.00    +0.031 A 
ATOM      5  C   UNL     1       2.023   1.763  -0.681  0.00  0.00    +0.031 A 
ATOM      6  C   UNL     1       1.852   0.398  -0.918  0.00  0.00    +0.012 A 
ATOM      7  C   UNL     1       3.248   2.557  -0.464  0.00  0.00    +0.204 C 
ATOM      8  O   UNL     1       4.386   2.139  -0.452  0.00  0.00    -0.288 OA
ATOM      9  C   UNL     1       2.818   3.983  -0.263  0.00  0.00    +0.206 C 
ATOM     10  C   UNL     1       1.318   3.994  -0.363  0.00  0.00    +0.204 C 
ATOM     11  O   UNL     1       0.595   4.961  -0.256  0.00  0.00    -0.288 OA
ATOM     12  C   UNL     1       3.283   4.513   1.103  0.00  0.00    +0.138 C 
ATOM     13  C   UNL     1       3.635   6.002   0.819  0.00  0.00    +0.125 C 
ATOM     14  C   UNL     1       3.320   6.177  -0.683  0.00  0.00    +0.163 C 
ATOM     15  O   UNL     1       3.411   4.848  -1.243  0.00  0.00    -0.348 OA
ATOM     16  C   UNL     1       2.624   6.777   1.632  0.00  0.00    +0.233 C 
ATOM     17  O   UNL     1       2.557   7.986   1.697  0.00  0.00    -0.274 OA
ATOM     18  N   UNL     1       1.815   5.923   2.269  0.00  0.00    -0.210 N 
ATOM     19  C   UNL     1       2.084   4.632   2.046  0.00  0.00    +0.234 C 
ATOM     20  O   UNL     1       1.476   3.698   2.523  0.00  0.00    -0.274 OA
ENDROOT
BRANCH  18  21
ATOM     21  C   UNL     1       0.769   6.347   3.102  0.00  0.00    +0.045 A 
ATOM     22  C   UNL     1       0.825   6.103   4.467  0.00  0.00    +0.025 A 
ATOM     23  C   UNL     1      -0.203   6.526   5.287  0.00  0.00    +0.023 A 
ATOM     24  C   UNL     1      -1.294   7.183   4.747  0.00  0.00    +0.059 A 
ATOM     25  C   UNL     1      -1.356   7.423   3.384  0.00  0.00    +0.061 A 
ATOM     26  C   UNL     1      -0.326   7.006   2.561  0.00  0.00    +0.045 A 
ATOM     27 CL   UNL     1      -2.726   8.248   2.710  0.00  0.00    -0.082 Cl
ATOM     28 CL   UNL     1      -2.588   7.708   5.779  0.00  0.00    -0.082 Cl
ENDBRANCH  18  21
BRANCH  14  29
ATOM     29  C   UNL     1       4.332   7.088  -1.327  0.00  0.00    -0.015 A 
ATOM     30  C   UNL     1       5.558   6.586  -1.726  0.00  0.00    +0.006 A 
ATOM     31  C   UNL     1       6.486   7.419  -2.322  0.00  0.00    +0.003 A 
ATOM     32  C   UNL     1       6.194   8.757  -2.511  0.00  0.00    +0.038 A 
ATOM     33  C   UNL     1       4.969   9.261  -2.108  0.00  0.00    +0.124 A 
ATOM     34  C   UNL     1       4.038   8.425  -1.516  0.00  0.00    +0.044 A 
ATOM     35  F   UNL     1       4.683  10.569  -2.292  0.00  0.00    -0.205 F 
ENDBRANCH  14  29
TORSDOF 2
