REMARK  Name = ZINC20690295
REMARK  7 active torsions:
REMARK  status: ('A' for Active; 'I' for Inactive)
REMARK    1  A    between atoms: C_1  and  C_2
REMARK    2  A    between atoms: N_5  and  S_8
REMARK    3  A    between atoms: S_8  and  C_11
REMARK    4  A    between atoms: C_24  and  C_27
REMARK    5  A    between atoms: C_30  and  O_34
REMARK    6  A    between atoms: C_31  and  O_33
REMARK    7  A    between atoms: O_34  and  C_35
REMARK                            x       y       z     vdW  Elec       q    Type
REMARK                         _______ _______ _______ _____ _____    ______ ____
ROOT
ATOM      1  C   UNL     1       0.601   4.379   0.446  0.00  0.00    +0.106 A 
ATOM      2  C   UNL     1       0.976   3.052   0.341  0.00  0.00    +0.030 A 
ATOM      3  C   UNL     1       0.017   2.068   0.217  0.00  0.00    +0.025 A 
ATOM      4  C   UNL     1      -1.332   2.402   0.193  0.00  0.00    +0.031 A 
ATOM      5  C   UNL     1      -1.704   3.748   0.291  0.00  0.00    -0.018 A 
ATOM      6  C   UNL     1      -0.738   4.723   0.418  0.00  0.00    +0.034 A 
ATOM      7  C   UNL     1      -3.148   4.062   0.236  0.00  0.00    +0.049 C 
ATOM      8  C   UNL     1      -3.708   5.288   0.862  0.00  0.00    -0.023 C 
ATOM      9  C   UNL     1      -4.945   5.029   1.269  0.00  0.00    -0.030 C 
ATOM     10  C   UNL     1      -5.300   3.571   0.969  0.00  0.00    +0.033 C 
ATOM     11  C   UNL     1      -3.914   2.913   0.956  0.00  0.00    +0.029 C 
ATOM     12  C   UNL     1      -3.735   1.691   0.073  0.00  0.00    +0.105 C 
ATOM     13  N   UNL     1      -2.288   1.383   0.107  0.00  0.00    -0.336 N 
ATOM     14  H   UNL     1      -1.948   0.338   0.064  0.00  0.00    +0.147 HD
ENDROOT
BRANCH  12  15
ATOM     15  C   UNL     1      -4.168   2.001  -1.337  0.00  0.00    -0.023 A 
ATOM     16  C   UNL     1      -3.247   2.474  -2.254  0.00  0.00    +0.009 A 
ATOM     17  C   UNL     1      -3.640   2.759  -3.548  0.00  0.00    +0.050 A 
ATOM     18  C   UNL     1      -4.959   2.571  -3.929  0.00  0.00    +0.161 A 
ATOM     19  C   UNL     1      -5.885   2.094  -3.007  0.00  0.00    +0.159 A 
ATOM     20  C   UNL     1      -5.484   1.806  -1.713  0.00  0.00    +0.054 A 
BRANCH  19  21
ATOM     21  O   UNL     1      -7.181   1.908  -3.377  0.00  0.00    -0.503 OA
ATOM     22  H   UNL     1      -7.912   1.532  -2.647  0.00  0.00    +0.292 HD
ENDBRANCH  19  21
BRANCH  18  23
ATOM     23  O   UNL     1      -5.346   2.851  -5.202  0.00  0.00    -0.491 OA
ATOM     24  C   UNL     1      -4.341   3.337  -6.095  0.00  0.00    +0.277 C 
ENDBRANCH  18  23
ENDBRANCH  12  15
BRANCH   1  25
ATOM     25  S   UNL     1       1.829   5.632   0.614  0.00  0.00    +0.061 S 
ATOM     26  O   UNL     1       1.196   6.739   1.241  0.00  0.00    -0.153 OA
ATOM     27  O   UNL     1       2.979   5.002   1.161  0.00  0.00    -0.153 OA
BRANCH  25  32
ATOM     28  C   UNL     1       1.694   5.757  -5.117  0.00  0.00    +0.007 C 
ATOM     29  C   UNL     1       2.190   6.202  -3.740  0.00  0.00    -0.012 C 
ATOM     30  C   UNL     1       1.014   6.750  -2.928  0.00  0.00    +0.020 C 
ATOM     31  C   UNL     1       1.520   7.227  -1.563  0.00  0.00    +0.110 C 
ATOM     32  N   UNL     1       2.239   6.123  -0.913  0.00  0.00    -0.177 NA
ATOM     33  C   UNL     1       3.334   5.468  -1.642  0.00  0.00    +0.110 C 
ATOM     34  C   UNL     1       2.804   5.007  -3.008  0.00  0.00    +0.020 C 
ENDBRANCH  25  32
ENDBRANCH   1  25
TORSDOF 5
