REMARK  Name = ZINC64771978
REMARK  9 active torsions:
REMARK  status: ('A' for Active; 'I' for Inactive)
REMARK    1  A    between atoms: C_1  and  C_2
REMARK    2  A    between atoms: C_7  and  C_12
REMARK    3  A    between atoms: C_12  and  N_13
REMARK    4  A    between atoms: C_14  and  C_16
REMARK    5  A    between atoms: N_21  and  S_23
REMARK    6  A    between atoms: S_23  and  C_26
REMARK    7  A    between atoms: C_28  and  C_32
REMARK    8  A    between atoms: C_30  and  C_31
REMARK    9  A    between atoms: C_34  and  C_37
REMARK                            x       y       z     vdW  Elec       q    Type
REMARK                         _______ _______ _______ _____ _____    ______ ____
ROOT
ATOM      1  C   UNL     1       5.014  -4.061   0.692  0.00  0.00    +0.091 C 
ATOM      2  C   UNL     1       5.212  -4.163  -0.823  0.00  0.00    +0.015 C 
ATOM      3  C   UNL     1       6.535  -3.499  -1.212  0.00  0.00    +0.018 C 
ATOM      4  C   UNL     1       7.691  -4.232  -0.523  0.00  0.00    +0.109 C 
ATOM      5  N   UNL     1       7.435  -4.265   0.923  0.00  0.00    -0.176 NA
ATOM      6  C   UNL     1       6.153  -4.800   1.402  0.00  0.00    +0.122 C 
ENDROOT
BRANCH   1   8
ATOM      7  N   UNL     1       2.548  -4.198   0.559  0.00  0.00    -0.311 N 
ATOM      8  C   UNL     1       3.696  -4.686   1.070  0.00  0.00    +0.218 C 
ATOM      9  O   UNL     1       3.668  -5.628   1.833  0.00  0.00    -0.275 OA
ATOM     10  H   UNL     1       2.571  -3.445  -0.051  0.00  0.00    +0.149 HD
BRANCH   7  11
ATOM     11  C   UNL     1       1.267  -4.805   0.927  0.00  0.00    +0.150 C 
BRANCH  11  18
ATOM     12  C   UNL     1       0.718   1.377  -2.320  0.00  0.00    +0.044 C 
ATOM     13  C   UNL     1       0.616  -0.103  -2.059  0.00  0.00    -0.048 A 
ATOM     14  C   UNL     1       0.724  -0.989  -3.146  0.00  0.00    +0.005 A 
ATOM     15  C   UNL     1       0.644  -2.327  -3.003  0.00  0.00    +0.027 A 
ATOM     16  C   UNL     1       0.438  -2.903  -1.667  0.00  0.00    +0.060 A 
ATOM     17  N   UNL     1       0.325  -4.127  -1.239  0.00  0.00    -0.362 N 
ATOM     18  C   UNL     1       0.130  -4.068   0.215  0.00  0.00    +0.191 C 
ATOM     19  N   UNL     1       0.146  -2.646   0.578  0.00  0.00    -0.362 N 
ATOM     20  C   UNL     1       0.325  -1.965  -0.517  0.00  0.00    +0.060 A 
ATOM     21  C   UNL     1       0.432  -0.526  -0.793  0.00  0.00    +0.030 A 
ATOM     22  H   UNL     1       0.361  -4.931  -1.781  0.00  0.00    +0.162 HD
ATOM     23  H   UNL     1       0.041  -2.280   1.470  0.00  0.00    +0.162 HD
ENDBRANCH  11  18
ENDBRANCH   7  11
ENDBRANCH   1   8
BRANCH   5  24
ATOM     24  S   UNL     1       8.570  -3.710   1.994  0.00  0.00    +0.062 S 
ATOM     25  O   UNL     1       9.305  -2.698   1.319  0.00  0.00    -0.153 OA
ATOM     26  O   UNL     1       7.890  -3.470   3.218  0.00  0.00    -0.153 OA
BRANCH  24  27
ATOM     27  C   UNL     1       9.694  -5.034   2.294  0.00  0.00    +0.116 A 
ATOM     28  C   UNL     1      11.016  -4.922   1.926  0.00  0.00    +0.048 A 
ATOM     29  C   UNL     1      11.860  -5.972   2.175  0.00  0.00    +0.062 A 
ATOM     30  S   UNL     1      10.763  -7.149   2.950  0.00  0.00    -0.088 S 
ATOM     31  C   UNL     1       9.268  -6.175   2.897  0.00  0.00    +0.014 A 
ATOM     32  C   UNL     1       7.889  -6.527   3.391  0.00  0.00    +0.053 C 
BRANCH  29  33
ATOM     33  C   UNL     1      13.302  -6.098   1.880  0.00  0.00    +0.209 A 
ATOM     34  N   UNL     1      14.069  -7.170   2.151  0.00  0.00    -0.191 NA
ATOM     35  C   UNL     1      15.293  -6.952   1.762  0.00  0.00    +0.225 A 
ATOM     36  O   UNL     1      15.358  -5.728   1.224  0.00  0.00    -0.338 OA
ATOM     37  N   UNL     1      14.048  -5.184   1.303  0.00  0.00    -0.056 NA
ATOM     38  C   UNL     1      16.443  -7.917   1.896  0.00  0.00    +0.112 C 
ENDBRANCH  29  33
ENDBRANCH  24  27
ENDBRANCH   5  24
TORSDOF 6
