REMARK  Name = ZINC67536834
REMARK  5 active torsions:
REMARK  status: ('A' for Active; 'I' for Inactive)
REMARK    1  A    between atoms: C_3  and  C_10
REMARK    2  A    between atoms: C_5  and  N_7
REMARK    3  A    between atoms: C_10  and  N_11
REMARK    4  A    between atoms: C_17  and  C_20
REMARK    5  A    between atoms: C_23  and  O_26
REMARK                            x       y       z     vdW  Elec       q    Type
REMARK                         _______ _______ _______ _____ _____    ______ ____
ROOT
ATOM      1  N   UNL     1       4.106   2.424   1.356  0.00  0.00    -0.295 N 
ATOM      2  C   UNL     1       5.246   3.102   1.594  0.00  0.00    +0.303 C 
ATOM      3  O   UNL     1       5.961   3.433   0.668  0.00  0.00    -0.253 OA
ATOM      4  N   UNL     1       5.593   3.414   2.858  0.00  0.00    -0.282 N 
ATOM      5  C   UNL     1       6.771   4.251   3.145  0.00  0.00    +0.114 C 
ATOM      6  C   UNL     1       6.287   5.525   3.842  0.00  0.00    +0.054 C 
ATOM      7  C   UNL     1       5.297   5.189   4.918  0.00  0.00    -0.041 C 
ATOM      8  C   UNL     1       4.640   4.056   4.992  0.00  0.00    -0.004 C 
ATOM      9  C   UNL     1       4.808   2.938   4.006  0.00  0.00    +0.137 C 
ATOM     10  H   UNL     1       3.573   2.096   2.097  0.00  0.00    +0.151 HD
ENDROOT
BRANCH   7  11
ATOM     11  C   UNL     1       5.046   6.201   5.964  0.00  0.00    -0.022 A 
ATOM     12  C   UNL     1       4.452   7.420   5.631  0.00  0.00    +0.012 A 
ATOM     13  C   UNL     1       4.219   8.362   6.610  0.00  0.00    +0.046 A 
ATOM     14  C   UNL     1       4.574   8.100   7.927  0.00  0.00    +0.117 A 
ATOM     15  C   UNL     1       5.166   6.889   8.262  0.00  0.00    +0.046 A 
ATOM     16  C   UNL     1       5.396   5.939   7.290  0.00  0.00    +0.012 A 
BRANCH  14  17
ATOM     17  O   UNL     1       4.343   9.030   8.889  0.00  0.00    -0.507 OA
ATOM     18  H   UNL     1       3.478   8.951   9.313  0.00  0.00    +0.292 HD
ENDBRANCH  14  17
ENDBRANCH   7  11
BRANCH   1  19
ATOM     19  C   UNL     1       3.672   2.182  -0.022  0.00  0.00    +0.141 C 
BRANCH  19  22
ATOM     20  C   UNL     1      -0.016   1.373   0.013  0.00  0.00    +0.003 A 
ATOM     21  C   UNL     1       1.171   2.082   0.005  0.00  0.00    +0.005 A 
ATOM     22  C   UNL     1       2.378   1.409  -0.013  0.00  0.00    -0.028 A 
ATOM     23  C   UNL     1       2.399   0.027  -0.022  0.00  0.00    +0.038 A 
ATOM     24  C   UNL     1       1.213  -0.682  -0.014  0.00  0.00    +0.127 A 
ATOM     25  C   UNL     1       0.005  -0.009   0.003  0.00  0.00    +0.033 A 
BRANCH  24  26
ATOM     26  N   UNL     1       1.235  -2.162  -0.025  0.00  0.00    +0.056 N 
ATOM     27  O   UNL     1       2.291  -2.751  -0.041  0.00  0.00    -0.126 OA
ATOM     28  O   UNL     1       0.197  -2.783  -0.017  0.00  0.00    -0.126 OA
ENDBRANCH  24  26
ENDBRANCH  19  22
ENDBRANCH   1  19
TORSDOF 5
