REMARK  Name = ZINC08326589
REMARK  3 active torsions:
REMARK  status: ('A' for Active; 'I' for Inactive)
REMARK    1  A    between atoms: C_6  and  C_7
REMARK    2  A    between atoms: C_10  and  C_12
REMARK    3  A    between atoms: C_12  and  N_13
REMARK                            x       y       z     vdW  Elec       q    Type
REMARK                         _______ _______ _______ _____ _____    ______ ____
ROOT
ATOM      1  C   UNL     1       1.661   4.191   0.008  0.00  0.00    +0.214 C 
ENDROOT
BRANCH   1   2
ATOM      2  N   UNL     1       0.707   3.079   0.011  0.00  0.00    -0.215 N 
ATOM      3  C   UNL     1      -0.634   3.231   0.024  0.00  0.00    +0.247 C 
ATOM      4  O   UNL     1      -1.255   4.272   0.035  0.00  0.00    -0.273 OA
ATOM      5  C   UNL     1      -1.199   1.829   0.017  0.00  0.00    +0.113 C 
ATOM      6  C   UNL     1      -2.026   1.585   1.274  0.00  0.00    +0.035 C 
ATOM      7  C   UNL     1      -2.558   0.149   1.265  0.00  0.00    +0.003 C 
ATOM      8  C   UNL     1      -3.417  -0.067   0.017  0.00  0.00    +0.000 C 
ATOM      9  C   UNL     1      -2.569   0.161  -1.235  0.00  0.00    +0.003 C 
ATOM     10  C   UNL     1      -2.038   1.597  -1.235  0.00  0.00    +0.035 C 
ATOM     11  N   UNL     1      -0.011   0.966   0.007  0.00  0.00    -0.285 N 
ATOM     12  C   UNL     1       1.056   1.787   0.002  0.00  0.00    +0.310 C 
ATOM     13  O   UNL     1       2.208   1.399  -0.011  0.00  0.00    -0.252 OA
ATOM     14  H   UNL     1       0.002  -0.004   0.002  0.00  0.00    +0.151 HD
ENDBRANCH   1   2
BRANCH   1  18
ATOM     15  C   UNL     1       2.921   4.669  -3.368  0.00  0.00    +0.155 A 
ATOM     16  C   UNL     1       1.887   5.548  -3.333  0.00  0.00    +0.161 A 
ATOM     17  N   UNL     1       1.328   5.466  -2.116  0.00  0.00    -0.220 NA
ATOM     18  C   UNL     1       1.975   4.579  -1.413  0.00  0.00    +0.214 A 
ATOM     19  O   UNL     1       2.969   4.072  -2.157  0.00  0.00    -0.438 OA
BRANCH  15  25
ATOM     20  C   UNL     1       3.653   5.115  -5.707  0.00  0.00    +0.013 A 
ATOM     21  C   UNL     1       4.503   4.880  -6.768  0.00  0.00    +0.021 A 
ATOM     22  C   UNL     1       5.519   3.946  -6.651  0.00  0.00    +0.041 A 
ATOM     23  C   UNL     1       5.691   3.247  -5.468  0.00  0.00    +0.021 A 
ATOM     24  C   UNL     1       4.850   3.477  -4.399  0.00  0.00    +0.013 A 
ATOM     25  C   UNL     1       3.825   4.417  -4.511  0.00  0.00    +0.019 A 
ATOM     26 CL   UNL     1       6.580   3.650  -7.992  0.00  0.00    -0.084 Cl
ENDBRANCH  15  25
ENDBRANCH   1  18
TORSDOF 3
