REMARK  Name = ZINC39430412
REMARK  10 active torsions:
REMARK  status: ('A' for Active; 'I' for Inactive)
REMARK    1  A    between atoms: C_1  and  O_2
REMARK    2  A    between atoms: O_2  and  C_3
REMARK    3  A    between atoms: C_3  and  C_5
REMARK    4  A    between atoms: N_7  and  C_10
REMARK    5  A    between atoms: C_13  and  C_25
REMARK    6  A    between atoms: N_15  and  C_17
REMARK    7  A    between atoms: C_17  and  C_18
REMARK    8  A    between atoms: N_27  and  C_28
REMARK    9  A    between atoms: C_28  and  C_29
REMARK   10  A    between atoms: C_29  and  C_30
REMARK                            x       y       z     vdW  Elec       q    Type
REMARK                         _______ _______ _______ _____ _____    ______ ____
ROOT
ATOM      1  C   UNL     1       1.585  -5.221   2.552  0.00  0.00    +0.074 C 
ATOM      2  C   UNL     1       2.487  -6.156   1.704  0.00  0.00    +0.016 C 
ATOM      3  C   UNL     1       2.333  -7.520   2.409  0.00  0.00    +0.021 C 
ATOM      4  N   UNL     1       1.067  -7.482   3.163  0.00  0.00    +0.391 N 
ATOM      5  C   UNL     1       0.423  -6.170   2.937  0.00  0.00    -0.053 C 
ATOM      6  H   UNL     1       1.253  -7.603   4.147  0.00  0.00    -0.080 HD
ENDROOT
BRANCH   1   9
ATOM      7  C   UNL     1       0.678  -2.028   1.091  0.00  0.00    +0.142 C 
ATOM      8  C   UNL     1       1.258  -2.767   2.063  0.00  0.00    +0.121 C 
ATOM      9  N   UNL     1       1.099  -4.094   1.753  0.00  0.00    -0.255 N 
ATOM     10  N   UNL     1       0.414  -4.191   0.576  0.00  0.00    -0.160 NA
ATOM     11  N   UNL     1       0.134  -2.924   0.144  0.00  0.00    -0.257 N 
ATOM     12  H   UNL     1      -0.434  -4.724   0.695  0.00  0.00    +0.168 HD
ATOM     13  H   UNL     1      -0.347  -2.686  -0.664  0.00  0.00    +0.168 HD
BRANCH   7  14
ATOM     14  C   UNL     1       0.622  -0.614   1.034  0.00  0.00    +0.355 C 
ATOM     15  O   UNL     1       1.131   0.051   1.917  0.00  0.00    -0.243 OA
BRANCH  14  17
ATOM     16  C   UNL     1      -0.017   1.425   0.010  0.00  0.00    +0.280 C 
ATOM     17  O   UNL     1       0.002  -0.004   0.002  0.00  0.00    -0.464 OA
ENDBRANCH  14  17
ENDBRANCH   7  14
ENDBRANCH   1   9
BRANCH   3  18
ATOM     18  C   UNL     1       3.488  -7.743   3.352  0.00  0.00    +0.200 C 
ATOM     19  O   UNL     1       3.284  -7.873   4.540  0.00  0.00    -0.278 OA
ATOM     20  N   UNL     1       4.747  -7.798   2.874  0.00  0.00    -0.316 N 
ATOM     21  H   UNL     1       4.910  -7.694   1.923  0.00  0.00    +0.149 HD
BRANCH  20  22
ATOM     22  C   UNL     1       5.870  -8.014   3.790  0.00  0.00    +0.109 C 
BRANCH  22  23
ATOM     23  C   UNL     1       7.178  -8.034   2.997  0.00  0.00    +0.056 C 
BRANCH  23  24
ATOM     24  C   UNL     1       8.333  -8.257   3.940  0.00  0.00    -0.021 A 
ATOM     25  C   UNL     1       8.830  -9.550   4.418  0.00  0.00    +0.003 A 
ATOM     26  C   UNL     1       8.454 -10.876   4.197  0.00  0.00    +0.010 A 
ATOM     27  C   UNL     1       9.140 -11.886   4.811  0.00  0.00    +0.001 A 
ATOM     28  C   UNL     1      10.207 -11.604   5.652  0.00  0.00    +0.002 A 
ATOM     29  C   UNL     1      10.595 -10.303   5.884  0.00  0.00    +0.026 A 
ATOM     30  C   UNL     1       9.911  -9.259   5.270  0.00  0.00    +0.047 A 
ATOM     31  N   UNL     1      10.049  -7.889   5.298  0.00  0.00    -0.360 N 
ATOM     32  C   UNL     1       9.105  -7.310   4.495  0.00  0.00    +0.087 A 
ATOM     33  H   UNL     1      10.719  -7.407   5.807  0.00  0.00    +0.165 HD
ENDBRANCH  23  24
ENDBRANCH  22  23
ENDBRANCH  20  22
ENDBRANCH   3  18
BRANCH   4  34
ATOM     34  C   UNL     1       0.180  -8.556   2.694  0.00  0.00    -0.042 C 
BRANCH  34  35
ATOM     35  C   UNL     1      -1.061  -8.591   3.548  0.00  0.00    -0.063 A 
ATOM     36  C   UNL     1      -1.093  -9.371   4.689  0.00  0.00    +0.002 A 
ATOM     37  C   UNL     1      -2.231  -9.404   5.473  0.00  0.00    +0.002 A 
ATOM     38  C   UNL     1      -3.338  -8.658   5.116  0.00  0.00    +0.020 A 
ATOM     39  C   UNL     1      -3.307  -7.877   3.974  0.00  0.00    +0.041 A 
ATOM     40  C   UNL     1      -2.165  -7.839   3.193  0.00  0.00    +0.021 A 
ATOM     41 CL   UNL     1      -4.697  -6.939   3.526  0.00  0.00    -0.084 Cl
ENDBRANCH  34  35
ENDBRANCH   4  34
TORSDOF 9
