REMARK  Name = ZINC39654462
REMARK  9 active torsions:
REMARK  status: ('A' for Active; 'I' for Inactive)
REMARK    1  A    between atoms: C_1  and  C_2
REMARK    2  A    between atoms: C_2  and  C_3
REMARK    3  A    between atoms: C_6  and  C_9
REMARK    4  A    between atoms: C_9  and  C_10
REMARK    5  A    between atoms: C_10  and  N_11
REMARK    6  A    between atoms: C_12  and  C_14
REMARK    7  A    between atoms: C_25  and  C_27
REMARK    8  A    between atoms: C_29  and  O_34
REMARK    9  A    between atoms: O_34  and  C_35
REMARK                            x       y       z     vdW  Elec       q    Type
REMARK                         _______ _______ _______ _____ _____    ______ ____
ROOT
ATOM      1  C   UNL     1       4.752  -0.230  -8.630  0.00  0.00    +0.100 C 
ATOM      2  C   UNL     1       3.992  -1.306  -9.437  0.00  0.00    +0.121 C 
ATOM      3  N   UNL     1       3.447  -0.580 -10.608  0.00  0.00    -0.296 N 
ATOM      4  C   UNL     1       4.527   0.357 -10.997  0.00  0.00    +0.115 C 
ATOM      5  C   UNL     1       5.105   0.859  -9.658  0.00  0.00    -0.004 C 
ATOM      6  C   UNL     1       6.619   1.016  -9.762  0.00  0.00    -0.010 C 
ATOM      7  C   UNL     1       6.944   2.143 -10.747  0.00  0.00    -0.082 C 
ATOM      8  N   UNL     1       6.332   3.394 -10.280  0.00  0.00    +0.379 N 
ATOM      9  C   UNL     1       4.870   3.264 -10.272  0.00  0.00    -0.082 C 
ATOM     10  C   UNL     1       4.458   2.184  -9.268  0.00  0.00    -0.010 C 
ATOM     11  C   UNL     1       2.241  -0.738 -11.190  0.00  0.00    +0.248 C 
ATOM     12  O   UNL     1       1.974  -0.132 -12.209  0.00  0.00    -0.270 OA
ATOM     13  H   UNL     1       6.656   3.597  -9.347  0.00  0.00    -0.086 HD
ATOM     14  H   UNL     1       6.598   4.147 -10.897  0.00  0.00    -0.086 HD
ENDROOT
BRANCH  11  15
ATOM     15  C   UNL     1       1.243  -1.647 -10.587  0.00  0.00    +0.054 A 
ATOM     16  C   UNL     1       1.655  -2.829  -9.970  0.00  0.00    +0.059 A 
ATOM     17  C   UNL     1       0.715  -3.675  -9.407  0.00  0.00    +0.121 A 
ATOM     18  C   UNL     1      -0.634  -3.348  -9.458  0.00  0.00    +0.047 A 
ATOM     19  C   UNL     1      -1.044  -2.178 -10.068  0.00  0.00    +0.019 A 
ATOM     20  C   UNL     1      -0.115  -1.323 -10.628  0.00  0.00    +0.030 A 
ATOM     21 BR   UNL     1      -0.681   0.280 -11.456  0.00  0.00    -0.050 Br
BRANCH  17  22
ATOM     22  O   UNL     1       1.112  -4.827  -8.806  0.00  0.00    -0.495 OA
ATOM     23  C   UNL     1       0.089  -5.653  -8.246  0.00  0.00    +0.277 C 
ENDBRANCH  17  22
ENDBRANCH  11  15
BRANCH   1  25
ATOM     24  N   UNL     1       4.418   0.842  -6.426  0.00  0.00    -0.315 N 
ATOM     25  C   UNL     1       3.869   0.337  -7.549  0.00  0.00    +0.218 C 
ATOM     26  O   UNL     1       2.664   0.338  -7.688  0.00  0.00    -0.275 OA
ATOM     27  H   UNL     1       5.382   0.841  -6.314  0.00  0.00    +0.149 HD
BRANCH  24  28
ATOM     28  C   UNL     1       3.559   1.393  -5.375  0.00  0.00    +0.109 C 
BRANCH  28  29
ATOM     29  C   UNL     1       4.427   1.895  -4.219  0.00  0.00    +0.054 C 
BRANCH  29  33
ATOM     30  C   UNL     1       1.925   3.502  -1.152  0.00  0.00    -0.048 A 
ATOM     31  C   UNL     1       2.268   2.163  -1.133  0.00  0.00    +0.004 A 
ATOM     32  C   UNL     1       3.078   1.643  -2.126  0.00  0.00    +0.004 A 
ATOM     33  C   UNL     1       3.544   2.462  -3.137  0.00  0.00    -0.046 A 
ATOM     34  C   UNL     1       3.200   3.801  -3.156  0.00  0.00    +0.004 A 
ATOM     35  C   UNL     1       2.387   4.320  -2.166  0.00  0.00    +0.004 A 
BRANCH  30  37
ATOM     36  C   UNL     1      -0.423   3.944  -0.490  0.00  0.00    +0.009 C 
ATOM     37  C   UNL     1       1.043   4.068  -0.069  0.00  0.00    +0.032 C 
ENDBRANCH  30  37
ENDBRANCH  29  33
ENDBRANCH  28  29
ENDBRANCH  24  28
ENDBRANCH   1  25
TORSDOF 7
