REMARK  Name = ZINC42944252
REMARK  11 active torsions:
REMARK  status: ('A' for Active; 'I' for Inactive)
REMARK    1  A    between atoms: C_1  and  C_2
REMARK    2  A    between atoms: C_5  and  N_9
REMARK    3  A    between atoms: C_6  and  C_8
REMARK    4  A    between atoms: C_10  and  C_12
REMARK    5  A    between atoms: C_12  and  C_14
REMARK    6  A    between atoms: C_12  and  S_17
REMARK    7  A    between atoms: C_14  and  C_15
REMARK    8  A    between atoms: C_14  and  C_16
REMARK    9  A    between atoms: S_17  and  C_18
REMARK   10  A    between atoms: C_21  and  C_24
REMARK   11  A    between atoms: N_22  and  N_23
REMARK                            x       y       z     vdW  Elec       q    Type
REMARK                         _______ _______ _______ _____ _____    ______ ____
ROOT
ATOM      1  C   UNL     1      -0.132  -6.343  -1.177  0.00  0.00    +0.143 C 
ENDROOT
BRANCH   1   3
ATOM      2  N   UNL     1      -0.113  -4.237   0.120  0.00  0.00    -0.284 N 
ATOM      3  C   UNL     1      -0.107  -4.839  -1.086  0.00  0.00    +0.231 C 
ATOM      4  O   UNL     1      -0.081  -4.170  -2.098  0.00  0.00    -0.274 OA
ATOM      5  H   UNL     1      -0.064  -4.770   0.928  0.00  0.00    +0.155 HD
BRANCH   2  10
ATOM      6  C   UNL     1      -0.422   1.417   0.465  0.00  0.00    +0.044 C 
ATOM      7  C   UNL     1      -0.340  -0.084   0.373  0.00  0.00    -0.050 A 
ATOM      8  C   UNL     1       0.344  -0.675  -0.674  0.00  0.00    +0.005 A 
ATOM      9  C   UNL     1       0.421  -2.052  -0.761  0.00  0.00    +0.024 A 
ATOM     10  C   UNL     1      -0.189  -2.842   0.205  0.00  0.00    +0.036 A 
ATOM     11  C   UNL     1      -0.874  -2.245   1.255  0.00  0.00    -0.029 A 
ATOM     12  C   UNL     1      -0.943  -0.869   1.339  0.00  0.00    +0.008 A 
ATOM     13  C   UNL     1      -1.536  -3.099   2.305  0.00  0.00    +0.045 C 
ENDBRANCH   2  10
ENDBRANCH   1   3
BRANCH   1  14
ATOM     14  C   UNL     1       1.276  -6.892  -0.939  0.00  0.00    +0.005 C 
ATOM     15  C   UNL     1       1.756  -6.478   0.453  0.00  0.00    +0.009 C 
ATOM     16  C   UNL     1       1.251  -8.419  -1.036  0.00  0.00    +0.009 C 
ENDBRANCH   1  14
BRANCH   1  17
ATOM     17  S   UNL     1      -0.704  -6.839  -2.826  0.00  0.00    -0.071 S 
BRANCH  17  18
ATOM     18  C   UNL     1      -2.404  -6.378  -2.844  0.00  0.00    +0.209 A 
ATOM     19  N   UNL     1      -3.046  -5.722  -1.905  0.00  0.00    -0.121 NA
ATOM     20  N   UNL     1      -4.273  -5.558  -2.248  0.00  0.00    -0.123 NA
ATOM     21  C   UNL     1      -4.487  -6.094  -3.416  0.00  0.00    +0.255 A 
ATOM     22  N   UNL     1      -3.303  -6.631  -3.841  0.00  0.00    -0.220 N 
BRANCH  21  23
ATOM     23  C   UNL     1      -5.796  -6.114  -4.163  0.00  0.00    +0.454 C 
ATOM     24  F   UNL     1      -6.673  -5.185  -3.592  0.00  0.00    -0.163 F 
ATOM     25  F   UNL     1      -5.572  -5.781  -5.504  0.00  0.00    -0.163 F 
ATOM     26  F   UNL     1      -6.357  -7.393  -4.088  0.00  0.00    -0.163 F 
ENDBRANCH  21  23
BRANCH  22  27
ATOM     27  N   UNL     1      -3.069  -7.286  -5.016  0.00  0.00    -0.295 N 
ATOM     28  H   UNL     1      -3.233  -8.277  -4.916  0.00  0.00    +0.163 HD
ATOM     29  H   UNL     1      -3.628  -6.901  -5.762  0.00  0.00    +0.163 HD
ENDBRANCH  22  27
ENDBRANCH  17  18
ENDBRANCH   1  17
TORSDOF 7
