REMARK  Name = ZINC22706369
REMARK  7 active torsions:
REMARK  status: ('A' for Active; 'I' for Inactive)
REMARK    1  A    between atoms: C_1  and  O_2
REMARK    2  A    between atoms: O_2  and  C_3
REMARK    3  A    between atoms: C_6  and  C_9
REMARK    4  A    between atoms: C_14  and  C_26
REMARK    5  A    between atoms: C_19  and  C_21
REMARK    6  A    between atoms: C_29  and  O_32
REMARK    7  A    between atoms: O_32  and  C_33
REMARK                            x       y       z     vdW  Elec       q    Type
REMARK                         _______ _______ _______ _____ _____    ______ ____
ROOT
ATOM      1  C   UNL     1      -2.101  -0.763   3.672  0.00  0.00    +0.032 C 
ATOM      2  C   UNL     1      -2.562  -1.597   2.475  0.00  0.00    +0.060 C 
ATOM      3  C   UNL     1      -1.908  -1.084   1.214  0.00  0.00    +0.020 C 
ATOM      4  C   UNL     1      -0.681  -0.522   1.249  0.00  0.00    +0.041 C 
ATOM      5  C   UNL     1       0.002  -0.004   0.002  0.00  0.00    +0.175 C 
ATOM      6  N   UNL     1      -0.690  -0.490  -1.185  0.00  0.00    -0.220 N 
ATOM      7  C   UNL     1      -1.923  -1.054  -1.151  0.00  0.00    +0.219 A 
ATOM      8  N   UNL     1      -2.255  -1.370  -2.372  0.00  0.00    -0.189 NA
ATOM      9  C   UNL     1      -1.267  -1.032  -3.206  0.00  0.00    +0.256 A 
ATOM     10  N   UNL     1      -0.290  -0.492  -2.520  0.00  0.00    -0.143 NA
ATOM     11  N   UNL     1      -2.610  -1.219   0.041  0.00  0.00    -0.287 N 
ATOM     12  C   UNL     1       0.021  -0.394   2.461  0.00  0.00    +0.164 C 
ATOM     13  O   UNL     1       1.131   0.099   2.457  0.00  0.00    -0.292 OA
ATOM     14  C   UNL     1      -0.574  -0.854   3.763  0.00  0.00    +0.088 C 
ATOM     15  H   UNL     1      -3.685  -1.450   0.066  0.00  0.00    +0.155 HD
ENDROOT
BRANCH   1  19
ATOM     16  C   UNL     1      -3.853  -2.291   7.257  0.00  0.00    +0.120 A 
ATOM     17  C   UNL     1      -4.084  -0.977   6.877  0.00  0.00    +0.046 A 
ATOM     18  C   UNL     1      -3.516  -0.485   5.717  0.00  0.00    +0.007 A 
ATOM     19  C   UNL     1      -2.719  -1.302   4.936  0.00  0.00    -0.043 A 
ATOM     20  C   UNL     1      -2.492  -2.613   5.311  0.00  0.00    +0.007 A 
ATOM     21  C   UNL     1      -3.052  -3.108   6.472  0.00  0.00    +0.046 A 
BRANCH  16  23
ATOM     22  C   UNL     1      -4.130  -4.139   8.727  0.00  0.00    +0.277 C 
ATOM     23  O   UNL     1      -4.411  -2.778   8.397  0.00  0.00    -0.495 OA
ENDBRANCH  16  23
ENDBRANCH   1  19
BRANCH   5  24
ATOM     24  C   UNL     1      -0.018   1.503   0.010  0.00  0.00    -0.018 A 
ATOM     25  C   UNL     1      -1.226   2.177   0.020  0.00  0.00    +0.009 A 
ATOM     26  C   UNL     1      -1.247   3.558   0.033  0.00  0.00    +0.046 A 
ATOM     27  C   UNL     1      -0.056   4.269   0.025  0.00  0.00    +0.120 A 
ATOM     28  C   UNL     1       1.154   3.591   0.010  0.00  0.00    +0.046 A 
ATOM     29  C   UNL     1       1.170   2.209   0.003  0.00  0.00    +0.009 A 
BRANCH  27  30
ATOM     30  O   UNL     1      -0.074   5.628   0.033  0.00  0.00    -0.495 OA
ATOM     31  C   UNL     1      -1.356   6.259   0.049  0.00  0.00    +0.277 C 
ENDBRANCH  27  30
ENDBRANCH   5  24
BRANCH   9  32
ATOM     32  C   UNL     1      -1.274  -1.239  -4.699  0.00  0.00    +0.454 C 
ATOM     33  F   UNL     1      -1.062  -2.592  -4.984  0.00  0.00    -0.163 F 
ATOM     34  F   UNL     1      -2.511  -0.841  -5.218  0.00  0.00    -0.163 F 
ATOM     35  F   UNL     1      -0.257  -0.475  -5.281  0.00  0.00    -0.163 F 
ENDBRANCH   9  32
TORSDOF 5
