REMARK  Name = ZINC09414416
REMARK  11 active torsions:
REMARK  status: ('A' for Active; 'I' for Inactive)
REMARK    1  A    between atoms: C_1  and  C_2
REMARK    2  A    between atoms: C_3  and  N_9
REMARK    3  A    between atoms: N_9  and  C_10
REMARK    4  A    between atoms: C_10  and  N_12
REMARK    5  A    between atoms: N_12  and  C_13
REMARK    6  A    between atoms: C_13  and  C_14
REMARK    7  A    between atoms: C_14  and  C_15
REMARK    8  A    between atoms: C_18  and  O_29
REMARK    9  A    between atoms: C_21  and  O_27
REMARK   10  A    between atoms: O_27  and  C_28
REMARK   11  A    between atoms: O_29  and  C_30
REMARK                            x       y       z     vdW  Elec       q    Type
REMARK                         _______ _______ _______ _____ _____    ______ ____
ROOT
ATOM      1  C   UNL     1      -1.026   7.712  -0.364  0.00  0.00    +0.059 C 
ENDROOT
BRANCH   1   2
ATOM      2  C   UNL     1      -2.336   8.451  -0.462  0.00  0.00    +0.019 A 
ATOM      3  C   UNL     1      -2.913   8.954   0.659  0.00  0.00    +0.022 A 
ATOM      4  C   UNL     1      -4.184   9.666   0.531  0.00  0.00    +0.044 A 
ATOM      5  C   UNL     1      -4.829  10.208   1.655  0.00  0.00    +0.129 A 
ATOM      6  C   UNL     1      -6.028  10.874   1.497  0.00  0.00    +0.050 A 
ATOM      7  C   UNL     1      -6.596  11.010   0.239  0.00  0.00    +0.051 A 
ATOM      8  C   UNL     1      -5.974  10.483  -0.877  0.00  0.00    +0.144 A 
ATOM      9  C   UNL     1      -4.763   9.806  -0.744  0.00  0.00    +0.095 A 
ATOM     10  N   UNL     1      -4.124   9.272  -1.845  0.00  0.00    -0.319 N 
ATOM     11  H   UNL     1      -4.523   9.369  -2.724  0.00  0.00    +0.169 HD
ATOM     12  C   UNL     1      -2.953   8.623  -1.718  0.00  0.00    +0.252 A 
ATOM     13  O   UNL     1      -2.414   8.168  -2.712  0.00  0.00    -0.268 OA
BRANCH   8  14
ATOM     14  O   UNL     1      -6.543  10.624  -2.105  0.00  0.00    -0.493 OA
ATOM     15  C   UNL     1      -7.784  11.330  -2.167  0.00  0.00    +0.277 C 
ENDBRANCH   8  14
BRANCH   5  16
ATOM     16  O   UNL     1      -4.277  10.076   2.889  0.00  0.00    -0.494 OA
ATOM     17  C   UNL     1      -4.991  10.654   3.983  0.00  0.00    +0.277 C 
ENDBRANCH   5  16
ENDBRANCH   1   2
BRANCH   1  18
ATOM     18  C   UNL     1      -1.294   6.209  -0.268  0.00  0.00    +0.108 C 
BRANCH  18  19
ATOM     19  N   UNL     1      -0.021   5.491  -0.173  0.00  0.00    -0.326 N 
ATOM     20  H   UNL     1       0.815   5.983  -0.178  0.00  0.00    +0.148 HD
BRANCH  19  21
ATOM     21  C   UNL     1      -0.011   4.146  -0.078  0.00  0.00    +0.135 C 
ATOM     22  S   UNL     1      -1.486   3.278  -0.069  0.00  0.00    -0.019 S 
BRANCH  21  23
ATOM     23  N   UNL     1       1.161   3.486   0.009  0.00  0.00    -0.297 N 
ATOM     24  H   UNL     1       1.992   3.980   0.084  0.00  0.00    +0.154 HD
BRANCH  23  27
ATOM     25  C   UNL     1       2.822   2.139   1.887  0.00  0.00    +0.047 C 
ATOM     26  C   UNL     1       1.975   1.390   0.891  0.00  0.00    -0.011 A 
ATOM     27  C   UNL     1       1.178   2.087  -0.008  0.00  0.00    +0.037 A 
ATOM     28  C   UNL     1       0.399   1.393  -0.924  0.00  0.00    +0.023 A 
ATOM     29  C   UNL     1       0.418   0.012  -0.939  0.00  0.00    +0.003 A 
ATOM     30  C   UNL     1       1.211  -0.680  -0.043  0.00  0.00    +0.020 A 
ATOM     31  C   UNL     1       1.989   0.008   0.872  0.00  0.00    +0.046 A 
ATOM     32 CL   UNL     1       2.983  -0.865   1.995  0.00  0.00    -0.083 Cl
ENDBRANCH  23  27
ENDBRANCH  21  23
ENDBRANCH  19  21
ENDBRANCH  18  19
ENDBRANCH   1  18
TORSDOF 8
