REMARK  Name = ZINC17747725
REMARK  6 active torsions:
REMARK  status: ('A' for Active; 'I' for Inactive)
REMARK    1  A    between atoms: C_1  and  O_2
REMARK    2  A    between atoms: O_2  and  C_3
REMARK    3  A    between atoms: C_5  and  C_11
REMARK    4  A    between atoms: C_8  and  O_9
REMARK    5  A    between atoms: N_19  and  C_22
REMARK    6  A    between atoms: N_30  and  C_31
REMARK                            x       y       z     vdW  Elec       q    Type
REMARK                         _______ _______ _______ _____ _____    ______ ____
ROOT
ATOM      1  C   UNL     1       2.603   0.509   3.895  0.00  0.00    +0.157 C 
ATOM      2  C   UNL     1       4.144   0.375   3.954  0.00  0.00    +0.145 C 
ATOM      3  C   UNL     1       4.369  -0.693   5.059  0.00  0.00    +0.249 C 
ATOM      4  C   UNL     1       5.035   0.087   6.169  0.00  0.00    +0.259 C 
ATOM      5  O   UNL     1       5.380  -0.370   7.237  0.00  0.00    -0.272 OA
ATOM      6  N   UNL     1       5.184   1.362   5.790  0.00  0.00    -0.208 N 
ATOM      7  C   UNL     1       4.723   1.642   4.545  0.00  0.00    +0.235 C 
ATOM      8  O   UNL     1       4.760   2.720   3.991  0.00  0.00    -0.274 OA
ATOM      9  O   UNL     1       3.056  -1.111   5.470  0.00  0.00    -0.257 OA
ATOM     10  N   UNL     1       2.174  -0.001   5.220  0.00  0.00    -0.244 N 
ENDROOT
BRANCH   1  13
ATOM     11  C   UNL     1       1.122  -0.530   0.578  0.00  0.00    +0.163 A 
ATOM     12  C   UNL     1       1.644   0.249   1.599  0.00  0.00    +0.055 A 
ATOM     13  C   UNL     1       2.036  -0.340   2.787  0.00  0.00    -0.017 A 
ATOM     14  C   UNL     1       1.910  -1.706   2.960  0.00  0.00    +0.025 A 
ATOM     15  C   UNL     1       1.390  -2.489   1.945  0.00  0.00    +0.063 A 
ATOM     16  C   UNL     1       0.989  -1.903   0.754  0.00  0.00    +0.173 A 
ATOM     17 BR   UNL     1       1.220  -4.357   2.185  0.00  0.00    -0.046 Br
BRANCH  11  19
ATOM     18  C   UNL     1       0.902   1.463  -0.700  0.00  0.00    +0.277 C 
ATOM     19  O   UNL     1       0.736   0.048  -0.591  0.00  0.00    -0.491 OA
ENDBRANCH  11  19
BRANCH  16  20
ATOM     20  O   UNL     1       0.472  -2.671  -0.243  0.00  0.00    -0.503 OA
ATOM     21  H   UNL     1       1.135  -3.014  -0.859  0.00  0.00    +0.292 HD
ENDBRANCH  16  20
ENDBRANCH   1  13
BRANCH   6  22
ATOM     22  C   UNL     1       5.776   2.333   6.610  0.00  0.00    +0.044 A 
ATOM     23  C   UNL     1       5.011   3.375   7.117  0.00  0.00    +0.027 A 
ATOM     24  C   UNL     1       5.596   4.331   7.924  0.00  0.00    +0.040 A 
ATOM     25  C   UNL     1       6.945   4.251   8.227  0.00  0.00    +0.124 A 
ATOM     26  C   UNL     1       7.710   3.212   7.722  0.00  0.00    +0.040 A 
ATOM     27  C   UNL     1       7.127   2.252   6.919  0.00  0.00    +0.027 A 
ATOM     28  F   UNL     1       7.516   5.187   9.017  0.00  0.00    -0.205 F 
ENDBRANCH   6  22
BRANCH  10  29
ATOM     29  C   UNL     1       1.145   0.484   6.030  0.00  0.00    +0.065 A 
ATOM     30  C   UNL     1       0.383   1.568   5.613  0.00  0.00    +0.028 A 
ATOM     31  C   UNL     1      -0.634   2.045   6.416  0.00  0.00    +0.002 A 
ATOM     32  C   UNL     1      -0.895   1.445   7.635  0.00  0.00    +0.000 A 
ATOM     33  C   UNL     1      -0.138   0.366   8.053  0.00  0.00    +0.002 A 
ATOM     34  C   UNL     1       0.877  -0.120   7.252  0.00  0.00    +0.028 A 
ENDBRANCH  10  29
TORSDOF 5
