REMARK  Name = ZINC01936458
REMARK  17 active torsions:
REMARK  status: ('A' for Active; 'I' for Inactive)
REMARK    1  A    between atoms: C_1  and  C_2
REMARK    2  A    between atoms: C_2  and  O_3
REMARK    3  A    between atoms: O_3  and  C_4
REMARK    4  A    between atoms: C_9  and  O_10
REMARK    5  A    between atoms: O_10  and  C_11
REMARK    6  A    between atoms: C_17  and  O_35
REMARK    7  A    between atoms: C_18  and  C_26
REMARK    8  A    between atoms: C_21  and  C_22
REMARK    9  A    between atoms: C_26  and  N_68
REMARK   10  A    between atoms: C_27  and  C_28
REMARK   11  A    between atoms: C_27  and  N_68
REMARK   12  A    between atoms: C_28  and  C_29
REMARK   13  A    between atoms: C_28  and  C_30
REMARK   14  A    between atoms: C_31  and  C_32
REMARK   15  A    between atoms: C_31  and  N_68
REMARK   16  A    between atoms: C_32  and  C_33
REMARK   17  A    between atoms: C_32  and  C_34
REMARK                            x       y       z     vdW  Elec       q    Type
REMARK                         _______ _______ _______ _____ _____    ______ ____
ROOT
ATOM      1  C   UNL     1      -4.692   2.387  -0.600  0.00  0.00    +0.222 A 
ATOM      2  C   UNL     1      -3.696   3.367  -0.874  0.00  0.00    +0.235 A 
ATOM      3  O   UNL     1      -3.996   4.519  -1.141  0.00  0.00    -0.283 OA
ATOM      4  C   UNL     1      -2.291   2.929  -0.838  0.00  0.00    +0.068 A 
ATOM      5  C   UNL     1      -1.246   3.813  -1.109  0.00  0.00    +0.019 A 
ATOM      6  C   UNL     1       0.045   3.369  -1.066  0.00  0.00    +0.046 A 
ATOM      7  C   UNL     1       0.324   2.040  -0.753  0.00  0.00    +0.122 A 
ATOM      8  C   UNL     1      -0.702   1.151  -0.482  0.00  0.00    +0.020 A 
ATOM      9  C   UNL     1      -2.019   1.584  -0.527  0.00  0.00    +0.144 A 
ATOM     10  O   UNL     1      -3.037   0.738  -0.272  0.00  0.00    -0.447 OA
ATOM     11  C   UNL     1      -4.319   1.125  -0.308  0.00  0.00    +0.254 A 
ENDROOT
BRANCH  11  12
ATOM     12  C   UNL     1      -5.389   0.107  -0.009  0.00  0.00    +0.454 C 
ATOM     13  F   UNL     1      -5.780  -0.522  -1.196  0.00  0.00    -0.163 F 
ATOM     14  F   UNL     1      -4.888  -0.849   0.882  0.00  0.00    -0.163 F 
ATOM     15  F   UNL     1      -6.494   0.746   0.566  0.00  0.00    -0.163 F 
ENDBRANCH  11  12
BRANCH   7  16
ATOM     16  O   UNL     1       1.612   1.614  -0.714  0.00  0.00    -0.506 OA
ATOM     17  H   UNL     1       1.942   1.280  -1.559  0.00  0.00    +0.292 HD
ENDBRANCH   7  16
BRANCH   1  18
ATOM     18  O   UNL     1      -6.011   2.724  -0.622  0.00  0.00    -0.445 OA
BRANCH  18  24
ATOM     19  C   UNL     1      -7.907   3.563   0.553  0.00  0.00    +0.163 A 
ATOM     20  C   UNL     1      -8.445   4.141   1.692  0.00  0.00    +0.049 A 
ATOM     21  C   UNL     1      -7.627   4.447   2.764  0.00  0.00    +0.004 A 
ATOM     22  C   UNL     1      -6.273   4.177   2.704  0.00  0.00    +0.004 A 
ATOM     23  C   UNL     1      -5.730   3.596   1.573  0.00  0.00    +0.050 A 
ATOM     24  C   UNL     1      -6.543   3.292   0.492  0.00  0.00    +0.170 A 
BRANCH  19  25
ATOM     25  O   UNL     1      -8.710   3.261  -0.502  0.00  0.00    -0.489 OA
BRANCH  25  27
ATOM     26  C   UNL     1     -10.836   3.160  -1.646  0.00  0.00    +0.048 C 
ATOM     27  C   UNL     1     -10.099   3.568  -0.369  0.00  0.00    +0.226 C 
ENDBRANCH  25  27
ENDBRANCH  19  25
ENDBRANCH  18  24
ENDBRANCH   1  18
BRANCH   8  28
ATOM     28  C   UNL     1      -0.389  -0.284  -0.145  0.00  0.00    -0.036 C 
BRANCH  28  29
ATOM     29  N   UNL     1       0.207  -0.334   1.207  0.00  0.00    +0.383 N 
ATOM     30  H   UNL     1       0.859   0.453   1.313  0.00  0.00    -0.081 HD
BRANCH  29  31
ATOM     31  C   UNL     1      -0.853  -0.221   2.231  0.00  0.00    -0.075 C 
BRANCH  31  32
ATOM     32  C   UNL     1      -1.163   1.261   2.452  0.00  0.00    -0.034 C 
ATOM     33  C   UNL     1      -2.319   1.398   3.443  0.00  0.00    +0.005 C 
ATOM     34  C   UNL     1       0.076   1.963   3.013  0.00  0.00    +0.005 C 
ENDBRANCH  31  32
ENDBRANCH  29  31
BRANCH  29  35
ATOM     35  C   UNL     1       0.950  -1.599   1.386  0.00  0.00    -0.075 C 
BRANCH  35  36
ATOM     36  C   UNL     1       2.296  -1.483   0.668  0.00  0.00    -0.034 C 
ATOM     37  C   UNL     1       3.136  -0.392   1.334  0.00  0.00    +0.005 C 
ATOM     38  C   UNL     1       3.036  -2.820   0.752  0.00  0.00    +0.005 C 
ENDBRANCH  35  36
ENDBRANCH  29  35
ENDBRANCH  28  29
ENDBRANCH   8  28
TORSDOF 12
