REMARK  Name = ZINC38705785
REMARK  14 active torsions:
REMARK  status: ('A' for Active; 'I' for Inactive)
REMARK    1  A    between atoms: C_1  and  C_2
REMARK    2  A    between atoms: C_2  and  O_3
REMARK    3  A    between atoms: O_3  and  C_4
REMARK    4  A    between atoms: C_7  and  C_13
REMARK    5  A    between atoms: C_9  and  O_10
REMARK    6  A    between atoms: O_10  and  C_11
REMARK    7  A    between atoms: C_11  and  C_12
REMARK    8  A    between atoms: C_16  and  C_32
REMARK    9  A    between atoms: N_23  and  C_24
REMARK   10  A    between atoms: C_24  and  C_25
REMARK   11  A    between atoms: C_28  and  C_31
REMARK   12  A    between atoms: C_33  and  C_40
REMARK   13  A    between atoms: C_35  and  C_39
REMARK   14  A    between atoms: C_37  and  O_38
REMARK                            x       y       z     vdW  Elec       q    Type
REMARK                         _______ _______ _______ _____ _____    ______ ____
ROOT
ATOM      1  C   UNL     1       1.149  -6.086   1.780  0.00  0.00    +0.142 C 
ATOM      2  C   UNL     1       2.165  -6.616   0.807  0.00  0.00    +0.035 A 
ATOM      3  C   UNL     1       3.493  -6.609   0.367  0.00  0.00    +0.102 A 
ATOM      4  N   UNL     1       3.576  -7.442  -0.651  0.00  0.00    -0.173 NA
ATOM      5  N   UNL     1       2.433  -7.974  -0.899  0.00  0.00    -0.272 N 
ATOM      6  H   UNL     1       2.258  -8.617  -1.604  0.00  0.00    +0.189 HD
ATOM      7  C   UNL     1       1.500  -7.501  -0.021  0.00  0.00    +0.126 A 
ATOM      8  C   UNL     1       0.092  -7.555   0.390  0.00  0.00    +0.266 C 
ATOM      9  O   UNL     1      -0.760  -8.242  -0.140  0.00  0.00    -0.268 OA
ATOM     10  N   UNL     1      -0.123  -6.736   1.438  0.00  0.00    -0.281 N 
ENDROOT
BRANCH   3  11
ATOM     11  C   UNL     1       4.604  -5.810   0.942  0.00  0.00    +0.047 A 
ATOM     12  C   UNL     1       5.423  -5.051   0.109  0.00  0.00    -0.037 A 
ATOM     13  C   UNL     1       6.455  -4.310   0.648  0.00  0.00    +0.007 A 
ATOM     14  C   UNL     1       6.680  -4.318   2.013  0.00  0.00    -0.047 A 
ATOM     15  C   UNL     1       5.873  -5.068   2.848  0.00  0.00    +0.049 A 
ATOM     16  C   UNL     1       4.830  -5.811   2.321  0.00  0.00    +0.127 A 
ATOM     17  C   UNL     1       7.809  -3.505   2.593  0.00  0.00    +0.044 C 
ATOM     18  C   UNL     1       5.183  -5.040  -1.379  0.00  0.00    +0.044 C 
BRANCH  16  19
ATOM     19  O   UNL     1       4.032  -6.544   3.141  0.00  0.00    -0.506 OA
ATOM     20  H   UNL     1       4.383  -7.421   3.351  0.00  0.00    +0.292 HD
ENDBRANCH  16  19
ENDBRANCH   3  11
BRANCH   1  24
ATOM     21  C   UNL     1       0.788  -1.845   1.365  0.00  0.00    +0.162 A 
ATOM     22  C   UNL     1       0.385  -2.682   0.336  0.00  0.00    +0.050 A 
ATOM     23  C   UNL     1       0.503  -4.052   0.473  0.00  0.00    +0.009 A 
ATOM     24  C   UNL     1       1.022  -4.591   1.636  0.00  0.00    -0.019 A 
ATOM     25  C   UNL     1       1.426  -3.762   2.666  0.00  0.00    +0.055 A 
ATOM     26  C   UNL     1       1.316  -2.387   2.532  0.00  0.00    +0.162 A 
BRANCH  21  27
ATOM     27  O   UNL     1       0.673  -0.496   1.231  0.00  0.00    -0.489 OA
BRANCH  27  29
ATOM     28  C   UNL     1       0.072   1.518   0.039  0.00  0.00    +0.048 C 
ATOM     29  C   UNL     1       0.122  -0.011   0.005  0.00  0.00    +0.226 C 
ENDBRANCH  27  29
ENDBRANCH  21  27
BRANCH  26  30
ATOM     30  O   UNL     1       1.717  -1.570   3.542  0.00  0.00    -0.489 OA
BRANCH  30  31
ATOM     31  C   UNL     1       2.249  -2.197   4.711  0.00  0.00    +0.226 C 
ATOM     32  C   UNL     1       2.644  -1.125   5.730  0.00  0.00    +0.048 C 
ENDBRANCH  30  31
ENDBRANCH  26  30
ENDBRANCH   1  24
BRANCH  10  33
ATOM     33  C   UNL     1      -1.404  -6.529   2.118  0.00  0.00    +0.144 C 
BRANCH  33  34
ATOM     34  C   UNL     1      -2.145  -5.395   1.458  0.00  0.00    -0.030 A 
ATOM     35  C   UNL     1      -1.959  -4.098   1.898  0.00  0.00    +0.005 A 
ATOM     36  C   UNL     1      -2.639  -3.058   1.293  0.00  0.00    +0.003 A 
ATOM     37  C   UNL     1      -3.506  -3.315   0.247  0.00  0.00    -0.050 A 
ATOM     38  C   UNL     1      -3.691  -4.612  -0.194  0.00  0.00    +0.003 A 
ATOM     39  C   UNL     1      -3.008  -5.651   0.408  0.00  0.00    +0.005 A 
ATOM     40  C   UNL     1      -4.248  -2.181  -0.413  0.00  0.00    +0.044 C 
ENDBRANCH  33  34
ENDBRANCH  10  33
TORSDOF 9
