REMARK  Name = ZINC02427566
REMARK  9 active torsions:
REMARK  status: ('A' for Active; 'I' for Inactive)
REMARK    1  A    between atoms: C_1  and  C_2
REMARK    2  A    between atoms: C_5  and  S_9
REMARK    3  A    between atoms: C_7  and  C_8
REMARK    4  A    between atoms: S_9  and  C_12
REMARK    5  A    between atoms: N_23  and  C_26
REMARK    6  A    between atoms: C_24  and  N_25
REMARK    7  A    between atoms: C_29  and  C_32
REMARK    8  A    between atoms: C_32  and  C_33
REMARK    9  A    between atoms: C_32  and  C_34
REMARK                            x       y       z     vdW  Elec       q    Type
REMARK                         _______ _______ _______ _____ _____    ______ ____
ROOT
ATOM      1  C   UNL     1      -2.993   3.911   6.662  0.00  0.00    +0.160 A 
ATOM      2  C   UNL     1      -4.237   3.361   6.270  0.00  0.00    +0.136 A 
ATOM      3  C   UNL     1      -4.003   2.720   4.970  0.00  0.00    +0.168 A 
ATOM      4  N   UNL     1      -4.992   2.110   4.357  0.00  0.00    -0.225 NA
ATOM      5  C   UNL     1      -6.209   2.087   4.916  0.00  0.00    +0.092 A 
ATOM      6  C   UNL     1      -7.276   1.442   4.263  0.00  0.00    +0.030 A 
ATOM      7  C   UNL     1      -8.509   1.421   4.838  0.00  0.00    +0.002 A 
ATOM      8  C   UNL     1      -8.736   2.033   6.069  0.00  0.00    +0.002 A 
ATOM      9  C   UNL     1      -7.730   2.667   6.731  0.00  0.00    +0.030 A 
ATOM     10  C   UNL     1      -6.440   2.709   6.168  0.00  0.00    +0.090 A 
ATOM     11  N   UNL     1      -5.444   3.329   6.811  0.00  0.00    -0.240 NA
ATOM     12  N   UNL     1      -2.668   2.916   4.678  0.00  0.00    -0.279 N 
ATOM     13  C   UNL     1      -2.086   3.630   5.698  0.00  0.00    +0.130 A 
ENDROOT
BRANCH  12  14
ATOM     14  C   UNL     1      -2.013   2.464   3.525  0.00  0.00    +0.050 A 
ATOM     15  C   UNL     1      -1.869   1.102   3.295  0.00  0.00    +0.026 A 
ATOM     16  C   UNL     1      -1.222   0.660   2.157  0.00  0.00    +0.006 A 
ATOM     17  C   UNL     1      -0.718   1.572   1.248  0.00  0.00    -0.045 A 
ATOM     18  C   UNL     1      -0.855   2.929   1.477  0.00  0.00    +0.006 A 
ATOM     19  C   UNL     1      -1.506   3.377   2.609  0.00  0.00    +0.026 A 
BRANCH  17  20
ATOM     20  C   UNL     1      -0.013   1.086   0.008  0.00  0.00    +0.013 C 
ATOM     21  C   UNL     1       1.423   1.615  -0.003  0.00  0.00    +0.012 C 
ATOM     22  C   UNL     1      -0.753   1.593  -1.232  0.00  0.00    +0.012 C 
ENDBRANCH  17  20
ENDBRANCH  12  14
BRANCH   1  23
ATOM     23  S   UNL     1      -2.680   4.808   8.146  0.00  0.00    +0.030 S 
ATOM     24  O   UNL     1      -3.672   4.405   9.081  0.00  0.00    -0.164 OA
ATOM     25  O   UNL     1      -1.290   4.683   8.411  0.00  0.00    -0.164 OA
BRANCH  23  30
ATOM     26  C   UNL     1      -3.696  10.636   6.961  0.00  0.00    +0.044 C 
ATOM     27  C   UNL     1      -3.442   9.180   7.257  0.00  0.00    -0.047 A 
ATOM     28  C   UNL     1      -4.471   8.378   7.714  0.00  0.00    +0.005 A 
ATOM     29  C   UNL     1      -4.239   7.043   7.986  0.00  0.00    +0.027 A 
ATOM     30  C   UNL     1      -2.977   6.510   7.800  0.00  0.00    +0.094 A 
ATOM     31  C   UNL     1      -1.947   7.312   7.347  0.00  0.00    +0.031 A 
ATOM     32  C   UNL     1      -2.181   8.647   7.072  0.00  0.00    -0.046 A 
ATOM     33  C   UNL     1      -1.059   9.521   6.573  0.00  0.00    +0.044 C 
ENDBRANCH  23  30
ENDBRANCH   1  23
BRANCH  13  34
ATOM     34  N   UNL     1      -0.756   4.009   5.734  0.00  0.00    -0.343 N 
ATOM     35  H   UNL     1      -0.164   3.771   5.004  0.00  0.00    +0.144 HD
ATOM     36  H   UNL     1      -0.416   4.513   6.489  0.00  0.00    +0.144 HD
ENDBRANCH  13  34
TORSDOF 5
