REMARK  Name = ZINC59170926
REMARK  3 active torsions:
REMARK  status: ('A' for Active; 'I' for Inactive)
REMARK    1  A    between atoms: C_3  and  N_9
REMARK    2  A    between atoms: C_11  and  C_22
REMARK    3  A    between atoms: C_22  and  N_24
REMARK                            x       y       z     vdW  Elec       q    Type
REMARK                         _______ _______ _______ _____ _____    ______ ____
ROOT
ATOM      1  N   UNL     1       3.613   2.321  -0.439  0.00  0.00    -0.324 N 
ATOM      2  C   UNL     1       3.690   3.260   0.479  0.00  0.00    +0.209 A 
ATOM      3  C   UNL     1       4.980   3.902   0.804  0.00  0.00    +0.064 A 
ATOM      4  C   UNL     1       4.933   5.194   1.311  0.00  0.00    +0.027 A 
ATOM      5  C   UNL     1       3.611   5.804   1.476  0.00  0.00    +0.021 A 
ATOM      6  C   UNL     1       3.482   7.177   1.722  0.00  0.00    +0.031 A 
ATOM      7  C   UNL     1       2.228   7.727   1.871  0.00  0.00    +0.043 A 
ATOM      8  C   UNL     1       1.096   6.929   1.778  0.00  0.00    +0.043 A 
ATOM      9  C   UNL     1       1.208   5.573   1.538  0.00  0.00    +0.085 A 
ATOM     10  C   UNL     1       2.462   4.998   1.387  0.00  0.00    +0.156 A 
ATOM     11  O   UNL     1       2.586   3.671   1.154  0.00  0.00    -0.437 OA
ATOM     12 CL   UNL     1      -0.218   4.590   1.423  0.00  0.00    -0.080 Cl
ATOM     13 CL   UNL     1       2.062   9.428   2.176  0.00  0.00    -0.083 Cl
ATOM     14  H   UNL     1       4.408   2.050  -0.924  0.00  0.00    +0.169 HD
ENDROOT
BRANCH   1  17
ATOM     15  C   UNL     1       0.034   1.886  -1.022  0.00  0.00    +0.004 A 
ATOM     16  C   UNL     1       1.243   2.492  -0.747  0.00  0.00    +0.027 A 
ATOM     17  C   UNL     1       2.411   1.727  -0.710  0.00  0.00    +0.062 A 
ATOM     18  C   UNL     1       2.346   0.351  -0.950  0.00  0.00    +0.083 A 
ATOM     19  C   UNL     1       1.129  -0.241  -1.224  0.00  0.00    +0.061 A 
ATOM     20  C   UNL     1      -0.025   0.525  -1.259  0.00  0.00    +0.021 A 
ATOM     21 CL   UNL     1       1.044  -1.949  -1.524  0.00  0.00    -0.082 Cl
ATOM     22 CL   UNL     1       3.792  -0.609  -0.907  0.00  0.00    -0.080 Cl
ENDBRANCH   1  17
BRANCH   3  23
ATOM     23  C   UNL     1       6.258   3.203   0.601  0.00  0.00    +0.082 C 
ATOM     24  S   UNL     1       6.269   1.558   0.127  0.00  0.00    -0.035 S 
BRANCH  23  25
ATOM     25  N   UNL     1       7.421   3.858   0.789  0.00  0.00    -0.352 N 
ATOM     26  H   UNL     1       7.415   4.790   1.057  0.00  0.00    +0.143 HD
ATOM     27  H   UNL     1       8.264   3.397   0.655  0.00  0.00    +0.143 HD
ENDBRANCH  23  25
ENDBRANCH   3  23
TORSDOF 3
