REMARK  Name = ZINC14145142
REMARK  9 active torsions:
REMARK  status: ('A' for Active; 'I' for Inactive)
REMARK    1  A    between atoms: C_1  and  C_2
REMARK    2  A    between atoms: C_2  and  C_4
REMARK    3  A    between atoms: C_2  and  S_14
REMARK    4  A    between atoms: N_9  and  C_10
REMARK    5  A    between atoms: C_10  and  C_11
REMARK    6  A    between atoms: C_11  and  C_12
REMARK    7  A    between atoms: C_11  and  C_13
REMARK    8  A    between atoms: S_14  and  C_15
REMARK    9  A    between atoms: N_20  and  C_21
REMARK                            x       y       z     vdW  Elec       q    Type
REMARK                         _______ _______ _______ _____ _____    ______ ____
ROOT
ATOM      1  S   UNL     1       0.747   0.171   1.869  0.00  0.00    -0.084 S 
ENDROOT
BRANCH   1   2
ATOM      2  C   UNL     1       2.443   0.479   1.508  0.00  0.00    +0.161 A 
ATOM      3  N   UNL     1       2.986   1.002   0.425  0.00  0.00    -0.133 NA
ATOM      4  N   UNL     1       4.351   1.157   0.350  0.00  0.00    -0.125 NA
ATOM      5  C   UNL     1       5.111   0.781   1.361  0.00  0.00    +0.187 A 
ATOM      6  S   UNL     1       3.888   0.175   2.514  0.00  0.00    -0.024 S 
ATOM      7  N   UNL     1       6.493   0.845   1.496  0.00  0.00    -0.292 N 
ATOM      8  H   UNL     1       6.924   0.448   2.268  0.00  0.00    +0.154 HD
BRANCH   7   9
ATOM      9  C   UNL     1       7.261   1.481   0.517  0.00  0.00    +0.034 A 
ATOM     10  C   UNL     1       8.586   1.110   0.322  0.00  0.00    +0.023 A 
ATOM     11  C   UNL     1       9.343   1.740  -0.646  0.00  0.00    +0.003 A 
ATOM     12  C   UNL     1       8.784   2.741  -1.420  0.00  0.00    +0.015 A 
ATOM     13  C   UNL     1       7.466   3.114  -1.228  0.00  0.00    +0.020 A 
ATOM     14  C   UNL     1       6.701   2.482  -0.266  0.00  0.00    +0.038 A 
ATOM     15 BR   UNL     1       6.707   4.483  -2.289  0.00  0.00    -0.050 Br
ENDBRANCH   7   9
ENDBRANCH   1   2
BRANCH   1  17
ATOM     16  C   UNL     1       0.051   2.246   0.229  0.00  0.00    +0.029 C 
ATOM     17  C   UNL     1      -0.128   0.734   0.383  0.00  0.00    +0.136 C 
BRANCH  17  18
ATOM     18  C   UNL     1      -1.594   0.411   0.511  0.00  0.00    +0.233 C 
ATOM     19  O   UNL     1      -2.095   0.291   1.608  0.00  0.00    -0.274 OA
ATOM     20  N   UNL     1      -2.349   0.257  -0.595  0.00  0.00    -0.239 N 
ATOM     21  C   UNL     1      -3.661  -0.031  -0.481  0.00  0.00    +0.306 C 
ATOM     22  O   UNL     1      -4.163  -0.152   0.619  0.00  0.00    -0.252 OA
ATOM     23  N   UNL     1      -4.415  -0.185  -1.587  0.00  0.00    -0.299 N 
ATOM     24  H   UNL     1      -1.948   0.354  -1.473  0.00  0.00    +0.159 HD
ATOM     25  H   UNL     1      -4.015  -0.088  -2.465  0.00  0.00    +0.150 HD
BRANCH  23  26
ATOM     26  C   UNL     1      -5.841  -0.498  -1.463  0.00  0.00    +0.108 C 
BRANCH  26  27
ATOM     27  C   UNL     1      -6.460  -0.620  -2.857  0.00  0.00    -0.000 C 
ATOM     28  C   UNL     1      -7.917  -1.069  -2.731  0.00  0.00    +0.009 C 
ATOM     29  C   UNL     1      -6.403   0.738  -3.560  0.00  0.00    +0.009 C 
ENDBRANCH  26  27
ENDBRANCH  23  26
ENDBRANCH  17  18
ENDBRANCH   1  17
TORSDOF 6
