REMARK  Name = ZINC34947333
REMARK  13 active torsions:
REMARK  status: ('A' for Active; 'I' for Inactive)
REMARK    1  A    between atoms: C_1  and  C_2
REMARK    2  A    between atoms: N_8  and  C_9
REMARK    3  A    between atoms: C_9  and  C_10
REMARK    4  A    between atoms: C_10  and  C_11
REMARK    5  A    between atoms: C_11  and  N_12
REMARK    6  A    between atoms: N_12  and  C_13
REMARK    7  A    between atoms: N_12  and  S_24
REMARK    8  A    between atoms: C_13  and  C_14
REMARK    9  A    between atoms: C_17  and  O_22
REMARK   10  A    between atoms: C_18  and  O_20
REMARK   11  A    between atoms: O_20  and  C_21
REMARK   12  A    between atoms: O_22  and  C_23
REMARK   13  A    between atoms: S_24  and  C_27
REMARK                            x       y       z     vdW  Elec       q    Type
REMARK                         _______ _______ _______ _____ _____    ______ ____
ROOT
ATOM      1  N   UNL     1       0.983  -0.177   6.069  0.00  0.00    -0.172 NA
ENDROOT
BRANCH   1   2
ATOM      2  S   UNL     1       0.564  -1.528   6.929  0.00  0.00    +0.061 S 
ATOM      3  O   UNL     1       0.944  -1.285   8.277  0.00  0.00    -0.153 OA
ATOM      4  O   UNL     1      -0.771  -1.847   6.561  0.00  0.00    -0.153 OA
BRANCH   2   5
ATOM      5  C   UNL     1       1.575  -2.849   6.351  0.00  0.00    +0.106 A 
ATOM      6  C   UNL     1       1.150  -3.634   5.295  0.00  0.00    +0.029 A 
ATOM      7  C   UNL     1       1.944  -4.670   4.840  0.00  0.00    +0.017 A 
ATOM      8  C   UNL     1       3.164  -4.922   5.441  0.00  0.00    +0.018 A 
ATOM      9  C   UNL     1       3.589  -4.137   6.498  0.00  0.00    +0.017 A 
ATOM     10  C   UNL     1       2.797  -3.097   6.949  0.00  0.00    +0.029 A 
ATOM     11 BR   UNL     1       4.250  -6.340   4.820  0.00  0.00    -0.050 Br
ENDBRANCH   2   5
ENDBRANCH   1   2
BRANCH   1  12
ATOM     12  C   UNL     1       0.207   0.209   4.887  0.00  0.00    +0.108 C 
BRANCH  12  13
ATOM     13  C   UNL     1       0.877  -0.353   3.631  0.00  0.00    -0.001 C 
BRANCH  13  14
ATOM     14  C   UNL     1       0.067   0.050   2.397  0.00  0.00    -0.077 C 
BRANCH  14  21
ATOM     15  C   UNL     1      -0.019   1.526   0.010  0.00  0.00    -0.013 C 
ATOM     16  C   UNL     1       0.002  -0.004   0.002  0.00  0.00    -0.072 C 
ATOM     17  C   UNL     1       0.717  -0.497  -1.258  0.00  0.00    -0.016 C 
ATOM     18  C   UNL     1       0.735  -2.028  -1.262  0.00  0.00    -0.003 C 
ATOM     19  C   UNL     1       1.410  -2.524   0.020  0.00  0.00    -0.019 C 
ATOM     20  C   UNL     1       0.669  -1.956   1.232  0.00  0.00    -0.078 C 
ATOM     21  N   UNL     1       0.711  -0.490   1.192  0.00  0.00    +0.381 N 
ATOM     22  H   UNL     1       1.671  -0.182   1.159  0.00  0.00    -0.081 HD
ENDBRANCH  14  21
ENDBRANCH  13  14
ENDBRANCH  12  13
ENDBRANCH   1  12
BRANCH   1  23
ATOM     23  C   UNL     1       2.129   0.633   6.489  0.00  0.00    +0.144 C 
BRANCH  23  24
ATOM     24  C   UNL     1       1.651   1.771   7.353  0.00  0.00    -0.028 A 
ATOM     25  C   UNL     1       1.299   2.976   6.773  0.00  0.00    +0.009 A 
ATOM     26  C   UNL     1       0.859   4.024   7.561  0.00  0.00    +0.050 A 
ATOM     27  C   UNL     1       0.770   3.867   8.935  0.00  0.00    +0.162 A 
ATOM     28  C   UNL     1       1.124   2.654   9.518  0.00  0.00    +0.162 A 
ATOM     29  C   UNL     1       1.559   1.607   8.722  0.00  0.00    +0.054 A 
BRANCH  28  30
ATOM     30  O   UNL     1       1.038   2.495  10.866  0.00  0.00    -0.491 OA
ATOM     31  C   UNL     1       1.418   1.223  11.395  0.00  0.00    +0.277 C 
ENDBRANCH  28  30
BRANCH  27  32
ATOM     32  O   UNL     1       0.338   4.896   9.712  0.00  0.00    -0.491 OA
ATOM     33  C   UNL     1      -0.007   6.112   9.045  0.00  0.00    +0.277 C 
ENDBRANCH  27  32
ENDBRANCH  23  24
ENDBRANCH   1  23
TORSDOF 10
