REMARK  Name = ZINC59891150
REMARK  10 active torsions:
REMARK  status: ('A' for Active; 'I' for Inactive)
REMARK    1  A    between atoms: C_1  and  C_2
REMARK    2  A    between atoms: C_3  and  C_16
REMARK    3  A    between atoms: C_16  and  C_17
REMARK    4  A    between atoms: C_17  and  C_18
REMARK    5  A    between atoms: N_20  and  C_21
REMARK    6  A    between atoms: C_21  and  C_22
REMARK    7  A    between atoms: C_22  and  N_30
REMARK    8  A    between atoms: C_26  and  C_29
REMARK    9  A    between atoms: N_30  and  C_31
REMARK   10  A    between atoms: N_30  and  C_32
REMARK                            x       y       z     vdW  Elec       q    Type
REMARK                         _______ _______ _______ _____ _____    ______ ____
ROOT
ATOM      1  C   UNL     1      -3.131   0.584  -1.452  0.00  0.00    +0.100 C 
ENDROOT
BRANCH   1   2
ATOM      2  C   UNL     1      -4.438   1.324  -1.585  0.00  0.00    +0.213 C 
ATOM      3  O   UNL     1      -4.940   1.848  -0.614  0.00  0.00    -0.276 OA
ATOM      4  N   UNL     1      -5.048   1.403  -2.785  0.00  0.00    -0.317 N 
ATOM      5  H   UNL     1      -4.646   0.984  -3.562  0.00  0.00    +0.149 HD
BRANCH   4   6
ATOM      6  C   UNL     1      -6.317   2.122  -2.914  0.00  0.00    +0.092 C 
BRANCH   6   7
ATOM      7  C   UNL     1      -6.848   1.966  -4.341  0.00  0.00    -0.050 C 
ATOM      8  C   UNL     1      -8.147   2.761  -4.492  0.00  0.00    -0.010 C 
ATOM      9  C   UNL     1      -9.186   2.233  -3.501  0.00  0.00    -0.001 C 
ATOM     10  C   UNL     1      -9.457   0.755  -3.785  0.00  0.00    +0.003 C 
ATOM     11  C   UNL     1      -8.159  -0.040  -3.635  0.00  0.00    -0.015 C 
ATOM     12  C   UNL     1      -7.119   0.487  -4.626  0.00  0.00    -0.007 C 
ATOM     13  C   UNL     1      -8.430  -1.519  -3.919  0.00  0.00    +0.007 C 
BRANCH   7  14
ATOM     14  N   UNL     1      -5.850   2.473  -5.293  0.00  0.00    +0.381 N 
ATOM     15  C   UNL     1      -6.373   2.353  -6.660  0.00  0.00    -0.096 C 
ATOM     16  C   UNL     1      -5.566   3.884  -4.999  0.00  0.00    -0.096 C 
ATOM     17  H   UNL     1      -5.001   1.934  -5.208  0.00  0.00    -0.082 HD
ENDBRANCH   7  14
ENDBRANCH   6   7
ENDBRANCH   4   6
ENDBRANCH   1   2
BRANCH   1  18
ATOM     18  C   UNL     1      -2.657   0.645   0.002  0.00  0.00    +0.051 C 
BRANCH  18  21
ATOM     19  C   UNL     1      -0.154   2.067  -0.149  0.00  0.00    +0.066 C 
ATOM     20  C   UNL     1      -0.164   0.576   0.065  0.00  0.00    +0.050 A 
ATOM     21  C   UNL     1      -1.351  -0.094   0.135  0.00  0.00    +0.038 A 
ATOM     22  C   UNL     1      -1.335  -1.486   0.335  0.00  0.00    +0.256 A 
ATOM     23  O   UNL     1      -2.377  -2.117   0.402  0.00  0.00    -0.267 OA
ATOM     24  N   UNL     1      -0.143  -2.111   0.450  0.00  0.00    -0.295 N 
ATOM     25  H   UNL     1      -0.109  -3.071   0.588  0.00  0.00    +0.172 HD
ATOM     26  C   UNL     1       1.008  -1.391   0.372  0.00  0.00    +0.199 A 
ATOM     27  N   UNL     1       0.985  -0.087   0.179  0.00  0.00    -0.221 NA
ATOM     28  N   UNL     1       2.212  -2.032   0.489  0.00  0.00    -0.297 N 
ATOM     29  C   UNL     1       2.278  -3.466   0.812  0.00  0.00    +0.136 C 
ATOM     30  C   UNL     1       3.198  -4.149  -0.206  0.00  0.00    +0.179 C 
ATOM     31  O   UNL     1       4.445  -3.451  -0.256  0.00  0.00    -0.377 OA
ATOM     32  C   UNL     1       4.340  -2.095  -0.697  0.00  0.00    +0.179 C 
ATOM     33  C   UNL     1       3.478  -1.309   0.291  0.00  0.00    +0.136 C 
ENDBRANCH  18  21
ENDBRANCH   1  18
TORSDOF 6
