REMARK  Name = ZINC39607175
REMARK  11 active torsions:
REMARK  status: ('A' for Active; 'I' for Inactive)
REMARK    1  A    between atoms: C_1  and  C_2
REMARK    2  A    between atoms: C_6  and  C_34
REMARK    3  A    between atoms: C_7  and  N_8
REMARK    4  A    between atoms: C_9  and  C_11
REMARK    5  A    between atoms: C_11  and  N_12
REMARK    6  A    between atoms: C_13  and  C_15
REMARK    7  A    between atoms: C_15  and  C_17
REMARK    8  A    between atoms: C_15  and  O_18
REMARK    9  A    between atoms: O_18  and  C_19
REMARK   10  A    between atoms: C_19  and  C_21
REMARK   11  A    between atoms: C_30  and  C_33
REMARK                            x       y       z     vdW  Elec       q    Type
REMARK                         _______ _______ _______ _____ _____    ______ ____
ROOT
ATOM      1  C   UNL     1      -0.455  -1.225   8.394  0.00  0.00    +0.259 C 
ATOM      2  C   UNL     1      -1.797  -1.953   8.291  0.00  0.00    +0.062 C 
ENDROOT
BRANCH   1   4
ATOM      3  N   UNL     1      -0.231  -0.746   5.978  0.00  0.00    -0.304 N 
ATOM      4  C   UNL     1      -0.311  -0.271   7.236  0.00  0.00    +0.254 C 
ATOM      5  O   UNL     1      -0.268   0.924   7.437  0.00  0.00    -0.272 OA
ATOM      6  H   UNL     1      -0.265  -1.702   5.817  0.00  0.00    +0.149 HD
BRANCH   3   7
ATOM      7  C   UNL     1      -0.090   0.181   4.852  0.00  0.00    +0.200 C 
BRANCH   7   9
ATOM      8  N   UNL     1       0.108   0.050   2.390  0.00  0.00    -0.284 N 
ATOM      9  C   UNL     1      -0.022  -0.598   3.564  0.00  0.00    +0.234 C 
ATOM     10  O   UNL     1      -0.085  -1.810   3.584  0.00  0.00    -0.274 OA
ATOM     11  H   UNL     1       0.224   1.013   2.378  0.00  0.00    +0.155 HD
BRANCH   8  18
ATOM     12  C   UNL     1       2.558  -0.356   1.002  0.00  0.00    +0.045 C 
ATOM     13  C   UNL     1       1.249  -0.887   0.479  0.00  0.00    -0.029 A 
ATOM     14  C   UNL     1       1.214  -1.599  -0.704  0.00  0.00    +0.005 A 
ATOM     15  C   UNL     1       0.013  -2.087  -1.185  0.00  0.00    +0.001 A 
ATOM     16  C   UNL     1      -1.158  -1.863  -0.484  0.00  0.00    +0.005 A 
ATOM     17  C   UNL     1      -1.130  -1.152   0.700  0.00  0.00    -0.029 A 
ATOM     18  C   UNL     1       0.076  -0.666   1.188  0.00  0.00    +0.039 A 
ATOM     19  C   UNL     1      -2.406  -0.908   1.463  0.00  0.00    +0.045 C 
ENDBRANCH   8  18
ENDBRANCH   7   9
ENDBRANCH   3   7
ENDBRANCH   1   4
BRANCH   1  20
ATOM     20  O   UNL     1      -0.403  -0.495   9.622  0.00  0.00    -0.449 OA
BRANCH  20  21
ATOM     21  C   UNL     1       0.097  -1.139  10.695  0.00  0.00    +0.340 C 
ATOM     22  O   UNL     1       0.477  -2.289  10.591  0.00  0.00    -0.245 OA
BRANCH  21  23
ATOM     23  C   UNL     1       0.182  -0.450  11.994  0.00  0.00    +0.061 A 
ATOM     24  C   UNL     1      -0.262   0.872  12.114  0.00  0.00    +0.016 A 
ATOM     25  C   UNL     1      -0.182   1.512  13.330  0.00  0.00    +0.017 A 
ATOM     26  C   UNL     1       0.337   0.849  14.434  0.00  0.00    +0.030 A 
ATOM     27  C   UNL     1       0.787  -0.472  14.328  0.00  0.00    +0.048 A 
ATOM     28  C   UNL     1       0.700  -1.119  13.106  0.00  0.00    +0.039 A 
ATOM     29  N   UNL     1       1.321  -1.149  15.423  0.00  0.00    -0.284 N 
ATOM     30  C   UNL     1       1.116  -0.857  16.704  0.00  0.00    +0.230 C 
ATOM     31  O   UNL     1       1.647  -1.555  17.542  0.00  0.00    -0.274 OA
ATOM     32  C   UNL     1       0.262   0.289  17.172  0.00  0.00    +0.134 C 
ATOM     33  S   UNL     1       0.435   1.666  15.996  0.00  0.00    -0.111 S 
ATOM     34  C   UNL     1       0.721   0.737  18.561  0.00  0.00    +0.029 C 
ATOM     35  H   UNL     1       1.896  -1.905  15.232  0.00  0.00    +0.155 HD
ENDBRANCH  21  23
ENDBRANCH  20  21
ENDBRANCH   1  20
TORSDOF 7
