REMARK  Name = ZINC60318921
REMARK  8 active torsions:
REMARK  status: ('A' for Active; 'I' for Inactive)
REMARK    1  A    between atoms: C_1  and  C_2
REMARK    2  A    between atoms: C_2  and  C_3
REMARK    3  A    between atoms: C_2  and  C_4
REMARK    4  A    between atoms: C_2  and  C_5
REMARK    5  A    between atoms: C_11  and  C_14
REMARK    6  A    between atoms: N_16  and  C_17
REMARK    7  A    between atoms: C_22  and  N_23
REMARK    8  A    between atoms: N_23  and  C_24
REMARK                            x       y       z     vdW  Elec       q    Type
REMARK                         _______ _______ _______ _____ _____    ______ ____
ROOT
ATOM      1  C   UNL     1       4.628  -5.021  -4.976  0.00  0.00    +0.054 A 
ATOM      2  C   UNL     1       4.389  -4.359  -6.171  0.00  0.00    +0.025 A 
ATOM      3  C   UNL     1       5.137  -4.665  -7.292  0.00  0.00    +0.002 A 
ATOM      4  C   UNL     1       6.125  -5.631  -7.227  0.00  0.00    +0.002 A 
ATOM      5  C   UNL     1       6.370  -6.295  -6.040  0.00  0.00    +0.025 A 
ATOM      6  C   UNL     1       5.628  -5.991  -4.908  0.00  0.00    +0.049 A 
ENDROOT
BRANCH   1   9
ATOM      7  C   UNL     1       3.294  -3.500  -3.720  0.00  0.00    +0.222 C 
ATOM      8  O   UNL     1       3.358  -2.707  -4.635  0.00  0.00    -0.275 OA
ATOM      9  N   UNL     1       3.870  -4.713  -3.838  0.00  0.00    -0.284 N 
ATOM     10  H   UNL     1       3.760  -5.372  -3.135  0.00  0.00    +0.155 HD
BRANCH   7  17
ATOM     11  C   UNL     1       1.441  -0.310  -0.650  0.00  0.00    +0.221 C 
ATOM     12  O   UNL     1       2.378   0.410  -0.924  0.00  0.00    -0.275 OA
ATOM     13  N   UNL     1       1.201  -1.413  -1.387  0.00  0.00    -0.300 N 
ATOM     14  C   UNL     1       0.123  -2.341  -1.017  0.00  0.00    +0.108 C 
ATOM     15  C   UNL     1       0.706  -3.754  -0.908  0.00  0.00    +0.020 C 
ATOM     16  C   UNL     1       1.420  -4.109  -2.214  0.00  0.00    +0.016 C 
ATOM     17  C   UNL     1       2.571  -3.129  -2.451  0.00  0.00    +0.093 C 
ATOM     18  C   UNL     1       2.006  -1.706  -2.580  0.00  0.00    +0.120 C 
BRANCH  11  20
ATOM     19  C   UNL     1       0.939   1.393   1.080  0.00  0.00    +0.020 C 
ATOM     20  C   UNL     1       0.547   0.027   0.515  0.00  0.00    +0.039 C 
ATOM     21  C   UNL     1       0.701  -1.038   1.602  0.00  0.00    +0.020 C 
ATOM     22  C   UNL     1      -0.909   0.068   0.045  0.00  0.00    +0.020 C 
ENDBRANCH  11  20
ENDBRANCH   7  17
ENDBRANCH   1   9
BRANCH   6  23
ATOM     23  N   UNL     1       5.878  -6.658  -3.705  0.00  0.00    -0.337 N 
ATOM     24  H   UNL     1       5.353  -6.449  -2.916  0.00  0.00    +0.147 HD
BRANCH  23  25
ATOM     25  C   UNL     1       6.932  -7.673  -3.635  0.00  0.00    +0.033 C 
ATOM     26  C   UNL     1       8.275  -7.039  -4.003  0.00  0.00    +0.029 C 
ATOM     27  C   UNL     1       9.376  -8.099  -3.931  0.00  0.00    -0.008 C 
ATOM     28  C   UNL     1       9.450  -8.661  -2.510  0.00  0.00    +0.007 C 
ATOM     29  C   UNL     1       8.107  -9.294  -2.141  0.00  0.00    -0.008 C 
ATOM     30  C   UNL     1       7.006  -8.235  -2.214  0.00  0.00    +0.029 C 
ATOM     31  C   UNL     1       7.792 -10.426  -3.121  0.00  0.00    +0.007 C 
ATOM     32  C   UNL     1       7.718  -9.864  -4.542  0.00  0.00    -0.008 C 
ATOM     33  C   UNL     1       9.060  -9.230  -4.911  0.00  0.00    +0.007 C 
ATOM     34  C   UNL     1       6.616  -8.805  -4.615  0.00  0.00    +0.029 C 
ENDBRANCH  23  25
ENDBRANCH   6  23
TORSDOF 5
