REMARK  Name = ZINC39690993
REMARK  5 active torsions:
REMARK  status: ('A' for Active; 'I' for Inactive)
REMARK    1  A    between atoms: C_1  and  C_2
REMARK    2  A    between atoms: C_2  and  C_4
REMARK    3  A    between atoms: C_4  and  N_5
REMARK    4  A    between atoms: C_6  and  C_8
REMARK    5  A    between atoms: C_19  and  C_21
REMARK                            x       y       z     vdW  Elec       q    Type
REMARK                         _______ _______ _______ _____ _____    ______ ____
ROOT
ATOM      1  C   UNL     1      -3.348  -1.498   2.125  0.00  0.00    +0.100 C 
ATOM      2  C   UNL     1      -3.566  -0.431   3.222  0.00  0.00    +0.121 C 
ATOM      3  N   UNL     1      -5.001  -0.076   3.118  0.00  0.00    -0.300 N 
ATOM      4  C   UNL     1      -5.682  -1.366   2.854  0.00  0.00    +0.115 C 
ATOM      5  C   UNL     1      -4.738  -2.112   1.890  0.00  0.00    -0.004 C 
ATOM      6  C   UNL     1      -4.719  -3.602   2.216  0.00  0.00    -0.010 C 
ATOM      7  C   UNL     1      -6.096  -4.202   1.918  0.00  0.00    -0.082 C 
ATOM      8  N   UNL     1      -6.427  -3.994   0.503  0.00  0.00    +0.379 N 
ATOM      9  C   UNL     1      -6.535  -2.558   0.220  0.00  0.00    -0.082 C 
ATOM     10  C   UNL     1      -5.176  -1.888   0.446  0.00  0.00    -0.010 C 
ATOM     11  C   UNL     1      -5.561   1.144   3.238  0.00  0.00    +0.219 C 
ATOM     12  O   UNL     1      -4.859   2.123   3.379  0.00  0.00    -0.275 OA
ATOM     13  H   UNL     1      -5.703  -4.396  -0.073  0.00  0.00    -0.086 HD
ATOM     14  H   UNL     1      -7.307  -4.444   0.295  0.00  0.00    -0.086 HD
ENDROOT
BRANCH  11  15
ATOM     15  C   UNL     1      -7.060   1.293   3.197  0.00  0.00    +0.079 C 
ATOM     16  C   UNL     1      -7.426   2.706   2.725  0.00  0.00    +0.017 C 
ATOM     17  C   UNL     1      -8.941   2.772   2.522  0.00  0.00    +0.027 C 
ATOM     18  C   UNL     1      -9.648   2.225   3.727  0.00  0.00    -0.031 C 
ATOM     19  C   UNL     1      -9.082   1.488   4.628  0.00  0.00    -0.030 C 
ATOM     20  C   UNL     1      -7.637   1.081   4.598  0.00  0.00    +0.039 C 
ENDBRANCH  11  15
BRANCH   1  22
ATOM     21  N   UNL     1      -2.055  -1.556   0.018  0.00  0.00    -0.311 N 
ATOM     22  C   UNL     1      -2.837  -0.855   0.862  0.00  0.00    +0.218 C 
ATOM     23  O   UNL     1      -3.130   0.294   0.604  0.00  0.00    -0.275 OA
ATOM     24  H   UNL     1      -1.820  -2.474   0.223  0.00  0.00    +0.149 HD
BRANCH  21  25
ATOM     25  C   UNL     1      -1.558  -0.931  -1.211  0.00  0.00    +0.134 C 
BRANCH  25  27
ATOM     26  C   UNL     1       0.747  -2.080  -1.635  0.00  0.00    +0.040 C 
ATOM     27  C   UNL     1      -0.714  -1.920  -1.972  0.00  0.00    -0.063 C 
ATOM     28  C   UNL     1      -1.248  -2.640  -2.926  0.00  0.00    +0.009 C 
ENDBRANCH  25  27
ENDBRANCH  21  25
ENDBRANCH   1  22
TORSDOF 4
