REMARK  Name = ZINC08053600
REMARK  7 active torsions:
REMARK  status: ('A' for Active; 'I' for Inactive)
REMARK    1  A    between atoms: C_1  and  C_2
REMARK    2  A    between atoms: C_5  and  N_8
REMARK    3  A    between atoms: N_8  and  S_9
REMARK    4  A    between atoms: S_9  and  C_12
REMARK    5  A    between atoms: C_15  and  N_21
REMARK    6  A    between atoms: C_16  and  N_18
REMARK    7  A    between atoms: C_25  and  C_28
REMARK                            x       y       z     vdW  Elec       q    Type
REMARK                         _______ _______ _______ _____ _____    ______ ____
ROOT
ATOM      1  C   UNL     1       2.998  -4.296   2.255  0.00  0.00    +0.108 A 
ATOM      2  C   UNL     1       3.696  -3.275   2.874  0.00  0.00    +0.030 A 
ATOM      3  C   UNL     1       3.690  -3.168   4.251  0.00  0.00    +0.027 A 
ATOM      4  C   UNL     1       2.982  -4.089   5.014  0.00  0.00    +0.060 A 
ATOM      5  C   UNL     1       2.283  -5.113   4.389  0.00  0.00    +0.149 A 
ATOM      6  C   UNL     1       2.288  -5.210   3.011  0.00  0.00    +0.063 A 
ENDROOT
BRANCH   4   7
ATOM      7  N   UNL     1       2.974  -3.984   6.407  0.00  0.00    -0.327 N 
ATOM      8  C   UNL     1       2.001  -3.119   7.087  0.00  0.00    +0.105 C 
ATOM      9  C   UNL     1       2.756  -2.162   8.014  0.00  0.00    +0.020 C 
ATOM     10  C   UNL     1       3.647  -2.971   8.960  0.00  0.00    +0.016 C 
ATOM     11  C   UNL     1       4.672  -3.763   8.145  0.00  0.00    +0.092 C 
ATOM     12  C   UNL     1       3.935  -4.743   7.220  0.00  0.00    +0.118 C 
BRANCH  11  13
ATOM     13  C   UNL     1       5.570  -4.533   9.079  0.00  0.00    +0.215 C 
ATOM     14  O   UNL     1       5.622  -5.743   9.010  0.00  0.00    -0.276 OA
ATOM     15  N   UNL     1       6.316  -3.878   9.990  0.00  0.00    -0.329 N 
ATOM     16  H   UNL     1       6.274  -2.910  10.045  0.00  0.00    +0.145 HD
ATOM     17  H   UNL     1       6.894  -4.374  10.591  0.00  0.00    +0.145 HD
ENDBRANCH  11  13
ENDBRANCH   4   7
BRANCH   1  18
ATOM     18  S   UNL     1       3.008  -4.428   0.498  0.00  0.00    +0.059 S 
ATOM     19  O   UNL     1       2.722  -5.785   0.190  0.00  0.00    -0.153 OA
ATOM     20  O   UNL     1       4.189  -3.777   0.048  0.00  0.00    -0.153 OA
BRANCH  18  21
ATOM     21  N   UNL     1       1.732  -3.535  -0.067  0.00  0.00    -0.187 NA
ATOM     22  H   UNL     1       0.997  -3.975  -0.522  0.00  0.00    +0.148 HD
BRANCH  21  27
ATOM     23  C   UNL     1       0.224   1.956   0.564  0.00  0.00    +0.007 C 
ATOM     24  C   UNL     1       0.243   0.439   0.368  0.00  0.00    -0.014 C 
ATOM     25  C   UNL     1       1.036   0.097  -0.895  0.00  0.00    +0.005 C 
ATOM     26  C   UNL     1       1.055  -1.420  -1.091  0.00  0.00    +0.020 C 
ATOM     27  C   UNL     1       1.714  -2.083   0.120  0.00  0.00    +0.077 C 
ATOM     28  C   UNL     1       0.921  -1.741   1.383  0.00  0.00    +0.020 C 
ATOM     29  C   UNL     1       0.903  -0.224   1.579  0.00  0.00    +0.005 C 
ENDBRANCH  21  27
ENDBRANCH  18  21
ENDBRANCH   1  18
BRANCH   5  30
ATOM     30  N   UNL     1       1.528  -6.096   5.198  0.00  0.00    +0.058 N 
ATOM     31  O   UNL     1       1.002  -7.043   4.662  0.00  0.00    -0.126 OA
ATOM     32  O   UNL     1       1.437  -5.951   6.394  0.00  0.00    -0.126 OA
ENDBRANCH   5  30
TORSDOF 6
