REMARK  Name = ZINC04450153
REMARK  3 active torsions:
REMARK  status: ('A' for Active; 'I' for Inactive)
REMARK    1  A    between atoms: C_1  and  C_2
REMARK    2  A    between atoms: C_4  and  N_24
REMARK    3  A    between atoms: C_9  and  C_18
REMARK                            x       y       z     vdW  Elec       q    Type
REMARK                         _______ _______ _______ _____ _____    ______ ____
ROOT
ATOM      1  C   UNL     1      -0.658   1.254   0.263  0.00  0.00    +0.046 C 
ATOM      2  C   UNL     1       0.801   0.886   0.185  0.00  0.00    -0.027 A 
ATOM      3  C   UNL     1       1.167  -0.426  -0.028  0.00  0.00    +0.038 A 
ATOM      4  C   UNL     1       2.506  -0.762  -0.105  0.00  0.00    +0.127 A 
ATOM      5  C   UNL     1       3.472   0.215   0.031  0.00  0.00    +0.038 A 
ATOM      6  C   UNL     1       3.114   1.539   0.245  0.00  0.00    -0.017 A 
ATOM      7  C   UNL     1       1.773   1.875   0.325  0.00  0.00    +0.034 A 
ATOM      8  N   UNL     1       1.348   3.180   0.575  0.00  0.00    -0.336 N 
ATOM      9  C   UNL     1       2.324   4.170   0.116  0.00  0.00    +0.106 C 
ATOM     10  C   UNL     1       3.663   3.928   0.815  0.00  0.00    +0.029 C 
ATOM     11  C   UNL     1       4.212   2.552   0.381  0.00  0.00    +0.049 C 
ATOM     12  C   UNL     1       4.870   2.806  -0.956  0.00  0.00    -0.023 C 
ATOM     13  C   UNL     1       5.150   4.078  -1.095  0.00  0.00    -0.030 C 
ATOM     14  C   UNL     1       4.725   4.853   0.136  0.00  0.00    +0.033 C 
ATOM     15  H   UNL     1       0.443   3.346   0.162  0.00  0.00    +0.147 HD
ENDROOT
BRANCH   9  16
ATOM     16  C   UNL     1       2.505   4.043  -1.375  0.00  0.00    -0.009 A 
ATOM     17  C   UNL     1       3.036   5.093  -2.109  0.00  0.00    +0.008 A 
ATOM     18  C   UNL     1       3.188   4.930  -3.477  0.00  0.00    +0.020 A 
ATOM     19  C   UNL     1       2.799   3.739  -4.061  0.00  0.00    +0.111 A 
ATOM     20  N   UNL     1       2.292   2.764  -3.332  0.00  0.00    -0.263 NA
ATOM     21  C   UNL     1       2.138   2.882  -2.027  0.00  0.00    +0.116 A 
ENDBRANCH   9  16
BRANCH   4  22
ATOM     22  N   UNL     1       2.904  -2.169  -0.332  0.00  0.00    +0.056 N 
ATOM     23  O   UNL     1       2.052  -3.031  -0.452  0.00  0.00    -0.126 OA
ATOM     24  O   UNL     1       4.084  -2.465  -0.400  0.00  0.00    -0.126 OA
ENDBRANCH   4  22
TORSDOF 2
