REMARK  Name = ZINC39660363
REMARK  11 active torsions:
REMARK  status: ('A' for Active; 'I' for Inactive)
REMARK    1  A    between atoms: C_1  and  C_2
REMARK    2  A    between atoms: C_2  and  C_3
REMARK    3  A    between atoms: C_3  and  C_4
REMARK    4  A    between atoms: C_4  and  C_5
REMARK    5  A    between atoms: C_5  and  C_6
REMARK    6  A    between atoms: C_6  and  N_7
REMARK    7  A    between atoms: C_8  and  C_10
REMARK    8  A    between atoms: C_21  and  C_23
REMARK    9  A    between atoms: C_23  and  C_25
REMARK   10  A    between atoms: C_23  and  C_27
REMARK   11  A    between atoms: C_25  and  C_26
REMARK                            x       y       z     vdW  Elec       q    Type
REMARK                         _______ _______ _______ _____ _____    ______ ____
ROOT
ATOM      1  C   UNL     1       2.847  -6.777   5.256  0.00  0.00    +0.100 C 
ATOM      2  C   UNL     1       4.307  -6.316   5.047  0.00  0.00    +0.121 C 
ATOM      3  N   UNL     1       5.129  -7.399   5.637  0.00  0.00    -0.300 N 
ATOM      4  C   UNL     1       4.427  -8.647   5.250  0.00  0.00    +0.115 C 
ATOM      5  C   UNL     1       2.930  -8.307   5.387  0.00  0.00    -0.004 C 
ATOM      6  C   UNL     1       2.133  -8.977   4.273  0.00  0.00    -0.010 C 
ATOM      7  C   UNL     1       2.182 -10.496   4.459  0.00  0.00    -0.082 C 
ATOM      8  N   UNL     1       1.622 -10.849   5.769  0.00  0.00    +0.379 N 
ATOM      9  C   UNL     1       2.449 -10.277   6.838  0.00  0.00    -0.082 C 
ATOM     10  C   UNL     1       2.411  -8.748   6.752  0.00  0.00    -0.010 C 
ATOM     11  C   UNL     1       6.259  -7.278   6.361  0.00  0.00    +0.223 C 
ATOM     12  O   UNL     1       6.664  -6.178   6.673  0.00  0.00    -0.275 OA
ATOM     13  H   UNL     1       0.683 -10.486   5.841  0.00  0.00    -0.086 HD
ATOM     14  H   UNL     1       1.599 -11.854   5.864  0.00  0.00    -0.086 HD
ENDROOT
BRANCH   1  16
ATOM     15  N   UNL     1       0.663  -6.305   4.193  0.00  0.00    -0.315 N 
ATOM     16  C   UNL     1       2.002  -6.397   4.067  0.00  0.00    +0.218 C 
ATOM     17  O   UNL     1       2.527  -6.176   2.996  0.00  0.00    -0.275 OA
ATOM     18  H   UNL     1       0.244  -6.482   5.050  0.00  0.00    +0.149 HD
BRANCH  15  19
ATOM     19  C   UNL     1      -0.158  -5.936   3.037  0.00  0.00    +0.104 C 
BRANCH  19  20
ATOM     20  C   UNL     1      -1.631  -5.903   3.448  0.00  0.00    +0.019 C 
BRANCH  20  21
ATOM     21  C   UNL     1      -2.489  -5.518   2.241  0.00  0.00    +0.002 C 
BRANCH  21  22
ATOM     22  C   UNL     1      -3.962  -5.484   2.652  0.00  0.00    -0.000 C 
BRANCH  22  24
ATOM     23  C   UNL     1      -6.293  -5.066   1.856  0.00  0.00    +0.004 C 
ATOM     24  C   UNL     1      -4.820  -5.099   1.445  0.00  0.00    -0.003 C 
ENDBRANCH  22  24
ENDBRANCH  21  22
ENDBRANCH  20  21
ENDBRANCH  19  20
ENDBRANCH  15  19
ENDBRANCH   1  16
BRANCH  11  25
ATOM     25  C   UNL     1       7.018  -8.508   6.785  0.00  0.00    +0.105 C 
BRANCH  25  26
ATOM     26  C   UNL     1       8.141  -8.113   7.708  0.00  0.00    -0.036 A 
ATOM     27  C   UNL     1       9.123  -7.243   7.270  0.00  0.00    +0.004 A 
ATOM     28  C   UNL     1      10.153  -6.880   8.117  0.00  0.00    +0.000 A 
ATOM     29  C   UNL     1      10.202  -7.386   9.403  0.00  0.00    +0.000 A 
ATOM     30  C   UNL     1       9.220  -8.254   9.841  0.00  0.00    +0.000 A 
ATOM     31  C   UNL     1       8.187  -8.614   8.996  0.00  0.00    +0.004 A 
ENDBRANCH  25  26
BRANCH  25  32
ATOM     32  C   UNL     1       7.595  -9.202   5.549  0.00  0.00    +0.014 C 
ATOM     33  C   UNL     1       8.239 -10.527   5.962  0.00  0.00    +0.005 C 
ENDBRANCH  25  32
ENDBRANCH  11  25
TORSDOF 9
