REMARK  Name = ZINC03830524
REMARK  6 active torsions:
REMARK  status: ('A' for Active; 'I' for Inactive)
REMARK    1  A    between atoms: C_1  and  C_2
REMARK    2  A    between atoms: C_1  and  O_23
REMARK    3  A    between atoms: C_2  and  C_4
REMARK    4  A    between atoms: C_2  and  O_22
REMARK    5  A    between atoms: C_6  and  O_21
REMARK    6  A    between atoms: C_14  and  C_17
REMARK                            x       y       z     vdW  Elec       q    Type
REMARK                         _______ _______ _______ _____ _____    ______ ____
ROOT
ATOM      1  C   UNL     1       3.471  -1.027   0.026  0.00  0.00    +0.183 C 
ATOM      2  C   UNL     1       3.496   0.519   0.200  0.00  0.00    +0.180 C 
ATOM      3  C   UNL     1       2.061   0.837   0.601  0.00  0.00    +0.208 C 
ATOM      4  C   UNL     1       1.339  -0.337  -0.161  0.00  0.00    +0.285 C 
ATOM      5  O   UNL     1       2.086  -1.448   0.209  0.00  0.00    -0.340 OA
ATOM      6  O   UNL     1       0.002  -0.004   0.002  0.00  0.00    -0.316 OA
ATOM      7  C   UNL     1      -0.018   1.451   0.010  0.00  0.00    +0.305 C 
ATOM      8  O   UNL     1       1.363   1.918  -0.001  0.00  0.00    -0.336 OA
ENDROOT
BRANCH   7   9
ATOM      9  C   UNL     1      -0.748   1.966  -1.232  0.00  0.00    +0.241 C 
ATOM     10 CL   UNL     1      -2.454   1.382  -1.212  0.00  0.00    -0.078 Cl
ATOM     11 CL   UNL     1      -0.730   3.769  -1.236  0.00  0.00    -0.078 Cl
ATOM     12 CL   UNL     1       0.080   1.354  -2.712  0.00  0.00    -0.078 Cl
ENDBRANCH   7   9
BRANCH   2  13
ATOM     13  O   UNL     1       4.406   0.897   1.235  0.00  0.00    -0.386 OA
ATOM     14  H   UNL     1       4.458   1.851   1.383  0.00  0.00    +0.210 HD
ENDBRANCH   2  13
BRANCH   1  15
ATOM     15  C   UNL     1       4.362  -1.687   1.080  0.00  0.00    +0.171 C 
BRANCH  15  16
ATOM     16  O   UNL     1       3.975  -1.238   2.380  0.00  0.00    -0.387 OA
ATOM     17  H   UNL     1       3.059  -1.444   2.611  0.00  0.00    +0.210 HD
ENDBRANCH  15  16
BRANCH  15  18
ATOM     18  C   UNL     1       4.208  -3.207   1.000  0.00  0.00    +0.189 C 
BRANCH  18  19
ATOM     19  O   UNL     1       5.125  -3.828   1.903  0.00  0.00    -0.392 OA
ATOM     20  H   UNL     1       5.082  -4.794   1.905  0.00  0.00    +0.210 HD
ENDBRANCH  18  19
ENDBRANCH  15  18
ENDBRANCH   1  15
TORSDOF 6
