REMARK  Name = ZINC59040261
REMARK  8 active torsions:
REMARK  status: ('A' for Active; 'I' for Inactive)
REMARK    1  A    between atoms: C_5  and  C_7
REMARK    2  A    between atoms: C_7  and  S_8
REMARK    3  A    between atoms: S_8  and  C_9
REMARK    4  A    between atoms: C_14  and  N_15
REMARK    5  A    between atoms: C_16  and  C_18
REMARK    6  A    between atoms: C_18  and  S_19
REMARK    7  A    between atoms: S_19  and  C_20
REMARK    8  A    between atoms: N_25  and  N_26
REMARK                            x       y       z     vdW  Elec       q    Type
REMARK                         _______ _______ _______ _____ _____    ______ ____
ROOT
ATOM      1  N   UNL     1       1.295  -4.801   3.916  0.00  0.00    -0.284 N 
ATOM      2  C   UNL     1       1.216  -5.590   5.006  0.00  0.00    +0.228 C 
ATOM      3  O   UNL     1       1.230  -6.797   4.883  0.00  0.00    -0.275 OA
ATOM      4  H   UNL     1       1.365  -3.839   4.019  0.00  0.00    +0.155 HD
ENDROOT
BRANCH   1  10
ATOM      5  C   UNL     1       1.852  -4.691   1.561  0.00  0.00    +0.029 A 
ATOM      6  C   UNL     1       1.835  -5.263   0.296  0.00  0.00    +0.016 A 
ATOM      7  C   UNL     1       1.247  -6.499   0.104  0.00  0.00    +0.001 A 
ATOM      8  C   UNL     1       0.673  -7.169   1.170  0.00  0.00    +0.002 A 
ATOM      9  C   UNL     1       0.685  -6.607   2.433  0.00  0.00    +0.024 A 
ATOM     10  C   UNL     1       1.278  -5.370   2.636  0.00  0.00    +0.047 A 
BRANCH   5  11
ATOM     11  S   UNL     1       2.602  -3.116   1.809  0.00  0.00    -0.119 S 
BRANCH  11  12
ATOM     12  C   UNL     1       3.191  -2.646   0.159  0.00  0.00    +0.111 C 
BRANCH  12  17
ATOM     13  C   UNL     1       3.739   1.089   0.104  0.00  0.00    +0.000 A 
ATOM     14  C   UNL     1       5.095   1.174   0.360  0.00  0.00    +0.001 A 
ATOM     15  C   UNL     1       5.835   0.023   0.550  0.00  0.00    +0.020 A 
ATOM     16  C   UNL     1       5.220  -1.215   0.485  0.00  0.00    +0.045 A 
ATOM     17  C   UNL     1       3.863  -1.299   0.230  0.00  0.00    -0.019 A 
ATOM     18  C   UNL     1       3.123  -0.147   0.040  0.00  0.00    +0.006 A 
ATOM     19 CL   UNL     1       6.150  -2.661   0.724  0.00  0.00    -0.083 Cl
ENDBRANCH  12  17
ENDBRANCH  11  12
ENDBRANCH   5  11
ENDBRANCH   1  10
BRANCH   2  20
ATOM     20  C   UNL     1       1.109  -4.974   6.377  0.00  0.00    +0.173 C 
BRANCH  20  21
ATOM     21  S   UNL     1       1.019  -6.287   7.625  0.00  0.00    -0.075 S 
BRANCH  21  22
ATOM     22  C   UNL     1       0.899  -5.417   9.152  0.00  0.00    +0.211 A 
ATOM     23  N   UNL     1       0.815  -5.979  10.363  0.00  0.00    -0.186 NA
ATOM     24  C   UNL     1       0.740  -5.040  11.283  0.00  0.00    +0.232 A 
ATOM     25  N   UNL     1       0.777  -3.843  10.660  0.00  0.00    -0.245 N 
ATOM     26  N   UNL     1       0.884  -4.112   9.287  0.00  0.00    -0.144 NA
ATOM     27  N   UNL     1       0.641  -5.245  12.647  0.00  0.00    -0.205 N 
ATOM     28  H   UNL     1       0.591  -4.486  13.249  0.00  0.00    +0.177 HD
ATOM     29  H   UNL     1       0.739  -2.969  11.080  0.00  0.00    +0.192 HD
BRANCH  27  30
ATOM     30  N   UNL     1       0.613  -6.549  13.160  0.00  0.00    -0.189 NA
ATOM     31  C   UNL     1       0.424  -6.740  14.411  0.00  0.00    +0.037 C 
ATOM     32  C   UNL     1       0.334  -5.574  15.370  0.00  0.00    +0.052 C 
ATOM     33  C   UNL     1      -0.941  -5.728  16.206  0.00  0.00    +0.006 C 
ATOM     34  C   UNL     1      -0.943  -7.100  16.881  0.00  0.00    +0.001 C 
ATOM     35  C   UNL     1      -0.988  -8.200  15.820  0.00  0.00    +0.006 C 
ATOM     36  C   UNL     1       0.279  -8.139  14.969  0.00  0.00    +0.052 C 
ENDBRANCH  27  30
ENDBRANCH  21  22
ENDBRANCH  20  21
ENDBRANCH   2  20
TORSDOF 8
