REMARK  Name = ZINC50361818
REMARK  8 active torsions:
REMARK  status: ('A' for Active; 'I' for Inactive)
REMARK    1  A    between atoms: C_1  and  C_2
REMARK    2  A    between atoms: C_5  and  C_7
REMARK    3  A    between atoms: C_7  and  N_8
REMARK    4  A    between atoms: N_8  and  C_9
REMARK    5  A    between atoms: N_8  and  C_10
REMARK    6  A    between atoms: C_10  and  C_12
REMARK    7  A    between atoms: C_10  and  C_14
REMARK    8  A    between atoms: C_12  and  N_13
REMARK                            x       y       z     vdW  Elec       q    Type
REMARK                         _______ _______ _______ _____ _____    ______ ____
ROOT
ATOM      1  C   UNL     1       3.143  -4.517  -1.490  0.00  0.00    +0.106 C 
ENDROOT
BRANCH   1   2
ATOM      2  C   UNL     1       2.929  -5.833  -0.789  0.00  0.00    +0.123 A 
ATOM      3  C   UNL     1       3.219  -7.047  -1.290  0.00  0.00    +0.062 A 
ATOM      4  C   UNL     1       2.861  -7.995  -0.302  0.00  0.00    +0.070 A 
ATOM      5  C   UNL     1       2.372  -7.301   0.744  0.00  0.00    +0.184 A 
ATOM      6  O   UNL     1       2.420  -5.992   0.445  0.00  0.00    -0.450 OA
ATOM      7 BR   UNL     1       1.732  -8.044   2.361  0.00  0.00    -0.007 Br
ATOM      8 BR   UNL     1       3.034  -9.873  -0.427  0.00  0.00    -0.046 Br
ENDBRANCH   1   2
BRANCH   1   9
ATOM      9  N   UNL     1       1.926  -3.701  -1.382  0.00  0.00    -0.290 NA
ATOM     10  C   UNL     1       0.826  -4.291  -2.157  0.00  0.00    +0.106 C 
BRANCH   9  11
ATOM     11  C   UNL     1       1.540  -3.515   0.023  0.00  0.00    +0.159 C 
BRANCH  11  16
ATOM     12  C   UNL     1      -0.010   1.246   0.632  0.00  0.00    +0.086 C 
ATOM     13  C   UNL     1      -0.037  -0.244   0.407  0.00  0.00    +0.102 A 
ATOM     14  C   UNL     1      -1.139  -0.992   0.219  0.00  0.00    +0.044 A 
ATOM     15  C   UNL     1      -0.705  -2.326   0.048  0.00  0.00    +0.046 A 
ATOM     16  C   UNL     1       0.637  -2.314   0.141  0.00  0.00    +0.119 A 
ATOM     17  O   UNL     1       1.037  -1.049   0.353  0.00  0.00    -0.464 OA
ENDBRANCH  11  16
ENDBRANCH   9  11
ENDBRANCH   1   9
BRANCH   1  18
ATOM     18  C   UNL     1       4.313  -3.776  -0.839  0.00  0.00    -0.059 C 
BRANCH  18  19
ATOM     19  N   UNL     1       4.448  -2.445  -1.446  0.00  0.00    +0.379 N 
ATOM     20  H   UNL     1       4.535  -2.539  -2.446  0.00  0.00    -0.090 HD
ATOM     21  H   UNL     1       3.632  -1.892  -1.229  0.00  0.00    -0.090 HD
ATOM     22  H   UNL     1       5.270  -1.990  -1.078  0.00  0.00    -0.090 HD
ENDBRANCH  18  19
ENDBRANCH   1  18
TORSDOF 6
