REMARK  Name = ZINC06674696
REMARK  1 active torsions:
REMARK  status: ('A' for Active; 'I' for Inactive)
REMARK    1  A    between atoms: C_20  and  C_24
REMARK                            x       y       z     vdW  Elec       q    Type
REMARK                         _______ _______ _______ _____ _____    ______ ____
ROOT
ATOM      1  C   UNL     1       7.739   3.187   0.017  0.00  0.00    +0.001 A 
ATOM      2  C   UNL     1       8.048   2.399  -1.079  0.00  0.00    +0.002 A 
ATOM      3  C   UNL     1       7.075   1.748  -1.817  0.00  0.00    +0.026 A 
ATOM      4  C   UNL     1       5.755   1.917  -1.407  0.00  0.00    +0.047 A 
ATOM      5  C   UNL     1       5.446   2.699  -0.266  0.00  0.00    +0.003 A 
ATOM      6  C   UNL     1       6.449   3.355   0.456  0.00  0.00    +0.010 A 
ATOM      7  C   UNL     1       4.013   2.608  -0.103  0.00  0.00    -0.022 A 
ATOM      8  C   UNL     1       3.537   1.798  -1.086  0.00  0.00    +0.011 A 
ATOM      9  N   UNL     1       4.571   1.457  -1.912  0.00  0.00    -0.359 N 
ATOM     10  H   UNL     1       4.505   1.002  -2.763  0.00  0.00    +0.166 HD
ATOM     11  C   UNL     1       2.079   1.444  -1.202  0.00  0.00    +0.015 C 
ATOM     12  C   UNL     1       1.840  -0.004  -1.509  0.00  0.00    -0.034 A 
ATOM     13  C   UNL     1       2.656  -0.699  -2.380  0.00  0.00    +0.004 A 
ATOM     14  C   UNL     1       2.433  -2.038  -2.647  0.00  0.00    +0.000 A 
ATOM     15  C   UNL     1       1.376  -2.701  -2.055  0.00  0.00    +0.002 A 
ATOM     16  C   UNL     1       0.541  -2.018  -1.196  0.00  0.00    +0.023 A 
ATOM     17  C   UNL     1       0.768  -0.675  -0.925  0.00  0.00    +0.028 A 
ATOM     18  N   UNL     1      -0.096  -0.001  -0.057  0.00  0.00    -0.353 N 
ATOM     19  C   UNL     1      -0.018   1.472   0.010  0.00  0.00    +0.050 C 
ATOM     20  C   UNL     1       1.687   3.218   0.396  0.00  0.00    -0.070 C 
ATOM     21  C   UNL     1       3.135   3.284   0.920  0.00  0.00    +0.019 C 
ATOM     22  H   UNL     1      -0.733  -0.485   0.489  0.00  0.00    +0.145 HD
ATOM     23  N   UNL     1       1.439   1.788   0.078  0.00  0.00    +0.403 N 
ATOM     24  H   UNL     1       1.859   1.216   0.820  0.00  0.00    -0.077 HD
ENDROOT
BRANCH  19  25
ATOM     25  C   UNL     1      -0.746   1.925   1.250  0.00  0.00    -0.026 A 
ATOM     26  C   UNL     1      -0.341   1.485   2.501  0.00  0.00    +0.006 A 
ATOM     27  C   UNL     1      -1.038   1.931   3.614  0.00  0.00    +0.020 A 
ATOM     28  C   UNL     1      -2.111   2.784   3.440  0.00  0.00    +0.111 A 
ATOM     29  N   UNL     1      -2.471   3.177   2.234  0.00  0.00    -0.263 NA
ATOM     30  C   UNL     1      -1.829   2.778   1.153  0.00  0.00    +0.114 A 
ENDBRANCH  19  25
TORSDOF 1
