REMARK  Name = ZINC67536769
REMARK  4 active torsions:
REMARK  status: ('A' for Active; 'I' for Inactive)
REMARK    1  A    between atoms: C_7  and  C_11
REMARK    2  A    between atoms: N_19  and  C_20
REMARK    3  A    between atoms: C_20  and  C_21
REMARK    4  A    between atoms: C_25  and  N_27
REMARK                            x       y       z     vdW  Elec       q    Type
REMARK                         _______ _______ _______ _____ _____    ______ ____
ROOT
ATOM      1  C   UNL     1       0.686  -3.260  -0.028  0.00  0.00    -0.039 C 
ATOM      2  C   UNL     1       0.076  -3.553   1.097  0.00  0.00    -0.004 C 
ATOM      3  C   UNL     1      -0.869  -4.712   1.250  0.00  0.00    +0.137 C 
ATOM      4  N   UNL     1      -1.182  -5.257  -0.079  0.00  0.00    -0.282 N 
ATOM      5  C   UNL     1      -0.066  -5.413  -1.026  0.00  0.00    +0.114 C 
ATOM      6  C   UNL     1       0.508  -4.020  -1.309  0.00  0.00    +0.054 C 
ATOM      7  C   UNL     1      -2.441  -5.601  -0.416  0.00  0.00    +0.303 C 
ATOM      8  O   UNL     1      -2.690  -5.960  -1.550  0.00  0.00    -0.253 OA
ATOM      9  N   UNL     1      -3.424  -5.547   0.505  0.00  0.00    -0.295 N 
ATOM     10  H   UNL     1      -3.241  -5.192   1.389  0.00  0.00    +0.151 HD
ENDROOT
BRANCH   1  17
ATOM     11  C   UNL     1      -0.013   1.363  -0.014  0.00  0.00    +0.001 A 
ATOM     12  C   UNL     1       1.174   2.082  -0.023  0.00  0.00    +0.002 A 
ATOM     13  C   UNL     1       2.389   1.433  -0.035  0.00  0.00    +0.026 A 
ATOM     14  C   UNL     1       2.429   0.042  -0.037  0.00  0.00    +0.047 A 
ATOM     15  C   UNL     1       1.223  -0.681  -0.028  0.00  0.00    +0.007 A 
ATOM     16  C   UNL     1       0.005  -0.004  -0.016  0.00  0.00    +0.010 A 
ATOM     17  C   UNL     1       1.603  -2.104  -0.034  0.00  0.00    +0.003 A 
ATOM     18  C   UNL     1       2.960  -2.144  -0.046  0.00  0.00    +0.091 A 
ATOM     19  N   UNL     1       3.458  -0.874  -0.048  0.00  0.00    -0.360 N 
ATOM     20  H   UNL     1       4.402  -0.648  -0.056  0.00  0.00    +0.165 HD
ENDBRANCH   1  17
BRANCH   9  21
ATOM     21  C   UNL     1      -4.768  -6.023   0.170  0.00  0.00    +0.141 C 
BRANCH  21  22
ATOM     22  C   UNL     1      -5.673  -5.854   1.363  0.00  0.00    -0.028 A 
ATOM     23  C   UNL     1      -5.789  -6.871   2.292  0.00  0.00    +0.005 A 
ATOM     24  C   UNL     1      -6.619  -6.716   3.387  0.00  0.00    +0.003 A 
ATOM     25  C   UNL     1      -7.332  -5.543   3.553  0.00  0.00    +0.033 A 
ATOM     26  C   UNL     1      -7.215  -4.526   2.625  0.00  0.00    +0.127 A 
ATOM     27  C   UNL     1      -6.382  -4.679   1.532  0.00  0.00    +0.038 A 
BRANCH  26  28
ATOM     28  N   UNL     1      -7.979  -3.271   2.802  0.00  0.00    +0.056 N 
ATOM     29  O   UNL     1      -8.706  -3.135   3.759  0.00  0.00    -0.126 OA
ATOM     30  O   UNL     1      -7.877  -2.381   1.990  0.00  0.00    -0.126 OA
ENDBRANCH  26  28
ENDBRANCH  21  22
ENDBRANCH   9  21
TORSDOF 4
