REMARK  Name = ZINC63835339
REMARK  9 active torsions:
REMARK  status: ('A' for Active; 'I' for Inactive)
REMARK    1  A    between atoms: C_1  and  C_2
REMARK    2  A    between atoms: C_4  and  N_10
REMARK    3  A    between atoms: C_5  and  C_9
REMARK    4  A    between atoms: N_7  and  C_8
REMARK    5  A    between atoms: C_11  and  C_13
REMARK    6  A    between atoms: C_13  and  S_14
REMARK    7  A    between atoms: S_14  and  C_15
REMARK    8  A    between atoms: C_18  and  C_23
REMARK    9  A    between atoms: N_19  and  C_20
REMARK                            x       y       z     vdW  Elec       q    Type
REMARK                         _______ _______ _______ _____ _____    ______ ____
ROOT
ATOM      1  C   UNL     1       1.780  -0.460  -7.706  0.00  0.00    +0.193 A 
ATOM      2  N   UNL     1       0.659   0.175  -8.014  0.00  0.00    -0.122 NA
ATOM      3  N   UNL     1       0.433   0.086  -9.277  0.00  0.00    -0.129 NA
ATOM      4  C   UNL     1       1.398  -0.613  -9.856  0.00  0.00    +0.163 A 
ATOM      5  N   UNL     1       2.288  -0.974  -8.860  0.00  0.00    -0.299 N 
ENDROOT
BRANCH   4   6
ATOM      6  C   UNL     1       1.500  -0.924 -11.221  0.00  0.00    +0.025 C 
ATOM      7  C   UNL     1       0.618  -0.559 -12.238  0.00  0.00    +0.006 A 
ATOM      8  C   UNL     1      -0.580   0.188 -12.238  0.00  0.00    +0.010 A 
ATOM      9  C   UNL     1      -1.246   0.392 -13.403  0.00  0.00    +0.001 A 
ATOM     10  C   UNL     1      -0.775  -0.121 -14.614  0.00  0.00    +0.002 A 
ATOM     11  C   UNL     1       0.367  -0.847 -14.688  0.00  0.00    +0.026 A 
ATOM     12  C   UNL     1       1.119  -1.101 -13.511  0.00  0.00    +0.043 A 
ATOM     13  N   UNL     1       2.241  -1.766 -13.320  0.00  0.00    -0.380 N 
ATOM     14  C   UNL     1       2.594  -1.720 -11.898  0.00  0.00    +0.152 C 
ATOM     15  H   UNL     1       2.755  -2.211 -14.012  0.00  0.00    +0.160 HD
ENDBRANCH   4   6
BRANCH   5  16
ATOM     16  C   UNL     1       3.519  -1.752  -9.014  0.00  0.00    +0.091 C 
ATOM     17  C   UNL     1       4.134  -2.360  -7.751  0.00  0.00    +0.027 C 
ATOM     18  C   UNL     1       4.805  -1.164  -8.429  0.00  0.00    +0.027 C 
ENDBRANCH   5  16
BRANCH   1  19
ATOM     19  S   UNL     1       2.488  -0.604  -6.099  0.00  0.00    -0.077 S 
BRANCH  19  20
ATOM     20  C   UNL     1       1.331   0.291  -5.027  0.00  0.00    +0.173 C 
BRANCH  20  22
ATOM     21  N   UNL     1       1.121   0.847  -2.626  0.00  0.00    -0.286 N 
ATOM     22  C   UNL     1       1.825   0.244  -3.605  0.00  0.00    +0.227 C 
ATOM     23  O   UNL     1       2.857  -0.337  -3.340  0.00  0.00    -0.275 OA
ATOM     24  H   UNL     1       0.263   1.252  -2.826  0.00  0.00    +0.155 HD
BRANCH  21  27
ATOM     25  C   UNL     1       1.074  -1.330  -0.316  0.00  0.00    +0.032 C 
ATOM     26  C   UNL     1       2.166  -0.279  -0.524  0.00  0.00    +0.118 C 
ATOM     27  C   UNL     1       1.630   0.890  -1.322  0.00  0.00    +0.047 C 
ATOM     28  C   UNL     1       1.734   1.960  -0.550  0.00  0.00    +0.034 C 
ATOM     29  N   UNL     1       2.283   1.644   0.686  0.00  0.00    -0.280 N 
ATOM     30  N   UNL     1       2.569   0.309   0.769  0.00  0.00    -0.224 NA
ATOM     31  C   UNL     1       1.843  -0.318   1.881  0.00  0.00    +0.128 C 
ATOM     32  C   UNL     1       1.310   3.346  -0.961  0.00  0.00    +0.063 C 
ATOM     33  H   UNL     1       2.443   2.285   1.396  0.00  0.00    +0.166 HD
ENDBRANCH  21  27
ENDBRANCH  20  22
ENDBRANCH  19  20
ENDBRANCH   1  19
TORSDOF 6
