REMARK  Name = ZINC09192235
REMARK  3 active torsions:
REMARK  status: ('A' for Active; 'I' for Inactive)
REMARK    1  A    between atoms: C_16  and  C_18
REMARK    2  A    between atoms: C_18  and  C_20
REMARK    3  A    between atoms: N_29  and  C_32
REMARK                            x       y       z     vdW  Elec       q    Type
REMARK                         _______ _______ _______ _____ _____    ______ ____
ROOT
ATOM      1  C   UNL     1      -0.017   1.375   0.010  0.00  0.00    +0.001 A 
ATOM      2  C   UNL     1       1.168   2.091   0.002  0.00  0.00    +0.000 A 
ATOM      3  C   UNL     1       2.383   1.427  -0.011  0.00  0.00    +0.006 A 
ATOM      4  C   UNL     1       2.415   0.053  -0.017  0.00  0.00    -0.016 A 
ATOM      5  C   UNL     1       1.223  -0.682  -0.014  0.00  0.00    -0.000 A 
ATOM      6  C   UNL     1       0.002  -0.004   0.002  0.00  0.00    +0.010 A 
ATOM      7  C   UNL     1       1.252  -2.158  -0.034  0.00  0.00    +0.138 C 
ATOM      8  N   UNL     1       2.348  -2.793   0.293  0.00  0.00    -0.191 NA
ATOM      9  N   UNL     1       3.458  -1.998   0.629  0.00  0.00    -0.236 N 
ATOM     10  C   UNL     1       3.720  -0.701  -0.024  0.00  0.00    +0.136 C 
ATOM     11  C   UNL     1       4.795   0.014   0.789  0.00  0.00    +0.116 C 
ATOM     12  C   UNL     1       5.529  -1.135   1.547  0.00  0.00    +0.119 C 
ATOM     13  C   UNL     1       4.457  -2.238   1.662  0.00  0.00    +0.177 C 
ATOM     14  C   UNL     1       5.718  -0.515   2.922  0.00  0.00    +0.232 C 
ATOM     15  O   UNL     1       6.523  -0.870   3.756  0.00  0.00    -0.274 OA
ATOM     16  N   UNL     1       4.841   0.492   3.056  0.00  0.00    -0.208 N 
ATOM     17  C   UNL     1       4.178   0.812   1.917  0.00  0.00    +0.232 C 
ATOM     18  O   UNL     1       3.253   1.589   1.814  0.00  0.00    -0.274 OA
ENDROOT
BRANCH  16  19
ATOM     19  C   UNL     1       4.633   1.166   4.268  0.00  0.00    +0.062 A 
ATOM     20  C   UNL     1       5.386   2.291   4.576  0.00  0.00    +0.027 A 
ATOM     21  C   UNL     1       5.179   2.954   5.770  0.00  0.00    +0.022 A 
ATOM     22  C   UNL     1       4.222   2.497   6.660  0.00  0.00    +0.042 A 
ATOM     23  C   UNL     1       3.470   1.376   6.356  0.00  0.00    +0.042 A 
ATOM     24  C   UNL     1       3.670   0.713   5.160  0.00  0.00    +0.064 A 
ATOM     25 CL   UNL     1       2.721  -0.690   4.776  0.00  0.00    -0.082 Cl
ATOM     26 CL   UNL     1       3.966   3.332   8.161  0.00  0.00    -0.083 Cl
ENDBRANCH  16  19
BRANCH  13  27
ATOM     27  C   UNL     1       5.091  -3.589   1.456  0.00  0.00    +0.186 C 
ATOM     28  O   UNL     1       5.005  -4.141   0.379  0.00  0.00    -0.290 OA
BRANCH  27  29
ATOM     29  C   UNL     1       5.814  -4.238   2.559  0.00  0.00    +0.020 A 
ATOM     30  C   UNL     1       5.911  -3.607   3.804  0.00  0.00    +0.014 A 
ATOM     31  C   UNL     1       6.590  -4.221   4.833  0.00  0.00    +0.039 A 
ATOM     32  C   UNL     1       7.177  -5.462   4.638  0.00  0.00    +0.123 A 
ATOM     33  C   UNL     1       7.086  -6.093   3.406  0.00  0.00    +0.039 A 
ATOM     34  C   UNL     1       6.404  -5.493   2.370  0.00  0.00    +0.014 A 
ATOM     35  F   UNL     1       7.842  -6.058   5.651  0.00  0.00    -0.205 F 
ENDBRANCH  27  29
ENDBRANCH  13  27
TORSDOF 3
