REMARK  Name = ZINC28049013
REMARK  9 active torsions:
REMARK  status: ('A' for Active; 'I' for Inactive)
REMARK    1  A    between atoms: C_1  and  C_2
REMARK    2  A    between atoms: C_2  and  N_3
REMARK    3  A    between atoms: C_12  and  O_13
REMARK    4  A    between atoms: C_14  and  N_15
REMARK    5  A    between atoms: N_15  and  S_16
REMARK    6  A    between atoms: S_16  and  C_19
REMARK    7  A    between atoms: C_21  and  C_27
REMARK    8  A    between atoms: C_23  and  C_26
REMARK    9  A    between atoms: C_24  and  C_25
REMARK                            x       y       z     vdW  Elec       q    Type
REMARK                         _______ _______ _______ _____ _____    ______ ____
ROOT
ATOM      1  N   UNL     1       5.421  -4.154   1.577  0.00  0.00    -0.382 N 
ATOM      2  C   UNL     1       4.050  -4.049   1.737  0.00  0.00    +0.076 A 
ATOM      3  C   UNL     1       3.281  -5.108   2.409  0.00  0.00    +0.042 A 
ATOM      4  C   UNL     1       3.911  -6.251   2.905  0.00  0.00    +0.013 A 
ATOM      5  C   UNL     1       3.164  -7.225   3.529  0.00  0.00    +0.001 A 
ATOM      6  C   UNL     1       1.791  -7.074   3.664  0.00  0.00    +0.004 A 
ATOM      7  C   UNL     1       1.156  -5.950   3.179  0.00  0.00    +0.047 A 
ATOM      8  C   UNL     1       1.892  -4.956   2.546  0.00  0.00    +0.141 A 
ATOM      9  O   UNL     1       1.282  -3.851   2.066  0.00  0.00    -0.424 OA
ATOM     10  C   UNL     1       1.967  -2.871   1.454  0.00  0.00    +0.310 A 
ATOM     11  C   UNL     1       3.360  -2.945   1.270  0.00  0.00    +0.152 A 
ATOM     12  H   UNL     1       5.834  -4.727   0.733  0.00  0.00    +0.160 HD
ENDROOT
BRANCH   1  14
ATOM     13  C   UNL     1       7.636  -3.469   2.364  0.00  0.00    +0.026 C 
ATOM     14  C   UNL     1       6.131  -3.430   2.639  0.00  0.00    +0.109 C 
ENDBRANCH   1  14
BRANCH  10  15
ATOM     15  O   UNL     1       1.366  -1.893   1.045  0.00  0.00    -0.479 OA
ATOM     16  H   UNL     1       1.913  -1.082   0.542  0.00  0.00    +0.295 HD
ENDBRANCH  10  15
BRANCH  11  17
ATOM     17  N   UNL     1       4.045  -1.903   0.620  0.00  0.00    -0.208 N 
ATOM     18  H   UNL     1       4.833  -1.348   1.151  0.00  0.00    +0.174 HD
BRANCH  17  19
ATOM     19  S   UNL     1       3.666  -1.511  -0.943  0.00  0.00    +0.073 S 
ATOM     20  O   UNL     1       4.591  -0.510  -1.347  0.00  0.00    -0.150 OA
ATOM     21  O   UNL     1       2.260  -1.308  -0.982  0.00  0.00    -0.150 OA
BRANCH  19  22
ATOM     22  C   UNL     1       3.998  -2.931  -1.932  0.00  0.00    +0.112 A 
ATOM     23  C   UNL     1       2.966  -3.565  -2.599  0.00  0.00    +0.032 A 
ATOM     24  C   UNL     1       3.226  -4.680  -3.374  0.00  0.00    -0.048 A 
ATOM     25  C   UNL     1       4.518  -5.160  -3.482  0.00  0.00    +0.007 A 
ATOM     26  C   UNL     1       5.550  -4.526  -2.816  0.00  0.00    -0.045 A 
ATOM     27  C   UNL     1       5.289  -3.411  -2.041  0.00  0.00    -0.021 A 
ATOM     28  C   UNL     1       6.414  -2.720  -1.314  0.00  0.00    +0.046 C 
ATOM     29  C   UNL     1       6.958  -5.050  -2.934  0.00  0.00    +0.044 C 
ATOM     30  C   UNL     1       2.102  -5.371  -4.101  0.00  0.00    +0.044 C 
ENDBRANCH  19  22
ENDBRANCH  17  19
ENDBRANCH  11  17
TORSDOF 5
