REMARK  Name = ZINC15913126
REMARK  7 active torsions:
REMARK  status: ('A' for Active; 'I' for Inactive)
REMARK    1  A    between atoms: C_1  and  C_2
REMARK    2  A    between atoms: C_9  and  O_12
REMARK    3  A    between atoms: O_12  and  C_13
REMARK    4  A    between atoms: C_13  and  C_14
REMARK    5  A    between atoms: N_16  and  C_17
REMARK    6  A    between atoms: C_18  and  C_28
REMARK    7  A    between atoms: C_23  and  C_27
REMARK                            x       y       z     vdW  Elec       q    Type
REMARK                         _______ _______ _______ _____ _____    ______ ____
ROOT
ATOM      1  C   UNL     1       2.229  -6.109  -3.022  0.00  0.00    +0.255 C 
ATOM      2  O   UNL     1       2.201  -5.218  -3.844  0.00  0.00    -0.272 OA
ATOM      3  N   UNL     1       1.931  -5.847  -1.734  0.00  0.00    -0.276 N 
ATOM      4  H   UNL     1       1.953  -6.559  -1.076  0.00  0.00    +0.155 HD
ENDROOT
BRANCH   3   5
ATOM      5  C   UNL     1       1.593  -4.557  -1.349  0.00  0.00    +0.090 A 
ATOM      6  C   UNL     1       1.258  -4.095  -0.084  0.00  0.00    +0.084 A 
ATOM      7  C   UNL     1       0.941  -2.684   0.054  0.00  0.00    -0.018 A 
ATOM      8  C   UNL     1       1.008  -1.965  -1.089  0.00  0.00    -0.004 A 
ATOM      9  S   UNL     1       1.485  -3.134  -2.331  0.00  0.00    -0.077 S 
ATOM     10  C   UNL     1       0.736  -0.502  -1.252  0.00  0.00    +0.046 C 
ATOM     11  C   UNL     1       0.002  -0.004   0.002  0.00  0.00    -0.009 C 
ATOM     12  C   UNL     1       0.742  -0.514   1.242  0.00  0.00    +0.008 C 
ATOM     13  C   UNL     1       0.556  -2.027   1.373  0.00  0.00    +0.037 C 
ATOM     14  C   UNL     1      -0.019   1.526   0.010  0.00  0.00    +0.008 C 
BRANCH   6  15
ATOM     15  C   UNL     1       1.226  -4.977   1.044  0.00  0.00    +0.102 C 
ATOM     16  N   UNL     1       1.200  -5.676   1.938  0.00  0.00    -0.191 NA
ENDBRANCH   6  15
ENDBRANCH   3   5
BRANCH   1  17
ATOM     17  C   UNL     1       2.596  -7.510  -3.440  0.00  0.00    +0.325 C 
BRANCH  17  18
ATOM     18  O   UNL     1       2.867  -7.532  -4.843  0.00  0.00    -0.479 OA
BRANCH  18  27
ATOM     19  C   UNL     1      -1.439  -9.637  -6.242  0.00  0.00    +0.065 C 
ATOM     20  C   UNL     1       0.005 -10.063  -6.315  0.00  0.00    +0.039 A 
ATOM     21  C   UNL     1       0.320 -11.297  -6.878  0.00  0.00    +0.024 A 
ATOM     22  C   UNL     1       1.623 -11.700  -6.953  0.00  0.00    +0.013 A 
ATOM     23  C   UNL     1       2.615 -10.837  -6.450  0.00  0.00    +0.022 A 
ATOM     24  C   UNL     1       3.976 -11.184  -6.494  0.00  0.00    +0.052 A 
ATOM     25  C   UNL     1       4.911 -10.326  -5.999  0.00  0.00    +0.044 A 
ATOM     26  C   UNL     1       4.539  -9.101  -5.450  0.00  0.00    +0.086 A 
ATOM     27  C   UNL     1       3.216  -8.729  -5.385  0.00  0.00    +0.165 A 
ATOM     28  C   UNL     1       2.224  -9.595  -5.890  0.00  0.00    +0.116 A 
ATOM     29  N   UNL     1       0.931  -9.262  -5.848  0.00  0.00    -0.248 NA
ATOM     30 CL   UNL     1       5.761  -8.031  -4.834  0.00  0.00    -0.080 Cl
ATOM     31 CL   UNL     1       4.465 -12.703  -7.178  0.00  0.00    -0.083 Cl
ENDBRANCH  18  27
ENDBRANCH  17  18
ENDBRANCH   1  17
TORSDOF 5
