REMARK  Name = ZINC15674254
REMARK  7 active torsions:
REMARK  status: ('A' for Active; 'I' for Inactive)
REMARK    1  A    between atoms: C_7  and  C_11
REMARK    2  A    between atoms: C_11  and  N_51
REMARK    3  A    between atoms: C_13  and  O_34
REMARK    4  A    between atoms: C_16  and  C_18
REMARK    5  A    between atoms: C_20  and  C_23
REMARK    6  A    between atoms: C_26  and  O_29
REMARK    7  A    between atoms: O_29  and  C_30
REMARK                            x       y       z     vdW  Elec       q    Type
REMARK                         _______ _______ _______ _____ _____    ______ ____
ROOT
ATOM      1  C   UNL     1       2.580   1.022  -1.232  0.00  0.00    -0.046 C 
ATOM      2  C   UNL     1       2.108   1.245   0.221  0.00  0.00    +0.097 C 
ATOM      3  C   UNL     1       1.780   2.749   0.312  0.00  0.00    +0.023 C 
ATOM      4  C   UNL     1       2.081   3.309  -1.098  0.00  0.00    +0.025 C 
ATOM      5  N   UNL     1       3.036   2.352  -1.651  0.00  0.00    +0.392 N 
ATOM      6  H   UNL     1       3.974   2.536  -1.276  0.00  0.00    -0.080 HD
ENDROOT
BRANCH   4   7
ATOM      7  C   UNL     1       2.684   4.686  -0.997  0.00  0.00    +0.214 A 
ATOM      8  N   UNL     1       2.097   5.817  -1.300  0.00  0.00    -0.193 NA
ATOM      9  C   UNL     1       3.013   6.780  -1.052  0.00  0.00    +0.202 A 
ATOM     10  N   UNL     1       4.096   6.182  -0.625  0.00  0.00    -0.056 NA
ATOM     11  O   UNL     1       3.922   4.982  -0.588  0.00  0.00    -0.339 OA
BRANCH   9  12
ATOM     12  C   UNL     1       2.828   8.240  -1.236  0.00  0.00    +0.023 A 
ATOM     13  C   UNL     1       1.613   8.736  -1.707  0.00  0.00    +0.015 A 
ATOM     14  C   UNL     1       1.442  10.094  -1.871  0.00  0.00    +0.046 A 
ATOM     15  C   UNL     1       2.481  10.967  -1.579  0.00  0.00    +0.130 A 
ATOM     16  C   UNL     1       3.694  10.476  -1.114  0.00  0.00    +0.046 A 
ATOM     17  C   UNL     1       3.869   9.119  -0.942  0.00  0.00    +0.015 A 
BRANCH  15  18
ATOM     18  O   UNL     1       2.312  12.304  -1.747  0.00  0.00    -0.406 OA
BRANCH  18  19
ATOM     19  C   UNL     1       1.039  12.741  -2.229  0.00  0.00    +0.575 C 
ATOM     20  F   UNL     1       0.041  12.345  -1.333  0.00  0.00    -0.133 F 
ATOM     21  F   UNL     1       1.037  14.135  -2.343  0.00  0.00    -0.133 F 
ATOM     22  F   UNL     1       0.794  12.170  -3.482  0.00  0.00    -0.133 F 
ENDBRANCH  18  19
ENDBRANCH  15  18
ENDBRANCH   9  12
ENDBRANCH   4   7
BRANCH   2  23
ATOM     23  O   UNL     1       0.941   0.465   0.489  0.00  0.00    -0.394 OA
ATOM     24  H   UNL     1       1.081  -0.489   0.424  0.00  0.00    +0.210 HD
ENDBRANCH   2  23
BRANCH   5  25
ATOM     25  C   UNL     1       3.077   2.444  -3.144  0.00  0.00    -0.040 C 
BRANCH  25  32
ATOM     26  C   UNL     1       7.153   4.759  -3.053  0.00  0.00    +0.001 A 
ATOM     27  C   UNL     1       7.051   6.053  -3.546  0.00  0.00    +0.002 A 
ATOM     28  C   UNL     1       5.846   6.537  -4.006  0.00  0.00    +0.026 A 
ATOM     29  C   UNL     1       4.716   5.727  -3.966  0.00  0.00    +0.047 A 
ATOM     30  C   UNL     1       4.823   4.418  -3.463  0.00  0.00    +0.001 A 
ATOM     31  C   UNL     1       6.056   3.945  -3.009  0.00  0.00    +0.010 A 
ATOM     32  C   UNL     1       3.482   3.836  -3.558  0.00  0.00    -0.039 A 
ATOM     33  C   UNL     1       2.681   4.779  -4.077  0.00  0.00    +0.085 A 
ATOM     34  N   UNL     1       3.401   5.916  -4.328  0.00  0.00    -0.360 N 
ATOM     35  H   UNL     1       3.039   6.733  -4.705  0.00  0.00    +0.165 HD
ENDBRANCH  25  32
ENDBRANCH   5  25
TORSDOF 7
