REMARK  Name = ZINC02191810
REMARK  14 active torsions:
REMARK  status: ('A' for Active; 'I' for Inactive)
REMARK    1  A    between atoms: C_1  and  C_2
REMARK    2  A    between atoms: C_2  and  O_3
REMARK    3  A    between atoms: O_3  and  C_4
REMARK    4  A    between atoms: C_4  and  C_6
REMARK    5  A    between atoms: C_6  and  C_7
REMARK    6  A    between atoms: C_6  and  N_11
REMARK    7  A    between atoms: C_6  and  N_28
REMARK    8  A    between atoms: N_11  and  C_12
REMARK    9  A    between atoms: C_13  and  C_26
REMARK   10  A    between atoms: C_18  and  C_22
REMARK   11  A    between atoms: C_22  and  C_23
REMARK   12  A    between atoms: C_22  and  C_24
REMARK   13  A    between atoms: C_22  and  C_25
REMARK   14  A    between atoms: C_29  and  C_31
REMARK                            x       y       z     vdW  Elec       q    Type
REMARK                         _______ _______ _______ _____ _____    ______ ____
ROOT
ATOM      1  C   UNL     1      -0.915   2.456   8.453  0.00  0.00    +0.296 C 
ENDROOT
BRANCH   1   2
ATOM      2  C   UNL     1      -1.519   1.112   8.040  0.00  0.00    +0.438 C 
ATOM      3  F   UNL     1      -1.103   0.793   6.743  0.00  0.00    -0.166 F 
ATOM      4  F   UNL     1      -1.091   0.117   8.925  0.00  0.00    -0.166 F 
ATOM      5  F   UNL     1      -2.915   1.198   8.075  0.00  0.00    -0.166 F 
ENDBRANCH   1   2
BRANCH   1   6
ATOM      6  N   UNL     1      -1.205   2.708   9.867  0.00  0.00    -0.274 N 
ATOM      7  C   UNL     1      -0.734   3.821  10.464  0.00  0.00    +0.249 C 
ATOM      8  O   UNL     1      -0.176   4.675   9.803  0.00  0.00    -0.270 OA
ATOM      9  H   UNL     1      -1.736   2.073  10.374  0.00  0.00    +0.152 HD
BRANCH   7  10
ATOM     10  C   UNL     1      -0.896   4.002  11.921  0.00  0.00    +0.072 A 
ATOM     11  C   UNL     1      -1.536   3.023  12.683  0.00  0.00    +0.016 A 
ATOM     12  C   UNL     1      -1.683   3.198  14.043  0.00  0.00    +0.001 A 
ATOM     13  C   UNL     1      -1.198   4.341  14.654  0.00  0.00    +0.003 A 
ATOM     14  C   UNL     1      -0.563   5.316  13.909  0.00  0.00    +0.039 A 
ATOM     15  C   UNL     1      -0.404   5.153  12.544  0.00  0.00    +0.135 A 
ATOM     16  F   UNL     1       0.222   6.103  11.816  0.00  0.00    -0.205 F 
ENDBRANCH   7  10
ENDBRANCH   1   6
BRANCH   1  17
ATOM     17  C   UNL     1       0.578   2.421   8.245  0.00  0.00    +0.359 C 
ATOM     18  O   UNL     1       1.318   2.317   9.195  0.00  0.00    -0.246 OA
BRANCH  17  19
ATOM     19  O   UNL     1       1.084   2.506   7.005  0.00  0.00    -0.462 OA
BRANCH  19  21
ATOM     20  C   UNL     1       2.918   2.576   5.404  0.00  0.00    +0.048 C 
ATOM     21  C   UNL     1       2.530   2.466   6.880  0.00  0.00    +0.229 C 
ENDBRANCH  19  21
ENDBRANCH  17  19
ENDBRANCH   1  17
BRANCH   1  22
ATOM     22  N   UNL     1      -1.497   3.525   7.638  0.00  0.00    -0.301 N 
ATOM     23  H   UNL     1      -2.009   4.232   8.059  0.00  0.00    +0.149 HD
BRANCH  22  24
ATOM     24  C   UNL     1      -1.315   3.525   6.266  0.00  0.00    +0.086 A 
ATOM     25  C   UNL     1      -1.781   4.442   5.334  0.00  0.00    +0.083 A 
ATOM     26  C   UNL     1      -1.448   4.210   3.938  0.00  0.00    -0.018 A 
ATOM     27  C   UNL     1      -0.708   3.106   3.700  0.00  0.00    -0.004 A 
ATOM     28  S   UNL     1      -0.452   2.379   5.294  0.00  0.00    -0.077 S 
ATOM     29  C   UNL     1      -0.220   2.616   2.372  0.00  0.00    +0.047 C 
ATOM     30  C   UNL     1      -0.998   3.349   1.269  0.00  0.00    -0.000 C 
ATOM     31  C   UNL     1      -1.003   4.849   1.580  0.00  0.00    +0.009 C 
ATOM     32  C   UNL     1      -1.883   5.125   2.800  0.00  0.00    +0.037 C 
BRANCH  30  33
ATOM     33  C   UNL     1      -0.322   3.108  -0.082  0.00  0.00    -0.035 C 
ATOM     34  C   UNL     1      -0.312   1.609  -0.387  0.00  0.00    +0.011 C 
ATOM     35  C   UNL     1       1.116   3.629  -0.034  0.00  0.00    +0.011 C 
ATOM     36  C   UNL     1      -1.095   3.845  -1.177  0.00  0.00    +0.011 C 
ENDBRANCH  30  33
BRANCH  25  37
ATOM     37  C   UNL     1      -2.562   5.575   5.733  0.00  0.00    +0.102 C 
ATOM     38  N   UNL     1      -3.181   6.473   6.050  0.00  0.00    -0.191 NA
ENDBRANCH  25  37
ENDBRANCH  22  24
ENDBRANCH   1  22
TORSDOF 10
