REMARK  Name = ZINC64540649
REMARK  8 active torsions:
REMARK  status: ('A' for Active; 'I' for Inactive)
REMARK    1  A    between atoms: C_1  and  C_2
REMARK    2  A    between atoms: N_8  and  C_9
REMARK    3  A    between atoms: C_9  and  C_10
REMARK    4  A    between atoms: C_10  and  N_11
REMARK    5  A    between atoms: C_12  and  C_14
REMARK    6  A    between atoms: C_14  and  C_16
REMARK    7  A    between atoms: C_14  and  C_17
REMARK    8  A    between atoms: C_23  and  C_25
REMARK                            x       y       z     vdW  Elec       q    Type
REMARK                         _______ _______ _______ _____ _____    ______ ____
ROOT
ATOM      1  C   UNL     1       7.005   0.208   4.930  0.00  0.00    +0.004 C 
ATOM      2  C   UNL     1       7.094  -1.318   5.008  0.00  0.00    +0.023 C 
ATOM      3  C   UNL     1       7.763  -1.720   6.326  0.00  0.00    +0.108 C 
ATOM      4  N   UNL     1       9.059  -1.034   6.427  0.00  0.00    -0.300 N 
ATOM      5  C   UNL     1       9.098   0.427   6.276  0.00  0.00    +0.108 C 
ATOM      6  C   UNL     1       8.414   0.805   4.959  0.00  0.00    +0.023 C 
ATOM      7  C   UNL     1      10.189  -1.731   6.655  0.00  0.00    +0.242 C 
ATOM      8  O   UNL     1      10.143  -2.937   6.778  0.00  0.00    -0.273 OA
ENDROOT
BRANCH   7   9
ATOM      9  C   UNL     1      11.510  -1.013   6.757  0.00  0.00    +0.190 C 
ATOM     10  C   UNL     1      11.831  -0.324   5.449  0.00  0.00    +0.016 C 
ATOM     11  C   UNL     1      12.987  -0.872   5.010  0.00  0.00    -0.004 A 
ATOM     12  C   UNL     1      13.809  -0.637   3.817  0.00  0.00    +0.010 A 
ATOM     13  C   UNL     1      14.940  -1.359   3.647  0.00  0.00    +0.001 A 
ATOM     14  C   UNL     1      15.347  -2.322   4.581  0.00  0.00    +0.002 A 
ATOM     15  C   UNL     1      14.645  -2.594   5.701  0.00  0.00    +0.026 A 
ATOM     16  C   UNL     1      13.438  -1.895   5.981  0.00  0.00    +0.043 A 
ATOM     17  N   UNL     1      12.593  -1.977   6.982  0.00  0.00    -0.370 N 
ATOM     18  H   UNL     1      12.671  -2.573   7.743  0.00  0.00    +0.161 HD
ENDBRANCH   7   9
BRANCH   1  19
ATOM     19  C   UNL     1       6.306   0.613   3.630  0.00  0.00    +0.075 C 
ATOM     20  C   UNL     1       6.216   2.138   3.554  0.00  0.00    +0.017 C 
BRANCH  19  22
ATOM     21  N   UNL     1       4.113   0.250   2.546  0.00  0.00    -0.317 N 
ATOM     22  C   UNL     1       4.919   0.025   3.602  0.00  0.00    +0.216 C 
ATOM     23  O   UNL     1       4.528  -0.651   4.530  0.00  0.00    -0.276 OA
ATOM     24  H   UNL     1       4.426   0.791   1.803  0.00  0.00    +0.149 HD
BRANCH  21  25
ATOM     25  C   UNL     1       2.764  -0.321   2.518  0.00  0.00    +0.085 C 
BRANCH  25  26
ATOM     26  C   UNL     1       2.066   0.083   1.218  0.00  0.00    -0.059 C 
BRANCH  26  33
ATOM     27  C   UNL     1      -0.019   1.526   0.010  0.00  0.00    -0.013 C 
ATOM     28  C   UNL     1       0.002  -0.004   0.002  0.00  0.00    -0.072 C 
ATOM     29  C   UNL     1      -1.434  -0.533   0.011  0.00  0.00    -0.016 C 
ATOM     30  C   UNL     1      -1.408  -2.064   0.003  0.00  0.00    -0.003 C 
ATOM     31  C   UNL     1      -0.600  -2.558   1.206  0.00  0.00    -0.019 C 
ATOM     32  C   UNL     1       0.805  -1.954   1.152  0.00  0.00    -0.078 C 
ATOM     33  N   UNL     1       0.713  -0.490   1.191  0.00  0.00    +0.382 N 
ATOM     34  H   UNL     1       0.213  -0.206   2.020  0.00  0.00    -0.081 HD
ENDBRANCH  26  33
ENDBRANCH  25  26
ENDBRANCH  21  25
ENDBRANCH  19  22
ENDBRANCH   1  19
TORSDOF 6
