REMARK  Name = ZINC35886373
REMARK  6 active torsions:
REMARK  status: ('A' for Active; 'I' for Inactive)
REMARK    1  A    between atoms: C_3  and  C_8
REMARK    2  A    between atoms: C_13  and  C_15
REMARK    3  A    between atoms: C_15  and  N_16
REMARK    4  A    between atoms: N_19  and  C_22
REMARK    5  A    between atoms: C_29  and  C_31
REMARK    6  A    between atoms: C_34  and  N_37
REMARK                            x       y       z     vdW  Elec       q    Type
REMARK                         _______ _______ _______ _____ _____    ______ ____
ROOT
ATOM      1  C   UNL     1       3.524   1.793   0.136  0.00  0.00    +0.039 C 
ATOM      2  C   UNL     1       4.411   1.855   1.398  0.00  0.00    +0.116 C 
ATOM      3  N   UNL     1       5.796   1.925   0.879  0.00  0.00    -0.297 N 
ATOM      4  C   UNL     1       5.803   0.998  -0.276  0.00  0.00    +0.110 C 
ATOM      5  C   UNL     1       4.441   1.229  -0.970  0.00  0.00    -0.001 C 
ATOM      6  C   UNL     1       6.819   2.666   1.351  0.00  0.00    +0.247 C 
ATOM      7  O   UNL     1       7.870   2.708   0.742  0.00  0.00    -0.270 OA
ENDROOT
BRANCH   1  10
ATOM      8  C   UNL     1       1.465  -1.189   1.196  0.00  0.00    +0.003 A 
ATOM      9  C   UNL     1       2.540  -0.345   0.986  0.00  0.00    +0.004 A 
ATOM     10  C   UNL     1       2.352   0.874   0.363  0.00  0.00    -0.040 A 
ATOM     11  C   UNL     1       1.088   1.251  -0.051  0.00  0.00    +0.042 A 
ATOM     12  C   UNL     1       0.011   0.407   0.159  0.00  0.00    +0.124 A 
ATOM     13  C   UNL     1       0.201  -0.815   0.782  0.00  0.00    +0.038 A 
ATOM     14  F   UNL     1      -1.225   0.775  -0.245  0.00  0.00    -0.205 F 
ENDBRANCH   1  10
BRANCH   6  15
ATOM     15  C   UNL     1       6.662   3.427   2.609  0.00  0.00    +0.037 A 
ATOM     16  C   UNL     1       5.669   3.073   3.523  0.00  0.00    +0.015 A 
ATOM     17  C   UNL     1       5.528   3.787   4.695  0.00  0.00    +0.033 A 
ATOM     18  C   UNL     1       6.369   4.852   4.965  0.00  0.00    +0.126 A 
ATOM     19  C   UNL     1       7.356   5.209   4.062  0.00  0.00    +0.033 A 
ATOM     20  C   UNL     1       7.511   4.499   2.889  0.00  0.00    +0.015 A 
BRANCH  18  21
ATOM     21  N   UNL     1       6.212   5.614   6.224  0.00  0.00    +0.056 N 
ATOM     22  O   UNL     1       5.351   5.306   7.014  0.00  0.00    -0.126 OA
ATOM     23  O   UNL     1       6.946   6.546   6.462  0.00  0.00    -0.126 OA
ENDBRANCH  18  21
ENDBRANCH   6  15
BRANCH   5  24
ATOM     24  C   UNL     1       3.882  -0.092  -1.501  0.00  0.00    -0.073 C 
BRANCH  24  25
ATOM     25  N   UNL     1       4.682  -0.535  -2.651  0.00  0.00    +0.382 N 
ATOM     26  C   UNL     1       4.533   0.430  -3.748  0.00  0.00    -0.060 C 
ATOM     27  C   UNL     1       5.455   0.032  -4.906  0.00  0.00    +0.086 C 
ATOM     28  N   UNL     1       5.160  -1.361  -5.278  0.00  0.00    -0.333 N 
ATOM     29  C   UNL     1       5.126  -2.372  -4.210  0.00  0.00    +0.086 C 
ATOM     30  C   UNL     1       4.220  -1.860  -3.085  0.00  0.00    -0.060 C 
ATOM     31  H   UNL     1       5.653  -0.589  -2.384  0.00  0.00    -0.082 HD
BRANCH  28  32
ATOM     32  C   UNL     1       4.920  -1.713  -6.610  0.00  0.00    +0.030 A 
ATOM     33  C   UNL     1       4.841  -0.729  -7.586  0.00  0.00    +0.026 A 
ATOM     34  C   UNL     1       4.604  -1.080  -8.901  0.00  0.00    +0.040 A 
ATOM     35  C   UNL     1       4.444  -2.412  -9.246  0.00  0.00    +0.124 A 
ATOM     36  C   UNL     1       4.522  -3.394  -8.273  0.00  0.00    +0.040 A 
ATOM     37  C   UNL     1       4.765  -3.049  -6.958  0.00  0.00    +0.026 A 
ATOM     38  F   UNL     1       4.212  -2.752 -10.532  0.00  0.00    -0.205 F 
ENDBRANCH  28  32
ENDBRANCH  24  25
ENDBRANCH   5  24
TORSDOF 6
