REMARK  Name = ZINC22310984
REMARK  10 active torsions:
REMARK  status: ('A' for Active; 'I' for Inactive)
REMARK    1  A    between atoms: C_1  and  C_2
REMARK    2  A    between atoms: C_2  and  N_3
REMARK    3  A    between atoms: C_7  and  S_30
REMARK    4  A    between atoms: C_11  and  S_12
REMARK    5  A    between atoms: S_12  and  C_13
REMARK    6  A    between atoms: C_13  and  C_14
REMARK    7  A    between atoms: N_16  and  C_17
REMARK    8  A    between atoms: C_22  and  S_23
REMARK    9  A    between atoms: S_23  and  C_24
REMARK   10  A    between atoms: S_30  and  N_33
REMARK                            x       y       z     vdW  Elec       q    Type
REMARK                         _______ _______ _______ _____ _____    ______ ____
ROOT
ATOM      1  S   UNL     1      -4.435   4.247  -6.865  0.00  0.00    -0.078 S 
ENDROOT
BRANCH   1  10
ATOM      2  N   UNL     1      -3.942   5.044  -4.246  0.00  0.00    -0.319 N 
ATOM      3  C   UNL     1      -3.603   4.468  -3.033  0.00  0.00    +0.070 A 
ATOM      4  C   UNL     1      -3.376   4.969  -1.760  0.00  0.00    +0.030 A 
ATOM      5  C   UNL     1      -3.051   4.109  -0.731  0.00  0.00    +0.030 A 
ATOM      6  C   UNL     1      -2.938   2.746  -0.963  0.00  0.00    +0.107 A 
ATOM      7  C   UNL     1      -3.160   2.231  -2.221  0.00  0.00    +0.058 A 
ATOM      8  C   UNL     1      -3.495   3.088  -3.272  0.00  0.00    +0.092 A 
ATOM      9  N   UNL     1      -3.767   2.888  -4.589  0.00  0.00    -0.222 NA
ATOM     10  C   UNL     1      -4.029   4.036  -5.163  0.00  0.00    +0.170 A 
BRANCH   6  11
ATOM     11  S   UNL     1      -2.515   1.665   0.362  0.00  0.00    +0.056 S 
ATOM     12  O   UNL     1      -3.012   0.381   0.013  0.00  0.00    -0.153 OA
ATOM     13  O   UNL     1      -2.892   2.327   1.562  0.00  0.00    -0.153 OA
BRANCH  11  14
ATOM     14  N   UNL     1      -0.864   1.544   0.387  0.00  0.00    -0.204 NA
ATOM     15  H   UNL     1      -0.558   0.875   1.205  0.00  0.00    +0.144 HD
ATOM     16  H   UNL     1      -0.426   2.541   0.545  0.00  0.00    +0.144 HD
ENDBRANCH  11  14
ENDBRANCH   6  11
BRANCH   2  18
ATOM     17  C   UNL     1      -5.641   6.802  -4.273  0.00  0.00    +0.027 C 
ATOM     18  C   UNL     1      -4.165   6.470  -4.498  0.00  0.00    +0.121 C 
ENDBRANCH   2  18
ENDBRANCH   1  10
BRANCH   1  19
ATOM     19  C   UNL     1      -4.358   2.527  -7.422  0.00  0.00    +0.173 C 
BRANCH  19  20
ATOM     20  C   UNL     1      -4.680   2.460  -8.893  0.00  0.00    +0.228 C 
ATOM     21  O   UNL     1      -4.936   3.476  -9.505  0.00  0.00    -0.275 OA
ATOM     22  N   UNL     1      -4.683   1.272  -9.529  0.00  0.00    -0.284 N 
ATOM     23  H   UNL     1      -4.371   0.362  -8.996  0.00  0.00    +0.155 HD
BRANCH  22  24
ATOM     24  C   UNL     1      -5.085   1.196 -10.869  0.00  0.00    +0.047 A 
ATOM     25  C   UNL     1      -4.927   2.290 -11.706  0.00  0.00    +0.024 A 
ATOM     26  C   UNL     1      -5.323   2.213 -13.028  0.00  0.00    +0.002 A 
ATOM     27  C   UNL     1      -5.879   1.046 -13.521  0.00  0.00    +0.001 A 
ATOM     28  C   UNL     1      -6.041  -0.050 -12.695  0.00  0.00    +0.017 A 
ATOM     29  C   UNL     1      -5.641   0.017 -11.367  0.00  0.00    +0.034 A 
BRANCH  29  30
ATOM     30  S   UNL     1      -5.839  -1.381 -10.313  0.00  0.00    -0.088 S 
BRANCH  30  31
ATOM     31  C   UNL     1      -4.210  -2.034 -10.161  0.00  0.00    +0.013 A 
ATOM     32  C   UNL     1      -3.171  -1.500 -10.915  0.00  0.00    +0.015 A 
ATOM     33  C   UNL     1      -1.895  -2.011 -10.789  0.00  0.00    +0.001 A 
ATOM     34  C   UNL     1      -1.651  -3.061  -9.922  0.00  0.00    +0.000 A 
ATOM     35  C   UNL     1      -2.683  -3.599  -9.175  0.00  0.00    +0.001 A 
ATOM     36  C   UNL     1      -3.961  -3.089  -9.291  0.00  0.00    +0.015 A 
ENDBRANCH  30  31
ENDBRANCH  29  30
ENDBRANCH  22  24
ENDBRANCH  19  20
ENDBRANCH   1  19
TORSDOF 9
