REMARK  Name = ZINC01382091
REMARK  10 active torsions:
REMARK  status: ('A' for Active; 'I' for Inactive)
REMARK    1  A    between atoms: C_1  and  C_2
REMARK    2  A    between atoms: C_5  and  C_41
REMARK    3  A    between atoms: C_6  and  N_8
REMARK    4  A    between atoms: N_11  and  C_14
REMARK    5  A    between atoms: C_14  and  C_16
REMARK    6  A    between atoms: C_14  and  C_30
REMARK    7  A    between atoms: C_19  and  C_29
REMARK    8  A    between atoms: C_22  and  C_28
REMARK    9  A    between atoms: N_34  and  C_35
REMARK   10  A    between atoms: C_35  and  C_36
REMARK                            x       y       z     vdW  Elec       q    Type
REMARK                         _______ _______ _______ _____ _____    ______ ____
ROOT
ATOM      1  C   UNL     1       2.466   1.063  -0.016  0.00  0.00    +0.162 C 
ENDROOT
BRANCH   1   2
ATOM      2  C   UNL     1       1.143   1.785   0.001  0.00  0.00    +0.042 A 
ATOM      3  C   UNL     1      -0.013   1.076   0.008  0.00  0.00    +0.021 A 
ATOM      4  C   UNL     1      -1.281   1.807   0.018  0.00  0.00    +0.002 A 
ATOM      5  C   UNL     1      -2.506   1.131   0.032  0.00  0.00    -0.041 A 
ATOM      6  C   UNL     1      -3.672   1.842   0.046  0.00  0.00    +0.004 A 
ATOM      7  C   UNL     1      -3.652   3.231   0.054  0.00  0.00    +0.005 A 
ATOM      8  C   UNL     1      -2.458   3.917   0.046  0.00  0.00    -0.026 A 
ATOM      9  C   UNL     1      -1.257   3.214   0.031  0.00  0.00    +0.052 A 
ATOM     10  N   UNL     1      -0.048   3.876   0.023  0.00  0.00    -0.322 N 
ATOM     11  H   UNL     1      -0.022   4.975   0.028  0.00  0.00    +0.169 HD
ATOM     12  C   UNL     1       1.112   3.196   0.008  0.00  0.00    +0.254 A 
ATOM     13  O   UNL     1       2.163   3.813   0.001  0.00  0.00    -0.268 OA
ATOM     14  C   UNL     1      -2.451   5.424   0.054  0.00  0.00    +0.046 C 
ATOM     15  C   UNL     1      -2.538  -0.376   0.023  0.00  0.00    +0.044 C 
ENDBRANCH   1   2
BRANCH   1  19
ATOM     16  N   UNL     1       4.667   1.246  -3.617  0.00  0.00    -0.327 N 
ATOM     17  C   UNL     1       5.397   1.421  -2.354  0.00  0.00    +0.120 C 
ATOM     18  C   UNL     1       4.566   0.849  -1.204  0.00  0.00    +0.104 C 
ATOM     19  N   UNL     1       3.266   1.532  -1.155  0.00  0.00    -0.286 NA
ATOM     20  C   UNL     1       2.535   1.358  -2.418  0.00  0.00    +0.104 C 
ATOM     21  C   UNL     1       3.367   1.929  -3.569  0.00  0.00    +0.120 C 
BRANCH  16  27
ATOM     22  C   UNL     1       7.046   4.890  -5.901  0.00  0.00    +0.044 C 
ATOM     23  C   UNL     1       6.595   3.454  -5.834  0.00  0.00    -0.049 A 
ATOM     24  C   UNL     1       6.934   2.575  -6.847  0.00  0.00    +0.004 A 
ATOM     25  C   UNL     1       6.522   1.257  -6.790  0.00  0.00    +0.005 A 
ATOM     26  C   UNL     1       5.774   0.811  -5.717  0.00  0.00    -0.029 A 
ATOM     27  C   UNL     1       5.427   1.692  -4.701  0.00  0.00    +0.033 A 
ATOM     28  C   UNL     1       5.843   3.016  -4.762  0.00  0.00    +0.026 A 
ATOM     29  C   UNL     1       5.330  -0.627  -5.653  0.00  0.00    +0.045 C 
ENDBRANCH  16  27
ENDBRANCH   1  19
BRANCH   1  30
ATOM     30  C   UNL     1       3.207   1.343   1.266  0.00  0.00    +0.173 A 
ATOM     31  N   UNL     1       3.822   2.455   1.588  0.00  0.00    -0.111 NA
ATOM     32  N   UNL     1       4.331   2.302   2.762  0.00  0.00    -0.023 NA
ATOM     33  N   UNL     1       4.057   1.122   3.197  0.00  0.00    -0.043 NA
ATOM     34  N   UNL     1       3.361   0.501   2.306  0.00  0.00    -0.220 N 
BRANCH  34  35
ATOM     35  C   UNL     1       2.838  -0.864   2.405  0.00  0.00    +0.221 C 
BRANCH  35  36
ATOM     36  C   UNL     1       3.856  -1.832   1.857  0.00  0.00    +0.126 A 
ATOM     37  C   UNL     1       4.832  -2.430   2.563  0.00  0.00    +0.046 A 
ATOM     38  C   UNL     1       5.545  -3.252   1.661  0.00  0.00    +0.041 A 
ATOM     39  C   UNL     1       4.967  -3.100   0.455  0.00  0.00    +0.195 A 
ATOM     40  O   UNL     1       3.945  -2.239   0.580  0.00  0.00    -0.466 OA
ENDBRANCH  35  36
ENDBRANCH  34  35
ENDBRANCH   1  30
TORSDOF 6
