REMARK  Name = ZINC21813722
REMARK  5 active torsions:
REMARK  status: ('A' for Active; 'I' for Inactive)
REMARK    1  A    between atoms: C_1  and  C_2
REMARK    2  A    between atoms: C_3  and  N_19
REMARK    3  A    between atoms: C_7  and  S_8
REMARK    4  A    between atoms: S_8  and  N_11
REMARK    5  A    between atoms: C_15  and  C_18
REMARK                            x       y       z     vdW  Elec       q    Type
REMARK                         _______ _______ _______ _____ _____    ______ ____
ROOT
ATOM      1  C   UNL     1      -1.388   3.251  -1.967  0.00  0.00    +0.047 C 
ATOM      2  C   UNL     1      -0.568   2.816  -0.780  0.00  0.00    -0.004 A 
ATOM      3  C   UNL     1       0.658   3.416  -0.524  0.00  0.00    +0.029 A 
ATOM      4  C   UNL     1       1.411   3.012   0.572  0.00  0.00    +0.023 A 
ATOM      5  C   UNL     1       0.938   2.015   1.402  0.00  0.00    +0.004 A 
ATOM      6  C   UNL     1      -0.283   1.420   1.145  0.00  0.00    +0.029 A 
ATOM      7  C   UNL     1      -1.038   1.824   0.058  0.00  0.00    +0.110 A 
ENDROOT
BRANCH   7   8
ATOM      8  S   UNL     1      -2.596   1.067  -0.261  0.00  0.00    +0.061 S 
ATOM      9  O   UNL     1      -2.768   0.058   0.725  0.00  0.00    -0.153 OA
ATOM     10  O   UNL     1      -3.531   2.122  -0.442  0.00  0.00    -0.153 OA
BRANCH   8  11
ATOM     11  N   UNL     1      -2.474   0.289  -1.718  0.00  0.00    -0.176 NA
ATOM     12  C   UNL     1      -2.941   0.934  -2.953  0.00  0.00    +0.109 C 
ATOM     13  C   UNL     1      -3.919  -0.001  -3.663  0.00  0.00    +0.017 C 
ATOM     14  C   UNL     1      -3.254  -1.363  -3.877  0.00  0.00    +0.006 C 
ATOM     15  C   UNL     1      -2.895  -1.976  -2.522  0.00  0.00    +0.002 C 
ATOM     16  C   UNL     1      -1.900  -1.062  -1.800  0.00  0.00    +0.112 C 
ATOM     17  C   UNL     1      -2.260  -3.352  -2.736  0.00  0.00    +0.009 C 
ENDBRANCH   8  11
ENDBRANCH   7   8
BRANCH   3  18
ATOM     18  N   UNL     1       1.134   4.423  -1.366  0.00  0.00    -0.358 N 
ATOM     19  H   UNL     1       2.105   4.898  -1.163  0.00  0.00    +0.142 HD
ATOM     20  H   UNL     1       0.537   4.742  -2.234  0.00  0.00    +0.142 HD
ENDBRANCH   3  18
TORSDOF 3
