REMARK  Name = ZINC49575690
REMARK  7 active torsions:
REMARK  status: ('A' for Active; 'I' for Inactive)
REMARK    1  A    between atoms: C_6  and  C_7
REMARK    2  A    between atoms: C_7  and  N_8
REMARK    3  A    between atoms: N_8  and  S_9
REMARK    4  A    between atoms: S_9  and  C_12
REMARK    5  A    between atoms: C_15  and  C_17
REMARK    6  A    between atoms: C_17  and  C_18
REMARK    7  A    between atoms: C_18  and  N_19
REMARK                            x       y       z     vdW  Elec       q    Type
REMARK                         _______ _______ _______ _____ _____    ______ ____
ROOT
ATOM      1  S   UNL     1      -2.899  -2.143  -1.682  0.00  0.00    +0.065 S 
ATOM      2  O   UNL     1      -3.114  -2.125  -3.087  0.00  0.00    -0.153 OA
ATOM      3  O   UNL     1      -2.527  -3.322  -0.983  0.00  0.00    -0.153 OA
ENDROOT
BRANCH   1   4
ATOM      4  C   UNL     1      -4.388  -1.565  -0.938  0.00  0.00    +0.143 A 
ATOM      5  C   UNL     1      -5.360  -0.783  -1.469  0.00  0.00    +0.036 A 
ATOM      6  C   UNL     1      -6.454  -0.453  -0.691  0.00  0.00    +0.013 A 
ATOM      7  C   UNL     1      -6.521  -0.919   0.580  0.00  0.00    -0.010 A 
ATOM      8  S   UNL     1      -5.012  -1.863   0.708  0.00  0.00    -0.074 S 
BRANCH   7   9
ATOM      9  C   UNL     1      -7.595  -0.702   1.615  0.00  0.00    +0.023 C 
BRANCH   9  10
ATOM     10  C   UNL     1      -8.649  -1.805   1.496  0.00  0.00    -0.081 C 
BRANCH  10  11
ATOM     11  N   UNL     1      -9.696  -1.593   2.505  0.00  0.00    +0.378 N 
ATOM     12  H   UNL     1      -9.285  -1.618   3.426  0.00  0.00    -0.090 HD
ATOM     13  H   UNL     1     -10.130  -0.695   2.355  0.00  0.00    -0.090 HD
ATOM     14  H   UNL     1     -10.390  -2.321   2.426  0.00  0.00    -0.090 HD
ENDBRANCH  10  11
ENDBRANCH   9  10
ENDBRANCH   7   9
ENDBRANCH   1   4
BRANCH   1  15
ATOM     15  N   UNL     1      -1.726  -1.017  -1.368  0.00  0.00    -0.185 NA
ATOM     16  H   UNL     1      -1.326  -0.517  -2.097  0.00  0.00    +0.148 HD
BRANCH  15  17
ATOM     17  C   UNL     1      -1.293  -0.774   0.010  0.00  0.00    +0.141 C 
BRANCH  17  23
ATOM     18  C   UNL     1      -0.017   1.378   0.010  0.00  0.00    +0.008 A 
ATOM     19  C   UNL     1       1.170   2.087   0.002  0.00  0.00    +0.041 A 
ATOM     20  C   UNL     1       2.379   1.413  -0.013  0.00  0.00    +0.158 A 
ATOM     21  C   UNL     1       2.397   0.026  -0.021  0.00  0.00    +0.159 A 
ATOM     22  C   UNL     1       1.208  -0.680  -0.013  0.00  0.00    +0.046 A 
ATOM     23  C   UNL     1       0.002  -0.004   0.002  0.00  0.00    -0.029 A 
ATOM     24  F   UNL     1       3.576  -0.634  -0.036  0.00  0.00    -0.202 F 
ATOM     25  F   UNL     1       3.539   2.105  -0.021  0.00  0.00    -0.202 F 
ENDBRANCH  17  23
ENDBRANCH  15  17
ENDBRANCH   1  15
TORSDOF 7
