REMARK  Name = ZINC39671407
REMARK  4 active torsions:
REMARK  status: ('A' for Active; 'I' for Inactive)
REMARK    1  A    between atoms: C_6  and  C_11
REMARK    2  A    between atoms: C_11  and  N_12
REMARK    3  A    between atoms: C_13  and  C_15
REMARK    4  A    between atoms: C_26  and  C_28
REMARK                            x       y       z     vdW  Elec       q    Type
REMARK                         _______ _______ _______ _____ _____    ______ ____
ROOT
ATOM      1  C   UNL     1      -8.261   0.118   3.383  0.00  0.00    +0.100 C 
ATOM      2  C   UNL     1      -7.800   1.357   4.183  0.00  0.00    +0.121 C 
ATOM      3  N   UNL     1      -8.923   2.317   4.067  0.00  0.00    -0.296 N 
ATOM      4  C   UNL     1     -10.139   1.476   4.174  0.00  0.00    +0.115 C 
ATOM      5  C   UNL     1      -9.797   0.198   3.383  0.00  0.00    -0.004 C 
ATOM      6  C   UNL     1     -10.389  -1.026   4.074  0.00  0.00    -0.010 C 
ATOM      7  C   UNL     1     -11.918  -0.953   4.010  0.00  0.00    -0.082 C 
ATOM      8  N   UNL     1     -12.349  -0.902   2.608  0.00  0.00    +0.379 N 
ATOM      9  C   UNL     1     -11.851   0.326   1.976  0.00  0.00    -0.082 C 
ATOM     10  C   UNL     1     -10.320   0.307   1.954  0.00  0.00    -0.010 C 
ATOM     11  C   UNL     1      -8.854   3.653   3.903  0.00  0.00    +0.247 C 
ATOM     12  O   UNL     1      -9.871   4.320   3.914  0.00  0.00    -0.270 OA
ATOM     13  H   UNL     1     -11.984  -1.703   2.115  0.00  0.00    -0.086 HD
ATOM     14  H   UNL     1     -13.357  -0.915   2.566  0.00  0.00    -0.086 HD
ENDROOT
BRANCH  11  15
ATOM     15  C   UNL     1      -7.544   4.307   3.710  0.00  0.00    +0.045 A 
ATOM     16  C   UNL     1      -6.489   4.042   4.592  0.00  0.00    +0.014 A 
ATOM     17  C   UNL     1      -5.266   4.650   4.415  0.00  0.00    +0.001 A 
ATOM     18  C   UNL     1      -5.065   5.531   3.362  0.00  0.00    +0.012 A 
ATOM     19  C   UNL     1      -6.099   5.808   2.476  0.00  0.00    +0.031 A 
ATOM     20  C   UNL     1      -7.349   5.191   2.641  0.00  0.00    +0.006 A 
ATOM     21  C   UNL     1      -8.257   5.655   1.562  0.00  0.00    -0.006 A 
ATOM     22  C   UNL     1      -9.582   5.359   1.274  0.00  0.00    +0.009 A 
ATOM     23  C   UNL     1     -10.202   5.945   0.181  0.00  0.00    +0.001 A 
ATOM     24  C   UNL     1      -9.510   6.824  -0.628  0.00  0.00    +0.001 A 
ATOM     25  C   UNL     1      -8.186   7.130  -0.354  0.00  0.00    +0.012 A 
ATOM     26  C   UNL     1      -7.553   6.551   0.738  0.00  0.00    +0.030 A 
ATOM     27  C   UNL     1      -6.181   6.686   1.284  0.00  0.00    +0.194 C 
ATOM     28  O   UNL     1      -5.290   7.376   0.833  0.00  0.00    -0.287 OA
ENDBRANCH  11  15
BRANCH   1  30
ATOM     29  N   UNL     1      -7.477  -0.962   1.300  0.00  0.00    -0.309 N 
ATOM     30  C   UNL     1      -7.733   0.178   1.972  0.00  0.00    +0.219 C 
ATOM     31  O   UNL     1      -7.538   1.251   1.443  0.00  0.00    -0.275 OA
ATOM     32  H   UNL     1      -7.633  -1.821   1.724  0.00  0.00    +0.149 HD
BRANCH  29  33
ATOM     33  C   UNL     1      -6.963  -0.904  -0.070  0.00  0.00    +0.157 C 
BRANCH  33  39
ATOM     34  C   UNL     1      -5.612  -6.512  -2.010  0.00  0.00    +0.001 A 
ATOM     35  C   UNL     1      -6.951  -6.521  -2.374  0.00  0.00    +0.002 A 
ATOM     36  C   UNL     1      -7.751  -5.425  -2.139  0.00  0.00    +0.026 A 
ATOM     37  C   UNL     1      -7.214  -4.295  -1.530  0.00  0.00    +0.047 A 
ATOM     38  N   UNL     1      -7.736  -3.074  -1.170  0.00  0.00    -0.357 N 
ATOM     39  C   UNL     1      -6.763  -2.304  -0.591  0.00  0.00    +0.034 A 
ATOM     40  H   UNL     1      -8.656  -2.799  -1.306  0.00  0.00    +0.166 HD
ATOM     41  C   UNL     1      -5.605  -2.981  -0.557  0.00  0.00    +0.032 A 
ATOM     42  C   UNL     1      -5.856  -4.291  -1.162  0.00  0.00    -0.000 A 
ATOM     43  C   UNL     1      -5.065  -5.416  -1.405  0.00  0.00    +0.010 A 
ENDBRANCH  33  39
ENDBRANCH  29  33
ENDBRANCH   1  30
TORSDOF 4
