REMARK  Name = ZINC34717064
REMARK  10 active torsions:
REMARK  status: ('A' for Active; 'I' for Inactive)
REMARK    1  A    between atoms: C_1  and  C_2
REMARK    2  A    between atoms: C_6  and  C_8
REMARK    3  A    between atoms: C_12  and  O_26
REMARK    4  A    between atoms: C_19  and  C_21
REMARK    5  A    between atoms: O_26  and  C_27
REMARK    6  A    between atoms: C_27  and  C_29
REMARK    7  A    between atoms: C_27  and  C_30
REMARK    8  A    between atoms: N_32  and  C_33
REMARK    9  A    between atoms: C_33  and  C_34
REMARK   10  A    between atoms: C_34  and  N_35
REMARK                            x       y       z     vdW  Elec       q    Type
REMARK                         _______ _______ _______ _____ _____    ______ ____
ROOT
ATOM      1  C   UNL     1       0.045  -2.850   2.470  0.00  0.00    +0.137 C 
ATOM      2  C   UNL     1      -1.284  -3.225   3.076  0.00  0.00    -0.016 A 
ATOM      3  C   UNL     1      -2.203  -2.210   3.298  0.00  0.00    +0.051 A 
ATOM      4  C   UNL     1      -3.444  -2.492   3.843  0.00  0.00    +0.122 A 
ATOM      5  C   UNL     1      -3.768  -3.802   4.165  0.00  0.00    +0.046 A 
ATOM      6  C   UNL     1      -2.852  -4.808   3.946  0.00  0.00    +0.007 A 
ATOM      7  C   UNL     1      -1.603  -4.524   3.405  0.00  0.00    -0.040 A 
ATOM      8  C   UNL     1      -0.646  -5.672   3.221  0.00  0.00    +0.054 C 
ATOM      9  C   UNL     1       0.444  -5.315   2.211  0.00  0.00    +0.113 C 
ATOM     10  N   UNL     1       0.968  -3.986   2.563  0.00  0.00    -0.290 N 
ATOM     11  C   UNL     1       2.247  -3.820   2.955  0.00  0.00    +0.219 C 
ATOM     12  O   UNL     1       2.655  -2.714   3.238  0.00  0.00    -0.275 OA
ENDROOT
BRANCH   1  18
ATOM     13  C   UNL     1       0.590   0.418  -1.281  0.00  0.00    +0.044 C 
ATOM     14  C   UNL     1       0.110  -0.917  -0.773  0.00  0.00    -0.050 A 
ATOM     15  C   UNL     1      -0.510  -1.803  -1.634  0.00  0.00    +0.003 A 
ATOM     16  C   UNL     1      -0.951  -3.027  -1.168  0.00  0.00    +0.001 A 
ATOM     17  C   UNL     1      -0.771  -3.366   0.160  0.00  0.00    +0.006 A 
ATOM     18  C   UNL     1      -0.150  -2.481   1.022  0.00  0.00    -0.022 A 
ATOM     19  C   UNL     1       0.294  -1.258   0.554  0.00  0.00    +0.009 A 
ENDBRANCH   1  18
BRANCH  11  20
ATOM     20  C   UNL     1       3.170  -5.008   3.040  0.00  0.00    +0.075 C 
ATOM     21  C   UNL     1       2.650  -6.006   4.096  0.00  0.00    +0.013 C 
ATOM     22  C   UNL     1       3.935  -6.552   4.767  0.00  0.00    +0.001 C 
ATOM     23  C   UNL     1       4.845  -5.300   4.832  0.00  0.00    +0.001 C 
ATOM     24  C   UNL     1       4.565  -4.560   3.508  0.00  0.00    +0.013 C 
ENDBRANCH  11  20
BRANCH   4  25
ATOM     25  O   UNL     1      -4.338  -1.493   4.060  0.00  0.00    -0.480 OA
BRANCH  25  26
ATOM     26  C   UNL     1      -5.640  -1.874   4.510  0.00  0.00    +0.255 C 
ATOM     27  C   UNL     1      -5.628  -2.031   6.032  0.00  0.00    +0.062 C 
BRANCH  26  28
ATOM     28  C   UNL     1      -6.637  -0.812   4.123  0.00  0.00    +0.253 C 
ATOM     29  O   UNL     1      -6.268   0.174   3.521  0.00  0.00    -0.272 OA
ATOM     30  N   UNL     1      -7.937  -0.958   4.446  0.00  0.00    -0.314 N 
ATOM     31  H   UNL     1      -8.231  -1.747   4.928  0.00  0.00    +0.149 HD
BRANCH  30  32
ATOM     32  C   UNL     1      -8.906   0.074   4.070  0.00  0.00    +0.086 C 
BRANCH  32  33
ATOM     33  C   UNL     1     -10.299  -0.334   4.552  0.00  0.00    -0.060 C 
BRANCH  33  34
ATOM     34  N   UNL     1     -11.271   0.702   4.175  0.00  0.00    +0.381 N 
ATOM     35  C   UNL     1     -11.448   0.724   2.701  0.00  0.00    -0.079 C 
ATOM     36  C   UNL     1     -12.830   1.402   2.521  0.00  0.00    -0.020 C 
ATOM     37  C   UNL     1     -13.649   0.838   3.705  0.00  0.00    -0.020 C 
ATOM     38  C   UNL     1     -12.601   0.382   4.737  0.00  0.00    -0.079 C 
ATOM     39  H   UNL     1     -10.962   1.605   4.503  0.00  0.00    -0.082 HD
ENDBRANCH  33  34
ENDBRANCH  32  33
ENDBRANCH  30  32
ENDBRANCH  26  28
ENDBRANCH  25  26
ENDBRANCH   4  25
TORSDOF 8
