REMARK  Name = ZINC12570345
REMARK  9 active torsions:
REMARK  status: ('A' for Active; 'I' for Inactive)
REMARK    1  A    between atoms: C_1  and  O_2
REMARK    2  A    between atoms: O_2  and  C_3
REMARK    3  A    between atoms: C_6  and  C_10
REMARK    4  A    between atoms: N_12  and  C_13
REMARK    5  A    between atoms: C_13  and  N_15
REMARK    6  A    between atoms: N_15  and  N_16
REMARK    7  A    between atoms: C_17  and  C_19
REMARK    8  A    between atoms: C_19  and  C_20
REMARK    9  A    between atoms: C_20  and  C_21
REMARK                            x       y       z     vdW  Elec       q    Type
REMARK                         _______ _______ _______ _____ _____    ______ ____
ROOT
ATOM      1  C   UNL     1       2.320   1.243  -0.013  0.00  0.00    +0.153 C 
ATOM      2  S   UNL     1       2.343  -0.469  -0.023  0.00  0.00    -0.017 S 
ENDROOT
BRANCH   1   5
ATOM      3  C   UNL     1      -0.014   1.211   0.009  0.00  0.00    +0.250 C 
ATOM      4  O   UNL     1       0.002  -0.004   0.002  0.00  0.00    -0.270 OA
ATOM      5  N   UNL     1       1.143   1.901   0.001  0.00  0.00    -0.263 N 
ATOM      6  H   UNL     1       1.130   2.871   0.007  0.00  0.00    +0.157 HD
BRANCH   3  10
ATOM      7  C   UNL     1      -3.720   3.285   0.037  0.00  0.00    +0.134 A 
ATOM      8  C   UNL     1      -2.526   3.998   0.035  0.00  0.00    +0.047 A 
ATOM      9  C   UNL     1      -1.323   3.329   0.032  0.00  0.00    +0.017 A 
ATOM     10  C   UNL     1      -1.302   1.931   0.019  0.00  0.00    +0.038 A 
ATOM     11  C   UNL     1      -2.504   1.218   0.021  0.00  0.00    +0.032 A 
ATOM     12  C   UNL     1      -3.704   1.895   0.030  0.00  0.00    +0.060 A 
ATOM     13 BR   UNL     1      -5.331   0.932   0.032  0.00  0.00    -0.046 Br
BRANCH   7  15
ATOM     14  C   UNL     1      -4.848   5.376   0.053  0.00  0.00    +0.277 C 
ATOM     15  O   UNL     1      -4.904   3.949   0.046  0.00  0.00    -0.494 OA
ENDBRANCH   7  15
ENDBRANCH   3  10
ENDBRANCH   1   5
BRANCH   1  16
ATOM     16  N   UNL     1       3.478   1.933  -0.021  0.00  0.00    -0.246 N 
ATOM     17  H   UNL     1       4.324   1.459  -0.031  0.00  0.00    +0.172 HD
BRANCH  16  18
ATOM     18  N   UNL     1       3.459   3.334  -0.013  0.00  0.00    -0.235 N 
ATOM     19  C   UNL     1       4.617   4.023  -0.020  0.00  0.00    +0.229 C 
ATOM     20  O   UNL     1       5.675   3.431  -0.034  0.00  0.00    -0.274 OA
ATOM     21  H   UNL     1       2.612   3.807  -0.002  0.00  0.00    +0.173 HD
BRANCH  19  22
ATOM     22  C   UNL     1       4.596   5.530  -0.012  0.00  0.00    +0.102 C 
BRANCH  22  23
ATOM     23  C   UNL     1       6.031   6.060  -0.023  0.00  0.00    +0.044 C 
BRANCH  23  24
ATOM     24  C   UNL     1       6.011   7.567  -0.015  0.00  0.00    -0.047 A 
ATOM     25  C   UNL     1       5.996   8.264  -1.208  0.00  0.00    +0.003 A 
ATOM     26  C   UNL     1       5.972   9.646  -1.200  0.00  0.00    +0.000 A 
ATOM     27  C   UNL     1       5.974  10.331   0.001  0.00  0.00    +0.000 A 
ATOM     28  C   UNL     1       5.995   9.633   1.194  0.00  0.00    +0.000 A 
ATOM     29  C   UNL     1       6.013   8.251   1.186  0.00  0.00    +0.003 A 
ENDBRANCH  23  24
ENDBRANCH  22  23
ENDBRANCH  19  22
ENDBRANCH  16  18
ENDBRANCH   1  16
TORSDOF 8
