REMARK  Name = ZINC31865526
REMARK  5 active torsions:
REMARK  status: ('A' for Active; 'I' for Inactive)
REMARK    1  A    between atoms: C_1  and  C_2
REMARK    2  A    between atoms: C_8  and  C_25
REMARK    3  A    between atoms: C_12  and  C_13
REMARK    4  A    between atoms: C_17  and  C_24
REMARK    5  A    between atoms: C_20  and  C_23
REMARK                            x       y       z     vdW  Elec       q    Type
REMARK                         _______ _______ _______ _____ _____    ______ ____
ROOT
ATOM      1  C   UNL     1       1.551   0.988   0.185  0.00  0.00    +0.046 C 
ATOM      2  C   UNL     1       0.663  -0.225   0.077  0.00  0.00    -0.017 A 
ATOM      3  C   UNL     1       0.514  -0.877  -1.149  0.00  0.00    +0.076 A 
ATOM      4  C   UNL     1       1.125  -0.556  -2.460  0.00  0.00    +0.260 A 
ATOM      5  O   UNL     1       1.878   0.394  -2.582  0.00  0.00    -0.267 OA
ATOM      6  N   UNL     1       0.826  -1.342  -3.513  0.00  0.00    -0.311 N 
ATOM      7  H   UNL     1       1.218  -1.145  -4.378  0.00  0.00    +0.170 HD
ATOM      8  C   UNL     1      -0.010  -2.402  -3.387  0.00  0.00    +0.108 A 
ATOM      9  N   UNL     1      -0.565  -2.712  -2.247  0.00  0.00    -0.227 NA
ATOM     10  C   UNL     1      -0.339  -2.004  -1.148  0.00  0.00    +0.116 A 
ATOM     11  S   UNL     1      -0.884  -2.100   0.538  0.00  0.00    -0.064 S 
ATOM     12  C   UNL     1       0.008  -0.693   1.178  0.00  0.00    +0.080 A 
ATOM     13  C   UNL     1      -0.308  -3.246  -4.599  0.00  0.00    +0.086 C 
ENDROOT
BRANCH  12  14
ATOM     14  C   UNL     1       0.030  -0.168   2.547  0.00  0.00    +0.254 C 
ATOM     15  O   UNL     1       0.120   1.030   2.739  0.00  0.00    -0.269 OA
ATOM     16  N   UNL     1      -0.050  -1.014   3.594  0.00  0.00    -0.292 N 
ATOM     17  C   UNL     1      -0.161  -0.506   4.971  0.00  0.00    +0.139 C 
ATOM     18  C   UNL     1       0.899  -1.204   5.830  0.00  0.00    +0.133 C 
ATOM     19  O   UNL     1       0.784  -2.619   5.664  0.00  0.00    -0.371 OA
ATOM     20  C   UNL     1       1.025  -3.073   4.330  0.00  0.00    +0.133 C 
ATOM     21  C   UNL     1      -0.035  -2.471   3.394  0.00  0.00    +0.139 C 
ATOM     22  C   UNL     1       0.937  -4.600   4.287  0.00  0.00    +0.039 C 
ATOM     23  C   UNL     1       0.684  -0.841   7.301  0.00  0.00    +0.039 C 
ENDBRANCH  12  14
TORSDOF 1
