REMARK  Name = ZINC36594527
REMARK  18 active torsions:
REMARK  status: ('A' for Active; 'I' for Inactive)
REMARK    1  A    between atoms: C_1  and  C_2
REMARK    2  A    between atoms: C_2  and  C_3
REMARK    3  A    between atoms: C_3  and  C_4
REMARK    4  A    between atoms: C_4  and  C_5
REMARK    5  A    between atoms: N_7  and  C_8
REMARK    6  A    between atoms: N_7  and  C_33
REMARK    7  A    between atoms: C_8  and  C_10
REMARK    8  A    between atoms: C_8  and  C_19
REMARK    9  A    between atoms: C_11  and  O_18
REMARK   10  A    between atoms: C_13  and  O_17
REMARK   11  A    between atoms: C_15  and  O_16
REMARK   12  A    between atoms: N_21  and  C_22
REMARK   13  A    between atoms: C_22  and  S_23
REMARK   14  A    between atoms: S_23  and  C_26
REMARK   15  A    between atoms: C_29  and  C_32
REMARK   16  A    between atoms: C_33  and  C_34
REMARK   17  A    between atoms: C_33  and  C_35
REMARK   18  A    between atoms: C_33  and  C_36
REMARK                            x       y       z     vdW  Elec       q    Type
REMARK                         _______ _______ _______ _____ _____    ______ ____
ROOT
ATOM      1  C   UNL     1      -3.262  -4.181  -3.577  0.00  0.00    +0.200 C 
ENDROOT
BRANCH   1   2
ATOM      2  C   UNL     1      -4.027  -5.300  -4.236  0.00  0.00    +0.065 A 
ATOM      3  C   UNL     1      -3.928  -6.593  -3.743  0.00  0.00    +0.129 A 
ATOM      4  C   UNL     1      -4.632  -7.622  -4.350  0.00  0.00    +0.091 A 
ATOM      5  C   UNL     1      -5.435  -7.359  -5.450  0.00  0.00    +0.124 A 
ATOM      6  C   UNL     1      -5.535  -6.066  -5.942  0.00  0.00    +0.091 A 
ATOM      7  C   UNL     1      -4.834  -5.036  -5.332  0.00  0.00    +0.129 A 
BRANCH   7   8
ATOM      8  O   UNL     1      -4.936  -3.769  -5.812  0.00  0.00    -0.506 OA
ATOM      9  H   UNL     1      -4.281  -3.551  -6.490  0.00  0.00    +0.292 HD
ENDBRANCH   7   8
BRANCH   5  10
ATOM     10  O   UNL     1      -6.124  -8.368  -6.045  0.00  0.00    -0.507 OA
ATOM     11  H   UNL     1      -7.008  -8.508  -5.681  0.00  0.00    +0.292 HD
ENDBRANCH   5  10
BRANCH   3  12
ATOM     12  O   UNL     1      -3.141  -6.850  -2.666  0.00  0.00    -0.506 OA
ATOM     13  H   UNL     1      -3.619  -6.870  -1.825  0.00  0.00    +0.292 HD
ENDBRANCH   3  12
ENDBRANCH   1   2
BRANCH   1  14
ATOM     14  C   UNL     1      -1.787  -4.373  -3.815  0.00  0.00    +0.240 C 
ATOM     15  O   UNL     1      -1.036  -4.529  -2.875  0.00  0.00    -0.273 OA
ATOM     16  N   UNL     1      -1.301  -4.371  -5.072  0.00  0.00    -0.294 N 
ATOM     17  H   UNL     1      -1.902  -4.246  -5.824  0.00  0.00    +0.150 HD
BRANCH  16  18
ATOM     18  C   UNL     1       0.133  -4.557  -5.304  0.00  0.00    +0.278 C 
BRANCH  18  19
ATOM     19  S   UNL     1       0.469  -6.308  -5.640  0.00  0.00    +0.013 S 
ATOM     20  O   UNL     1       1.848  -6.495  -5.929  0.00  0.00    -0.168 OA
ATOM     21  O   UNL     1      -0.187  -7.125  -4.680  0.00  0.00    -0.168 OA
BRANCH  19  22
ATOM     22  C   UNL     1      -0.358  -6.645  -7.158  0.00  0.00    +0.090 A 
ATOM     23  C   UNL     1      -1.671  -7.077  -7.149  0.00  0.00    +0.027 A 
ATOM     24  C   UNL     1      -2.321  -7.341  -8.340  0.00  0.00    +0.005 A 
ATOM     25  C   UNL     1      -1.657  -7.173  -9.541  0.00  0.00    -0.050 A 
ATOM     26  C   UNL     1      -0.345  -6.740  -9.550  0.00  0.00    +0.005 A 
ATOM     27  C   UNL     1       0.303  -6.471  -8.359  0.00  0.00    +0.027 A 
ATOM     28  C   UNL     1      -2.365  -7.462 -10.840  0.00  0.00    +0.044 C 
ENDBRANCH  19  22
ENDBRANCH  18  19
ENDBRANCH  16  18
ENDBRANCH   1  14
BRANCH   1  31
ATOM     29  C   UNL     1      -4.714  -4.636  -1.673  0.00  0.00    +0.217 C 
ATOM     30  O   UNL     1      -5.545  -5.065  -2.446  0.00  0.00    -0.276 OA
ATOM     31  N   UNL     1      -3.530  -4.190  -2.136  0.00  0.00    -0.281 N 
BRANCH  31  32
ATOM     32  C   UNL     1      -2.509  -3.714  -1.199  0.00  0.00    +0.030 C 
ATOM     33  C   UNL     1      -3.175  -2.888  -0.097  0.00  0.00    +0.031 C 
ATOM     34  C   UNL     1      -1.791  -4.912  -0.575  0.00  0.00    +0.031 C 
ATOM     35  C   UNL     1      -1.496  -2.844  -1.946  0.00  0.00    +0.031 C 
ENDBRANCH  31  32
BRANCH  29  36
ATOM     36  C   UNL     1      -5.007  -4.603  -0.195  0.00  0.00    +0.096 C 
BRANCH  36  37
ATOM     37  C   UNL     1      -6.471  -4.974   0.043  0.00  0.00    +0.009 C 
BRANCH  37  39
ATOM     38  C   UNL     1      -8.233  -5.311   1.783  0.00  0.00    +0.004 C 
ATOM     39  C   UNL     1      -6.768  -4.940   1.544  0.00  0.00    -0.003 C 
ENDBRANCH  37  39
ENDBRANCH  36  37
ENDBRANCH  29  36
ENDBRANCH   1  31
TORSDOF 13
