REMARK  Name = ZINC25383487
REMARK  9 active torsions:
REMARK  status: ('A' for Active; 'I' for Inactive)
REMARK    1  A    between atoms: C_3  and  C_6
REMARK    2  A    between atoms: C_6  and  C_8
REMARK    3  A    between atoms: C_6  and  N_29
REMARK    4  A    between atoms: C_8  and  N_9
REMARK    5  A    between atoms: C_10  and  C_12
REMARK    6  A    between atoms: C_15  and  S_18
REMARK    7  A    between atoms: S_18  and  N_21
REMARK    8  A    between atoms: N_21  and  C_22
REMARK    9  A    between atoms: C_22  and  C_23
REMARK                            x       y       z     vdW  Elec       q    Type
REMARK                         _______ _______ _______ _____ _____    ______ ____
ROOT
ATOM      1  N   UNL     1      -0.886   1.898  -8.368  0.00  0.00    -0.313 N 
ATOM      2  C   UNL     1      -1.414   1.073  -7.443  0.00  0.00    +0.244 C 
ATOM      3  O   UNL     1      -1.506  -0.117  -7.671  0.00  0.00    -0.270 OA
ATOM      4  H   UNL     1      -0.803   2.975  -8.161  0.00  0.00    +0.149 HD
ENDROOT
BRANCH   2   5
ATOM      5  C   UNL     1      -1.883   1.616  -6.150  0.00  0.00    +0.037 A 
ATOM      6  C   UNL     1      -2.431   0.764  -5.189  0.00  0.00    +0.015 A 
ATOM      7  C   UNL     1      -2.866   1.277  -3.985  0.00  0.00    +0.029 A 
ATOM      8  C   UNL     1      -2.760   2.632  -3.728  0.00  0.00    +0.105 A 
ATOM      9  C   UNL     1      -2.223   3.483  -4.678  0.00  0.00    +0.029 A 
ATOM     10  C   UNL     1      -1.779   2.982  -5.884  0.00  0.00    +0.015 A 
BRANCH   8  11
ATOM     11  S   UNL     1      -3.319   3.279  -2.187  0.00  0.00    +0.058 S 
ATOM     12  O   UNL     1      -4.285   2.364  -1.689  0.00  0.00    -0.153 OA
ATOM     13  O   UNL     1      -3.611   4.652  -2.405  0.00  0.00    -0.153 OA
BRANCH  11  14
ATOM     14  N   UNL     1      -2.036   3.229  -1.141  0.00  0.00    -0.187 NA
ATOM     15  H   UNL     1      -2.012   2.460  -0.355  0.00  0.00    +0.148 HD
BRANCH  14  16
ATOM     16  C   UNL     1      -0.851   4.052  -1.395  0.00  0.00    +0.137 C 
BRANCH  16  17
ATOM     17  C   UNL     1       0.007   4.117  -0.130  0.00  0.00    +0.134 C 
ATOM     18  C   UNL     1       1.252   4.987  -0.385  0.00  0.00    +0.035 C 
ATOM     19  C   UNL     1       1.153   6.111   0.676  0.00  0.00    +0.031 C 
ATOM     20  C   UNL     1       0.212   5.478   1.732  0.00  0.00    +0.160 C 
ATOM     21  O   UNL     1      -0.735   4.733   0.936  0.00  0.00    -0.375 OA
ENDBRANCH  16  17
ENDBRANCH  14  16
ENDBRANCH  11  14
ENDBRANCH   8  11
ENDBRANCH   2   5
BRANCH   1  22
ATOM     22  C   UNL     1      -0.421   1.360  -9.649  0.00  0.00    +0.094 C 
BRANCH  22  23
ATOM     23  C   UNL     1       0.267   2.469 -10.448  0.00  0.00    -0.013 C 
BRANCH  23  24
ATOM     24  N   UNL     1       1.463   2.923  -9.725  0.00  0.00    +0.386 N 
ATOM     25  C   UNL     1       2.306   3.792 -10.585  0.00  0.00    -0.078 C 
ATOM     26  C   UNL     1       3.171   4.571  -9.562  0.00  0.00    -0.020 C 
ATOM     27  C   UNL     1       2.186   4.822  -8.397  0.00  0.00    -0.020 C 
ATOM     28  C   UNL     1       1.093   3.749  -8.556  0.00  0.00    -0.078 C 
ATOM     29  H   UNL     1       1.994   2.009  -9.421  0.00  0.00    -0.081 HD
ENDBRANCH  23  24
BRANCH  23  32
ATOM     30  C   UNL     1       0.649   1.571 -14.130  0.00  0.00    +0.008 A 
ATOM     31  C   UNL     1       0.103   2.169 -13.010  0.00  0.00    +0.009 A 
ATOM     32  C   UNL     1       0.669   1.938 -11.800  0.00  0.00    -0.022 A 
ATOM     33  S   UNL     1       2.009   0.836 -12.223  0.00  0.00    -0.103 S 
ATOM     34  C   UNL     1       1.728   0.763 -13.985  0.00  0.00    +0.045 A 
ENDBRANCH  23  32
ENDBRANCH  22  23
ENDBRANCH   1  22
TORSDOF 9
