REMARK  Name = ZINC40727140
REMARK  4 active torsions:
REMARK  status: ('A' for Active; 'I' for Inactive)
REMARK    1  A    between atoms: C_4  and  N_7
REMARK    2  A    between atoms: C_14  and  N_31
REMARK    3  A    between atoms: C_15  and  O_19
REMARK    4  A    between atoms: O_19  and  C_20
REMARK                            x       y       z     vdW  Elec       q    Type
REMARK                         _______ _______ _______ _____ _____    ______ ____
ROOT
ATOM      1  N   UNL     1       4.245   0.399   1.414  0.00  0.00    -0.327 N 
ATOM      2  C   UNL     1       4.924   0.038   2.667  0.00  0.00    +0.124 C 
ATOM      3  C   UNL     1       5.175  -1.475   2.670  0.00  0.00    +0.125 C 
ATOM      4  N   UNL     1       5.799  -1.850   1.393  0.00  0.00    -0.311 N 
ATOM      5  C   UNL     1       5.120  -1.489   0.141  0.00  0.00    +0.125 C 
ATOM      6  C   UNL     1       4.866   0.019   0.138  0.00  0.00    +0.124 C 
ATOM      7  C   UNL     1       7.008  -2.533   1.371  0.00  0.00    +0.149 A 
ATOM      8  C   UNL     1       7.035  -3.927   1.276  0.00  0.00    +0.128 A 
ATOM      9  C   UNL     1       8.275  -4.562   1.257  0.00  0.00    +0.246 A 
ATOM     10  N   UNL     1       9.379  -3.823   1.331  0.00  0.00    -0.199 NA
ATOM     11  C   UNL     1       9.311  -2.511   1.420  0.00  0.00    +0.227 A 
ATOM     12  N   UNL     1       8.160  -1.870   1.435  0.00  0.00    -0.219 NA
ENDROOT
BRANCH   1  16
ATOM     13  C   UNL     1       0.619   2.445   1.481  0.00  0.00    +0.000 A 
ATOM     14  C   UNL     1       1.256   2.209   0.277  0.00  0.00    +0.002 A 
ATOM     15  C   UNL     1       2.459   1.531   0.251  0.00  0.00    +0.023 A 
ATOM     16  C   UNL     1       3.029   1.086   1.437  0.00  0.00    +0.030 A 
ATOM     17  C   UNL     1       2.387   1.325   2.645  0.00  0.00    +0.023 A 
ATOM     18  C   UNL     1       1.184   2.004   2.664  0.00  0.00    +0.002 A 
ENDBRANCH   1  16
BRANCH   8  19
ATOM     19  N   UNL     1       5.845  -4.667   1.201  0.00  0.00    -0.351 N 
ATOM     20  H   UNL     1       4.992  -4.209   1.141  0.00  0.00    +0.143 HD
ATOM     21  H   UNL     1       5.875  -5.636   1.208  0.00  0.00    +0.143 HD
ENDBRANCH   8  19
BRANCH   9  22
ATOM     22  O   UNL     1       8.356  -5.913   1.166  0.00  0.00    -0.434 OA
BRANCH  22  23
ATOM     23  C   UNL     1       9.588  -6.472   1.047  0.00  0.00    +0.156 A 
ATOM     24  C   UNL     1      10.106  -6.748  -0.198  0.00  0.00    +0.049 A 
ATOM     25  C   UNL     1      11.368  -7.320  -0.335  0.00  0.00    +0.019 A 
ATOM     26  C   UNL     1      12.123  -7.622   0.759  0.00  0.00    +0.027 A 
ATOM     27  C   UNL     1      11.628  -7.355   2.046  0.00  0.00    +0.018 A 
ATOM     28  C   UNL     1      10.348  -6.768   2.198  0.00  0.00    +0.114 A 
ATOM     29  N   UNL     1       9.876  -6.508   3.421  0.00  0.00    -0.251 NA
ATOM     30  C   UNL     1      10.576  -6.782   4.494  0.00  0.00    +0.111 A 
ATOM     31  C   UNL     1      11.844  -7.354   4.415  0.00  0.00    +0.020 A 
ATOM     32  C   UNL     1      12.381  -7.656   3.196  0.00  0.00    +0.013 A 
ATOM     33 BR   UNL     1      13.833  -8.400   0.544  0.00  0.00    -0.050 Br
ENDBRANCH  22  23
ENDBRANCH   9  22
TORSDOF 4
