REMARK  Name = ZINC18321908
REMARK  4 active torsions:
REMARK  status: ('A' for Active; 'I' for Inactive)
REMARK    1  A    between atoms: C_4  and  O_10
REMARK    2  A    between atoms: C_5  and  N_7
REMARK    3  A    between atoms: O_10  and  C_11
REMARK    4  A    between atoms: C_11  and  C_12
REMARK                            x       y       z     vdW  Elec       q    Type
REMARK                         _______ _______ _______ _____ _____    ______ ____
ROOT
ATOM      1  C   UNL     1      -0.592   1.494   1.367  0.00  0.00    +0.169 A 
ATOM      2  N   UNL     1      -1.551   0.755   1.896  0.00  0.00    -0.214 NA
ATOM      3  C   UNL     1      -2.330   1.201   2.868  0.00  0.00    +0.128 A 
ATOM      4  C   UNL     1      -2.132   2.520   3.364  0.00  0.00    +0.051 A 
ATOM      5  C   UNL     1      -2.862   3.221   4.421  0.00  0.00    -0.025 A 
ATOM      6  C   UNL     1      -2.471   4.481   4.702  0.00  0.00    -0.004 A 
ATOM      7  S   UNL     1      -1.126   4.806   3.594  0.00  0.00    -0.073 S 
ATOM      8  C   UNL     1      -1.091   3.246   2.751  0.00  0.00    +0.114 A 
ATOM      9  N   UNL     1      -0.357   2.721   1.789  0.00  0.00    -0.221 NA
ATOM     10  C   UNL     1      -3.051   5.403   5.731  0.00  0.00    +0.043 C 
ATOM     11  C   UNL     1      -4.409   4.841   6.175  0.00  0.00    +0.005 C 
ATOM     12  C   UNL     1      -4.246   3.349   6.481  0.00  0.00    +0.005 C 
ATOM     13  C   UNL     1      -4.016   2.575   5.182  0.00  0.00    +0.037 C 
ATOM     14  N   UNL     1      -3.323   0.396   3.395  0.00  0.00    -0.343 N 
ATOM     15  H   UNL     1      -3.313  -0.559   3.227  0.00  0.00    +0.144 HD
ATOM     16  H   UNL     1      -4.029   0.786   3.933  0.00  0.00    +0.144 HD
ENDROOT
BRANCH   1  17
ATOM     17  C   UNL     1       0.257   0.920   0.262  0.00  0.00    +0.305 C 
BRANCH  17  18
ATOM     18  O   UNL     1      -0.344   1.213  -1.001  0.00  0.00    -0.482 OA
BRANCH  18  22
ATOM     19  C   UNL     1       1.611  -0.154  -4.367  0.00  0.00    +0.002 A 
ATOM     20  C   UNL     1       2.138  -0.404  -3.113  0.00  0.00    +0.004 A 
ATOM     21  C   UNL     1       1.488   0.057  -1.985  0.00  0.00    +0.048 A 
ATOM     22  C   UNL     1       0.300   0.762  -2.110  0.00  0.00    +0.151 A 
ATOM     23  C   UNL     1      -0.228   1.011  -3.369  0.00  0.00    +0.168 A 
ATOM     24  C   UNL     1       0.429   0.552  -4.494  0.00  0.00    +0.036 A 
BRANCH  23  25
ATOM     25  N   UNL     1      -1.492   1.767  -3.506  0.00  0.00    +0.060 N 
ATOM     26  O   UNL     1      -1.955   1.986  -4.611  0.00  0.00    -0.126 OA
ATOM     27  O   UNL     1      -2.070   2.172  -2.513  0.00  0.00    -0.126 OA
ENDBRANCH  23  25
ENDBRANCH  18  22
ENDBRANCH  17  18
ENDBRANCH   1  17
TORSDOF 4
