REMARK  Name = ZINC39325310
REMARK  10 active torsions:
REMARK  status: ('A' for Active; 'I' for Inactive)
REMARK    1  A    between atoms: C_1  and  O_2
REMARK    2  A    between atoms: O_2  and  C_3
REMARK    3  A    between atoms: C_6  and  C_9
REMARK    4  A    between atoms: C_9  and  N_10
REMARK    5  A    between atoms: N_10  and  C_11
REMARK    6  A    between atoms: N_10  and  S_28
REMARK    7  A    between atoms: C_11  and  C_12
REMARK    8  A    between atoms: S_28  and  C_31
REMARK    9  A    between atoms: C_34  and  O_37
REMARK   10  A    between atoms: O_37  and  C_38
REMARK                            x       y       z     vdW  Elec       q    Type
REMARK                         _______ _______ _______ _____ _____    ______ ____
ROOT
ATOM      1  N   UNL     1       4.128  -2.779  -4.130  0.00  0.00    -0.171 NA
ENDROOT
BRANCH   1   2
ATOM      2  S   UNL     1       5.087  -1.450  -4.370  0.00  0.00    +0.061 S 
ATOM      3  O   UNL     1       6.430  -1.883  -4.208  0.00  0.00    -0.153 OA
ATOM      4  O   UNL     1       4.626  -0.826  -5.561  0.00  0.00    -0.153 OA
BRANCH   2   5
ATOM      5  C   UNL     1       4.758  -0.326  -3.053  0.00  0.00    +0.106 A 
ATOM      6  C   UNL     1       3.823   0.679  -3.220  0.00  0.00    +0.032 A 
ATOM      7  C   UNL     1       3.564   1.562  -2.190  0.00  0.00    +0.047 A 
ATOM      8  C   UNL     1       4.242   1.438  -0.986  0.00  0.00    +0.120 A 
ATOM      9  C   UNL     1       5.179   0.429  -0.820  0.00  0.00    +0.047 A 
ATOM     10  C   UNL     1       5.431  -0.454  -1.852  0.00  0.00    +0.032 A 
BRANCH   8  11
ATOM     11  O   UNL     1       3.989   2.305   0.030  0.00  0.00    -0.495 OA
ATOM     12  C   UNL     1       4.724   2.119   1.241  0.00  0.00    +0.277 C 
ENDBRANCH   8  11
ENDBRANCH   2   5
ENDBRANCH   1   2
BRANCH   1  13
ATOM     13  C   UNL     1       2.769  -2.810  -4.677  0.00  0.00    +0.144 C 
BRANCH  13  17
ATOM     14  C   UNL     1      -0.025  -1.791  -1.609  0.00  0.00    +0.120 A 
ATOM     15  C   UNL     1       0.432  -0.817  -2.484  0.00  0.00    +0.046 A 
ATOM     16  C   UNL     1       1.336  -1.148  -3.474  0.00  0.00    +0.008 A 
ATOM     17  C   UNL     1       1.784  -2.451  -3.595  0.00  0.00    -0.031 A 
ATOM     18  C   UNL     1       1.329  -3.424  -2.725  0.00  0.00    +0.008 A 
ATOM     19  C   UNL     1       0.431  -3.096  -1.728  0.00  0.00    +0.046 A 
BRANCH  14  21
ATOM     20  C   UNL     1      -1.339  -0.105  -0.570  0.00  0.00    +0.277 C 
ATOM     21  O   UNL     1      -0.914  -1.468  -0.633  0.00  0.00    -0.495 OA
ENDBRANCH  14  21
ENDBRANCH  13  17
ENDBRANCH   1  13
BRANCH   1  22
ATOM     22  C   UNL     1       4.639  -3.923  -3.372  0.00  0.00    +0.126 C 
BRANCH  22  23
ATOM     23  C   UNL     1       4.751  -5.138  -4.295  0.00  0.00    +0.114 C 
ATOM     24  C   UNL     1       4.948  -6.365  -3.427  0.00  0.00    -0.003 C 
ATOM     25  C   UNL     1       6.066  -7.109  -3.640  0.00  0.00    -0.003 A 
ATOM     26  C   UNL     1       6.332  -8.308  -2.844  0.00  0.00    +0.059 A 
ATOM     27  C   UNL     1       7.459  -9.031  -3.082  0.00  0.00    +0.163 A 
ATOM     28  C   UNL     1       8.373  -8.646  -4.083  0.00  0.00    +0.164 A 
ATOM     29  C   UNL     1       8.170  -7.523  -4.859  0.00  0.00    +0.073 A 
ATOM     30  C   UNL     1       7.037  -6.720  -4.681  0.00  0.00    +0.044 A 
ATOM     31  N   UNL     1       6.860  -5.638  -5.442  0.00  0.00    -0.284 N 
ATOM     32  C   UNL     1       5.814  -4.839  -5.327  0.00  0.00    +0.225 C 
ATOM     33  O   UNL     1       5.708  -3.866  -6.050  0.00  0.00    -0.275 OA
ATOM     34  O   UNL     1       9.490  -9.389  -4.312  0.00  0.00    -0.485 OA
ATOM     35  C   UNL     1       9.884 -10.299  -3.281  0.00  0.00    +0.270 C 
ATOM     36  C   UNL     1       8.644 -11.079  -2.826  0.00  0.00    +0.270 C 
ATOM     37  O   UNL     1       7.687 -10.142  -2.324  0.00  0.00    -0.485 OA
ATOM     38  H   UNL     1       7.531  -5.428  -6.111  0.00  0.00    +0.155 HD
ENDBRANCH  22  23
ENDBRANCH   1  22
TORSDOF 8
