REMARK  Name = ZINC22608230
REMARK  4 active torsions:
REMARK  status: ('A' for Active; 'I' for Inactive)
REMARK    1  A    between atoms: C_1  and  C_2
REMARK    2  A    between atoms: C_7  and  C_8
REMARK    3  A    between atoms: C_13  and  C_18
REMARK    4  A    between atoms: C_23  and  C_25
REMARK                            x       y       z     vdW  Elec       q    Type
REMARK                         _______ _______ _______ _____ _____    ______ ____
ROOT
ATOM      1  C   UNL     1       2.255  -0.449  -0.683  0.00  0.00    +0.176 C 
ATOM      2  C   UNL     1       1.023  -1.307  -0.502  0.00  0.00    +0.041 C 
ATOM      3  C   UNL     1      -0.179  -0.780  -0.185  0.00  0.00    +0.020 C 
ATOM      4  C   UNL     1      -1.392  -1.663  -0.009  0.00  0.00    +0.055 C 
ATOM      5  C   UNL     1      -1.274  -2.886  -0.921  0.00  0.00    -0.001 C 
ATOM      6  C   UNL     1       0.012  -3.635  -0.558  0.00  0.00    +0.083 C 
ATOM      7  C   UNL     1       1.177  -2.693  -0.683  0.00  0.00    +0.163 C 
ATOM      8  O   UNL     1       2.276  -3.139  -0.947  0.00  0.00    -0.292 OA
ATOM      9  C   UNL     1      -2.482  -3.802  -0.712  0.00  0.00    +0.008 C 
ATOM     10  N   UNL     1      -0.352   0.572  -0.002  0.00  0.00    -0.287 N 
ATOM     11  C   UNL     1       0.779   1.357   0.153  0.00  0.00    +0.219 A 
ATOM     12  N   UNL     1       2.013   0.889  -0.158  0.00  0.00    -0.221 N 
ATOM     13  N   UNL     1       2.909   1.919   0.123  0.00  0.00    -0.153 NA
ATOM     14  C   UNL     1       2.200   2.927   0.568  0.00  0.00    +0.150 A 
ATOM     15  N   UNL     1       0.908   2.582   0.583  0.00  0.00    -0.198 NA
ATOM     16  C   UNL     1       2.752   4.263   0.995  0.00  0.00    +0.090 C 
ATOM     17  H   UNL     1      -1.365   0.999   0.017  0.00  0.00    +0.155 HD
ENDROOT
BRANCH   1  24
ATOM     18  C   UNL     1       4.900  -1.151  -1.610  0.00  0.00    +0.044 C 
ATOM     19  C   UNL     1       3.854  -0.691  -2.593  0.00  0.00    -0.045 A 
ATOM     20  C   UNL     1       4.159  -0.610  -3.939  0.00  0.00    +0.004 A 
ATOM     21  C   UNL     1       3.201  -0.184  -4.840  0.00  0.00    +0.000 A 
ATOM     22  C   UNL     1       1.937   0.157  -4.395  0.00  0.00    +0.000 A 
ATOM     23  C   UNL     1       1.631   0.072  -3.050  0.00  0.00    +0.006 A 
ATOM     24  C   UNL     1       2.589  -0.355  -2.149  0.00  0.00    -0.016 A 
ENDBRANCH   1  24
TORSDOF 1
