REMARK  Name = ZINC55030186
REMARK  8 active torsions:
REMARK  status: ('A' for Active; 'I' for Inactive)
REMARK    1  A    between atoms: C_1  and  C_2
REMARK    2  A    between atoms: C_2  and  C_3
REMARK    3  A    between atoms: C_2  and  C_4
REMARK    4  A    between atoms: C_4  and  N_5
REMARK    5  A    between atoms: N_5  and  C_6
REMARK    6  A    between atoms: C_6  and  C_7
REMARK    7  A    between atoms: C_7  and  C_9
REMARK    8  A    between atoms: C_7  and  O_21
REMARK                            x       y       z     vdW  Elec       q    Type
REMARK                         _______ _______ _______ _____ _____    ______ ____
ROOT
ATOM      1  C   UNL     1      -4.191  -4.551  -0.229  0.00  0.00    -0.016 A 
ATOM      2  C   UNL     1      -4.756  -4.986   0.957  0.00  0.00    +0.055 A 
ATOM      3  C   UNL     1      -6.056  -5.464   0.963  0.00  0.00    +0.163 A 
ATOM      4  C   UNL     1      -6.787  -5.506  -0.216  0.00  0.00    +0.176 A 
ATOM      5  C   UNL     1      -6.218  -5.070  -1.401  0.00  0.00    +0.063 A 
ATOM      6  C   UNL     1      -4.920  -4.588  -1.402  0.00  0.00    +0.025 A 
ATOM      7 BR   UNL     1      -7.212  -5.128  -3.009  0.00  0.00    -0.046 Br
ATOM      8  O   UNL     1      -8.067  -5.979  -0.199  0.00  0.00    -0.487 OA
ATOM      9  C   UNL     1      -8.214  -7.375   0.066  0.00  0.00    +0.232 C 
ATOM     10  C   UNL     1      -8.213  -7.644   1.563  0.00  0.00    +0.082 C 
ATOM     11  C   UNL     1      -6.882  -7.298   2.212  0.00  0.00    +0.232 C 
ATOM     12  O   UNL     1      -6.625  -5.895   2.126  0.00  0.00    -0.488 OA
ENDROOT
BRANCH   1  13
ATOM     13  C   UNL     1      -2.777  -4.029  -0.239  0.00  0.00    +0.128 C 
BRANCH  13  14
ATOM     14  O   UNL     1      -2.145  -4.392  -1.469  0.00  0.00    -0.389 OA
ATOM     15  H   UNL     1      -2.584  -4.042  -2.255  0.00  0.00    +0.210 HD
ENDBRANCH  13  14
BRANCH  13  16
ATOM     16  C   UNL     1      -2.795  -2.505  -0.105  0.00  0.00    -0.046 C 
BRANCH  16  17
ATOM     17  N   UNL     1      -1.416  -1.997  -0.116  0.00  0.00    +0.381 N 
ATOM     18  H   UNL     1      -0.970  -2.253  -0.984  0.00  0.00    -0.086 HD
ATOM     19  H   UNL     1      -0.905  -2.397   0.656  0.00  0.00    -0.086 HD
BRANCH  17  20
ATOM     20  C   UNL     1      -1.433  -0.534   0.013  0.00  0.00    -0.080 C 
BRANCH  20  22
ATOM     21  C   UNL     1      -0.019   1.526   0.010  0.00  0.00    +0.005 C 
ATOM     22  C   UNL     1       0.002  -0.004   0.002  0.00  0.00    -0.034 C 
ATOM     23  C   UNL     1       0.742  -0.511   1.242  0.00  0.00    +0.005 C 
ENDBRANCH  20  22
ENDBRANCH  17  20
ENDBRANCH  16  17
ENDBRANCH  13  16
ENDBRANCH   1  13
TORSDOF 6
