REMARK  Name = ZINC36311819
REMARK  8 active torsions:
REMARK  status: ('A' for Active; 'I' for Inactive)
REMARK    1  A    between atoms: C_1  and  C_2
REMARK    2  A    between atoms: C_2  and  C_3
REMARK    3  A    between atoms: C_2  and  C_4
REMARK    4  A    between atoms: C_7  and  N_10
REMARK    5  A    between atoms: C_11  and  C_13
REMARK    6  A    between atoms: C_13  and  C_15
REMARK    7  A    between atoms: C_13  and  N_20
REMARK    8  A    between atoms: C_26  and  C_28
REMARK                            x       y       z     vdW  Elec       q    Type
REMARK                         _______ _______ _______ _____ _____    ______ ____
ROOT
ATOM      1  C   UNL     1      -5.623  -3.333  -0.898  0.00  0.00    +0.023 C 
ENDROOT
BRANCH   1   2
ATOM      2  N   UNL     1      -6.468  -3.890  -1.963  0.00  0.00    +0.390 N 
ATOM      3  C   UNL     1      -6.220  -5.332  -2.078  0.00  0.00    -0.058 C 
ATOM      4  C   UNL     1      -7.182  -5.934  -3.108  0.00  0.00    +0.089 C 
ATOM      5  N   UNL     1      -7.040  -5.191  -4.369  0.00  0.00    -0.305 N 
ATOM      6  C   UNL     1      -7.112  -3.723  -4.320  0.00  0.00    +0.089 C 
ATOM      7  C   UNL     1      -6.154  -3.225  -3.234  0.00  0.00    -0.058 C 
ATOM      8  C   UNL     1      -6.849  -5.837  -5.536  0.00  0.00    +0.219 C 
ATOM      9  O   UNL     1      -6.971  -7.043  -5.590  0.00  0.00    -0.275 OA
ATOM     10  H   UNL     1      -7.439  -3.735  -1.735  0.00  0.00    -0.081 HD
BRANCH   8  11
ATOM     11  C   UNL     1      -6.482  -5.062  -6.776  0.00  0.00    +0.075 C 
ATOM     12  C   UNL     1      -7.716  -4.321  -7.297  0.00  0.00    +0.013 C 
ATOM     13  C   UNL     1      -7.344  -3.534  -8.555  0.00  0.00    +0.001 C 
ATOM     14  C   UNL     1      -6.836  -4.498  -9.629  0.00  0.00    +0.000 C 
ATOM     15  C   UNL     1      -5.603  -5.239  -9.107  0.00  0.00    +0.001 C 
ATOM     16  C   UNL     1      -5.975  -6.026  -7.849  0.00  0.00    +0.013 C 
ENDBRANCH   8  11
ENDBRANCH   1   2
BRANCH   1  17
ATOM     17  C   UNL     1      -5.857  -4.110   0.398  0.00  0.00    -0.016 C 
ATOM     18  C   UNL     1      -7.351  -4.065   0.779  0.00  0.00    +0.002 C 
ATOM     19  C   UNL     1      -7.346  -3.959   2.325  0.00  0.00    +0.000 C 
ATOM     20  C   UNL     1      -6.141  -3.025   2.599  0.00  0.00    +0.000 C 
ATOM     21  C   UNL     1      -5.088  -3.449   1.556  0.00  0.00    +0.002 C 
ENDBRANCH   1  17
BRANCH   1  23
ATOM     22  N   UNL     1      -3.255  -2.636  -0.734  0.00  0.00    -0.287 N 
ATOM     23  C   UNL     1      -4.174  -3.445  -1.297  0.00  0.00    +0.204 C 
ATOM     24  O   UNL     1      -3.835  -4.264  -2.125  0.00  0.00    -0.277 OA
ATOM     25  H   UNL     1      -3.523  -1.996  -0.056  0.00  0.00    +0.155 HD
BRANCH  22  29
ATOM     26  C   UNL     1       0.737  -2.886  -1.900  0.00  0.00    -0.045 A 
ATOM     27  C   UNL     1       0.217  -1.678  -1.473  0.00  0.00    +0.006 A 
ATOM     28  C   UNL     1      -1.106  -1.592  -1.086  0.00  0.00    +0.023 A 
ATOM     29  C   UNL     1      -1.914  -2.720  -1.126  0.00  0.00    +0.033 A 
ATOM     30  C   UNL     1      -1.390  -3.932  -1.556  0.00  0.00    +0.023 A 
ATOM     31  C   UNL     1      -0.067  -4.010  -1.947  0.00  0.00    +0.006 A 
BRANCH  26  33
ATOM     32  C   UNL     1       2.430  -2.025  -3.494  0.00  0.00    +0.012 C 
ATOM     33  C   UNL     1       2.180  -2.976  -2.322  0.00  0.00    +0.013 C 
ATOM     34  C   UNL     1       3.080  -2.586  -1.148  0.00  0.00    +0.012 C 
ENDBRANCH  26  33
ENDBRANCH  22  29
ENDBRANCH   1  23
TORSDOF 6
