REMARK  Name = ZINC12682549
REMARK  2 active torsions:
REMARK  status: ('A' for Active; 'I' for Inactive)
REMARK    1  A    between atoms: C_3  and  N_20
REMARK    2  A    between atoms: N_7  and  C_8
REMARK                            x       y       z     vdW  Elec       q    Type
REMARK                         _______ _______ _______ _____ _____    ______ ____
ROOT
ATOM      1  C   UNL     1       0.680  -5.344   1.076  0.00  0.00    +0.022 A 
ATOM      2  C   UNL     1       0.176  -5.483  -0.210  0.00  0.00    +0.038 A 
ATOM      3  C   UNL     1      -0.188  -4.343  -0.903  0.00  0.00    +0.166 A 
ATOM      4  C   UNL     1      -0.038  -3.103  -0.292  0.00  0.00    +0.150 A 
ATOM      5  N   UNL     1       0.452  -3.011   0.935  0.00  0.00    -0.238 NA
ATOM      6  C   UNL     1       0.803  -4.082   1.621  0.00  0.00    +0.113 A 
ATOM      7  N   UNL     1      -0.399  -1.949  -0.977  0.00  0.00    -0.320 N 
ATOM      8  H   UNL     1      -0.886  -2.023  -1.961  0.00  0.00    +0.148 HD
ENDROOT
BRANCH   7   9
ATOM      9  C   UNL     1      -0.132  -0.634  -0.390  0.00  0.00    +0.104 C 
ATOM     10  C   UNL     1      -1.181   0.342  -0.892  0.00  0.00    +0.038 C 
ATOM     11  C   UNL     1      -0.951   1.711  -0.236  0.00  0.00    +0.076 C 
ATOM     12  S   UNL     1       0.550   2.416  -0.979  0.00  0.00    -0.125 S 
ATOM     13  C   UNL     1       1.685   1.064  -0.969  0.00  0.00    +0.013 A 
ATOM     14  C   UNL     1       1.274  -0.234  -0.727  0.00  0.00    -0.011 A 
ATOM     15  C   UNL     1       2.218  -1.257  -0.775  0.00  0.00    +0.045 A 
ATOM     16  C   UNL     1       3.545  -0.987  -1.041  0.00  0.00    +0.124 A 
ATOM     17  C   UNL     1       3.955   0.317  -1.266  0.00  0.00    +0.039 A 
ATOM     18  C   UNL     1       3.027   1.336  -1.230  0.00  0.00    +0.018 A 
ATOM     19  F   UNL     1       4.444  -1.994  -1.083  0.00  0.00    -0.205 F 
ENDBRANCH   7   9
BRANCH   3  20
ATOM     20  N   UNL     1      -0.684  -4.434  -2.161  0.00  0.00    +0.060 N 
ATOM     21  O   UNL     1      -1.610  -3.720  -2.503  0.00  0.00    -0.126 OA
ATOM     22  O   UNL     1      -0.204  -5.228  -2.950  0.00  0.00    -0.126 OA
ENDBRANCH   3  20
TORSDOF 2
