REMARK  Name = ZINC32525606
REMARK  8 active torsions:
REMARK  status: ('A' for Active; 'I' for Inactive)
REMARK    1  A    between atoms: C_1  and  C_2
REMARK    2  A    between atoms: C_2  and  O_3
REMARK    3  A    between atoms: O_3  and  C_4
REMARK    4  A    between atoms: C_7  and  N_22
REMARK    5  A    between atoms: C_9  and  S_10
REMARK    6  A    between atoms: S_10  and  N_13
REMARK    7  A    between atoms: N_13  and  C_14
REMARK    8  A    between atoms: C_25  and  C_31
REMARK                            x       y       z     vdW  Elec       q    Type
REMARK                         _______ _______ _______ _____ _____    ______ ____
ROOT
ATOM      1  C   UNL     1       0.155   6.654  -0.273  0.00  0.00    +0.147 A 
ATOM      2  C   UNL     1      -0.746   7.581   0.230  0.00  0.00    +0.049 A 
ATOM      3  C   UNL     1      -0.302   8.822   0.642  0.00  0.00    +0.029 A 
ATOM      4  C   UNL     1       1.046   9.142   0.553  0.00  0.00    +0.061 A 
ATOM      5  C   UNL     1       1.948   8.212   0.053  0.00  0.00    +0.057 A 
ATOM      6  C   UNL     1       1.502   6.973  -0.363  0.00  0.00    +0.154 A 
ENDROOT
BRANCH   4   7
ATOM      7  N   UNL     1       1.497  10.401   0.970  0.00  0.00    -0.143 N 
ATOM      8  C   UNL     1       2.738  10.698   1.385  0.00  0.00    +0.243 C 
ATOM      9  O   UNL     1       3.590   9.837   1.457  0.00  0.00    -0.273 OA
ATOM     10  C   UNL     1       3.047  12.116   1.758  0.00  0.00    +0.097 C 
ATOM     11  C   UNL     1       1.713  12.859   2.034  0.00  0.00    +0.201 C 
ATOM     12  S   UNL     1       0.584  11.803   1.033  0.00  0.00    +0.053 S 
ATOM     13  O   UNL     1       0.504  12.271  -0.306  0.00  0.00    -0.155 OA
ATOM     14  O   UNL     1      -0.583  11.469   1.771  0.00  0.00    -0.155 OA
ATOM     15  C   UNL     1       3.789  12.801   0.608  0.00  0.00    +0.019 C 
ENDBRANCH   4   7
BRANCH   6  16
ATOM     16  S   UNL     1       2.645   5.795  -1.002  0.00  0.00    +0.095 S 
ATOM     17  O   UNL     1       2.398   4.575  -0.316  0.00  0.00    -0.148 OA
ATOM     18  O   UNL     1       3.919   6.424  -1.003  0.00  0.00    -0.148 OA
BRANCH  16  19
ATOM     19  N   UNL     1       2.245   5.535  -2.588  0.00  0.00    -0.098 NA
BRANCH  19  20
ATOM     20  C   UNL     1       2.403   6.559  -3.525  0.00  0.00    +0.077 A 
ATOM     21  C   UNL     1       1.954   7.841  -3.236  0.00  0.00    +0.046 A 
ATOM     22  C   UNL     1       2.111   8.853  -4.165  0.00  0.00    +0.044 A 
ATOM     23  C   UNL     1       2.719   8.590  -5.380  0.00  0.00    +0.040 A 
ATOM     24  C   UNL     1       3.161   7.312  -5.673  0.00  0.00    +0.044 A 
ATOM     25  C   UNL     1       3.007   6.296  -4.748  0.00  0.00    +0.046 A 
ATOM     26 CL   UNL     1       3.917   6.985  -7.202  0.00  0.00    -0.083 Cl
ATOM     27 CL   UNL     1       1.551  10.456  -3.804  0.00  0.00    -0.083 Cl
ENDBRANCH  19  20
ENDBRANCH  16  19
ENDBRANCH   6  16
BRANCH   1  28
ATOM     28  O   UNL     1      -0.282   5.432  -0.678  0.00  0.00    -0.490 OA
BRANCH  28  30
ATOM     29  C   UNL     1      -1.936   3.678  -0.855  0.00  0.00    +0.048 C 
ATOM     30  C   UNL     1      -1.660   5.128  -0.450  0.00  0.00    +0.226 C 
ENDBRANCH  28  30
ENDBRANCH   1  28
TORSDOF 6
