REMARK  Name = ZINC21228989
REMARK  12 active torsions:
REMARK  status: ('A' for Active; 'I' for Inactive)
REMARK    1  A    between atoms: C_1  and  C_2
REMARK    2  A    between atoms: C_2  and  C_3
REMARK    3  A    between atoms: C_2  and  O_4
REMARK    4  A    between atoms: O_4  and  C_5
REMARK    5  A    between atoms: C_6  and  C_13
REMARK    6  A    between atoms: C_10  and  O_11
REMARK    7  A    between atoms: O_11  and  C_12
REMARK    8  A    between atoms: C_18  and  C_23
REMARK    9  A    between atoms: C_25  and  O_31
REMARK   10  A    between atoms: C_28  and  O_29
REMARK   11  A    between atoms: O_29  and  C_30
REMARK   12  A    between atoms: O_31  and  C_32
REMARK                            x       y       z     vdW  Elec       q    Type
REMARK                         _______ _______ _______ _____ _____    ______ ____
ROOT
ATOM      1  C   UNL     1      -7.939  -0.107  -1.080  0.00  0.00    +0.140 C 
ATOM      2  C   UNL     1      -7.628  -1.137  -2.141  0.00  0.00    +0.037 C 
ATOM      3  C   UNL     1      -6.707  -2.110  -2.049  0.00  0.00    +0.017 C 
ATOM      4  C   UNL     1      -6.525  -3.105  -3.183  0.00  0.00    +0.060 C 
ATOM      5  C   UNL     1      -6.797  -2.421  -4.522  0.00  0.00    +0.036 C 
ATOM      6  C   UNL     1      -8.241  -1.907  -4.497  0.00  0.00    +0.088 C 
ATOM      7  C   UNL     1      -8.409  -1.004  -3.313  0.00  0.00    +0.163 C 
ATOM      8  O   UNL     1      -9.248  -0.126  -3.361  0.00  0.00    -0.292 OA
ATOM      9  N   UNL     1      -5.892  -2.310  -0.982  0.00  0.00    -0.316 N 
ATOM     10  C   UNL     1      -6.311  -2.322   0.343  0.00  0.00    +0.052 A 
ATOM     11  C   UNL     1      -6.237  -3.456   1.133  0.00  0.00    +0.025 A 
ATOM     12  C   UNL     1      -6.630  -3.387   2.459  0.00  0.00    +0.002 A 
ATOM     13  C   UNL     1      -7.088  -2.195   2.989  0.00  0.00    +0.002 A 
ATOM     14  C   UNL     1      -7.178  -1.064   2.197  0.00  0.00    +0.025 A 
ATOM     15  C   UNL     1      -6.806  -1.135   0.864  0.00  0.00    +0.049 A 
ATOM     16  N   UNL     1      -6.980  -0.054   0.002  0.00  0.00    -0.331 N 
ATOM     17  H   UNL     1      -4.816  -2.480  -1.136  0.00  0.00    +0.152 HD
ATOM     18  H   UNL     1      -6.373   0.850   0.155  0.00  0.00    +0.147 HD
ENDROOT
BRANCH   1  20
ATOM     19  C   UNL     1      -9.969   0.548   0.235  0.00  0.00    +0.168 A 
ATOM     20  C   UNL     1      -9.297  -0.413  -0.502  0.00  0.00    +0.023 A 
ATOM     21  C   UNL     1      -9.869  -1.656  -0.702  0.00  0.00    +0.009 A 
ATOM     22  C   UNL     1     -11.115  -1.940  -0.173  0.00  0.00    +0.004 A 
ATOM     23  C   UNL     1     -11.793  -0.983   0.559  0.00  0.00    +0.049 A 
ATOM     24  C   UNL     1     -11.224   0.265   0.764  0.00  0.00    +0.162 A 
BRANCH  24  25
ATOM     25  O   UNL     1     -11.889   1.207   1.484  0.00  0.00    -0.491 OA
ATOM     26  C   UNL     1     -13.171   0.843   2.001  0.00  0.00    +0.277 C 
ENDBRANCH  24  25
BRANCH  19  27
ATOM     27  O   UNL     1      -9.404   1.769   0.438  0.00  0.00    -0.485 OA
BRANCH  27  29
ATOM     28  C   UNL     1     -10.784   3.730   0.133  0.00  0.00    +0.051 C 
ATOM     29  C   UNL     1      -9.740   2.801  -0.491  0.00  0.00    +0.168 C 
ATOM     30  C   UNL     1      -8.485   3.605  -0.837  0.00  0.00    +0.051 C 
ENDBRANCH  27  29
ENDBRANCH  19  27
ENDBRANCH   1  20
BRANCH   5  31
ATOM     31  C   UNL     1      -6.626  -3.411  -5.645  0.00  0.00    +0.002 A 
ATOM     32  C   UNL     1      -7.390  -4.562  -5.674  0.00  0.00    +0.053 A 
ATOM     33  C   UNL     1      -7.229  -5.476  -6.705  0.00  0.00    +0.121 A 
ATOM     34  C   UNL     1      -6.304  -5.231  -7.710  0.00  0.00    +0.049 A 
ATOM     35  C   UNL     1      -5.545  -4.078  -7.684  0.00  0.00    +0.049 A 
ATOM     36  C   UNL     1      -5.706  -3.164  -6.653  0.00  0.00    +0.124 A 
BRANCH  36  37
ATOM     37  O   UNL     1      -4.958  -2.029  -6.627  0.00  0.00    -0.495 OA
ATOM     38  C   UNL     1      -4.026  -1.842  -7.694  0.00  0.00    +0.277 C 
ENDBRANCH  36  37
BRANCH  33  39
ATOM     39  O   UNL     1      -7.977  -6.611  -6.731  0.00  0.00    -0.495 OA
ATOM     40  C   UNL     1      -7.758  -7.507  -7.822  0.00  0.00    +0.277 C 
ENDBRANCH  33  39
ENDBRANCH   5  31
TORSDOF 7
