REMARK  Name = ZINC01343015
REMARK  4 active torsions:
REMARK  status: ('A' for Active; 'I' for Inactive)
REMARK    1  A    between atoms: C_1  and  C_2
REMARK    2  A    between atoms: C_4  and  C_28
REMARK    3  A    between atoms: C_8  and  N_27
REMARK    4  A    between atoms: C_9  and  C_15
REMARK                            x       y       z     vdW  Elec       q    Type
REMARK                         _______ _______ _______ _____ _____    ______ ____
ROOT
ATOM      1  C   UNL     1      -0.213   1.495   0.002  0.00  0.00    +0.044 C 
ATOM      2  C   UNL     1       0.129   0.030   0.089  0.00  0.00    -0.048 A 
ATOM      3  C   UNL     1       0.992  -0.531  -0.852  0.00  0.00    +0.007 A 
ATOM      4  C   UNL     1       1.321  -1.849  -0.800  0.00  0.00    -0.041 A 
ATOM      5  C   UNL     1       0.785  -2.664   0.216  0.00  0.00    +0.002 A 
ATOM      6  C   UNL     1       1.107  -4.023   0.292  0.00  0.00    +0.022 A 
ATOM      7  C   UNL     1       0.548  -4.798   1.324  0.00  0.00    +0.028 A 
ATOM      8  C   UNL     1       0.743  -6.217   1.593  0.00  0.00    +0.053 A 
ATOM      9  C   UNL     1       0.092  -6.774   2.669  0.00  0.00    +0.097 A 
ATOM     10  S   UNL     1      -0.813  -5.407   3.365  0.00  0.00    -0.064 S 
ATOM     11  C   UNL     1      -0.319  -4.130   2.232  0.00  0.00    +0.088 A 
ATOM     12  N   UNL     1      -0.607  -2.856   2.142  0.00  0.00    -0.349 N 
ATOM     13  C   UNL     1      -0.093  -2.092   1.173  0.00  0.00    +0.048 A 
ATOM     14  C   UNL     1      -0.404  -0.724   1.089  0.00  0.00    +0.029 A 
ATOM     15  C   UNL     1       2.255  -2.436  -1.827  0.00  0.00    +0.044 C 
ATOM     16  H   UNL     1      -1.207  -2.458   2.792  0.00  0.00    +0.166 HD
ENDROOT
BRANCH   9  17
ATOM     17  C   UNL     1       0.131  -8.118   3.117  0.00  0.00    +0.255 C 
ATOM     18  O   UNL     1       0.064  -9.030   2.313  0.00  0.00    -0.269 OA
ATOM     19  N   UNL     1       0.243  -8.386   4.433  0.00  0.00    -0.292 N 
ATOM     20  C   UNL     1       0.384  -9.767   4.924  0.00  0.00    +0.113 C 
ATOM     21  C   UNL     1       1.756  -9.893   5.584  0.00  0.00    +0.054 C 
ATOM     22  C   UNL     1       2.006  -8.745   6.526  0.00  0.00    -0.041 A 
ATOM     23  C   UNL     1       2.978  -8.913   7.504  0.00  0.00    +0.004 A 
ATOM     24  C   UNL     1       3.262  -7.898   8.393  0.00  0.00    +0.000 A 
ATOM     25  C   UNL     1       2.577  -6.699   8.310  0.00  0.00    +0.000 A 
ATOM     26  C   UNL     1       1.609  -6.531   7.342  0.00  0.00    +0.005 A 
ATOM     27  C   UNL     1       1.317  -7.555   6.451  0.00  0.00    -0.027 A 
ATOM     28  C   UNL     1       0.236  -7.314   5.434  0.00  0.00    +0.143 C 
ENDBRANCH   9  17
BRANCH   8  29
ATOM     29  N   UNL     1       1.565  -6.987   0.784  0.00  0.00    -0.356 N 
ATOM     30  H   UNL     1       2.019  -6.582   0.029  0.00  0.00    +0.142 HD
ATOM     31  H   UNL     1       1.687  -7.930   0.974  0.00  0.00    +0.142 HD
ENDBRANCH   8  29
TORSDOF 2
