REMARK  Name = ZINC67176915
REMARK  6 active torsions:
REMARK  status: ('A' for Active; 'I' for Inactive)
REMARK    1  A    between atoms: C_1  and  C_2
REMARK    2  A    between atoms: C_7  and  C_8
REMARK    3  A    between atoms: N_10  and  C_11
REMARK    4  A    between atoms: C_11  and  C_12
REMARK    5  A    between atoms: C_12  and  C_13
REMARK    6  A    between atoms: C_13  and  C_14
REMARK                            x       y       z     vdW  Elec       q    Type
REMARK                         _______ _______ _______ _____ _____    ______ ____
ROOT
ATOM      1  C   UNL     1       0.032  -0.391   2.496  0.00  0.00    +0.261 C 
ATOM      2  O   UNL     1       0.019   0.795   2.765  0.00  0.00    -0.269 OA
ATOM      3  N   UNL     1       0.055  -1.306   3.486  0.00  0.00    -0.310 N 
ATOM      4  H   UNL     1       0.065  -2.252   3.271  0.00  0.00    +0.149 HD
ENDROOT
BRANCH   1  11
ATOM      5  C   UNL     1      -0.018   1.503   0.010  0.00  0.00    +0.047 C 
ATOM      6  C   UNL     1       0.002  -0.004   0.002  0.00  0.00    -0.010 A 
ATOM      7  C   UNL     1       0.008  -0.834  -1.125  0.00  0.00    +0.042 A 
ATOM      8  C   UNL     1       0.026  -2.155  -0.678  0.00  0.00    +0.027 A 
ATOM      9  N   UNL     1       0.034  -2.137   0.655  0.00  0.00    -0.354 N 
ATOM     10  H   UNL     1       0.048  -2.920   1.227  0.00  0.00    +0.166 HD
ATOM     11  C   UNL     1       0.024  -0.827   1.094  0.00  0.00    +0.106 A 
ATOM     12  C   UNL     1       0.031  -3.337  -1.615  0.00  0.00    +0.054 C 
ATOM     13  C   UNL     1      -0.488  -2.895  -2.987  0.00  0.00    +0.014 C 
ATOM     14  C   UNL     1       0.287  -1.674  -3.491  0.00  0.00    +0.080 C 
ATOM     15  C   UNL     1       0.002  -0.505  -2.559  0.00  0.00    +0.165 C 
ATOM     16  O   UNL     1      -0.215   0.616  -2.969  0.00  0.00    -0.292 OA
ENDBRANCH   1  11
BRANCH   3  17
ATOM     17  C   UNL     1       0.063  -0.872   4.885  0.00  0.00    +0.105 C 
BRANCH  17  18
ATOM     18  C   UNL     1       0.088  -2.098   5.799  0.00  0.00    +0.026 C 
BRANCH  18  19
ATOM     19  C   UNL     1       0.097  -1.644   7.261  0.00  0.00    +0.078 C 
BRANCH  19  20
ATOM     20  C   UNL     1       0.122  -2.852   8.161  0.00  0.00    +0.134 A 
ATOM     21  N   UNL     1      -0.916  -3.492   8.631  0.00  0.00    -0.134 NA
ATOM     22  N   UNL     1      -0.525  -4.479   9.360  0.00  0.00    -0.134 NA
ATOM     23  C   UNL     1       0.777  -4.514   9.383  0.00  0.00    +0.133 A 
ATOM     24  N   UNL     1       1.223  -3.481   8.630  0.00  0.00    -0.315 N 
ATOM     25  C   UNL     1       2.619  -3.115   8.393  0.00  0.00    +0.125 C 
ATOM     26  C   UNL     1       3.496  -4.367   8.486  0.00  0.00    +0.022 C 
ATOM     27  C   UNL     1       3.954  -4.569   9.930  0.00  0.00    +0.002 C 
ATOM     28  C   UNL     1       2.753  -4.774  10.848  0.00  0.00    +0.008 C 
ATOM     29  C   UNL     1       1.649  -5.514  10.097  0.00  0.00    +0.076 C 
ENDBRANCH  19  20
ENDBRANCH  18  19
ENDBRANCH  17  18
ENDBRANCH   3  17
TORSDOF 5
