REMARK  Name = ZINC21078977
REMARK  13 active torsions:
REMARK  status: ('A' for Active; 'I' for Inactive)
REMARK    1  A    between atoms: C_1  and  C_2
REMARK    2  A    between atoms: C_2  and  N_3
REMARK    3  A    between atoms: N_3  and  C_4
REMARK    4  A    between atoms: N_3  and  S_6
REMARK    5  A    between atoms: C_4  and  C_5
REMARK    6  A    between atoms: S_6  and  C_9
REMARK    7  A    between atoms: C_12  and  N_15
REMARK    8  A    between atoms: C_16  and  C_18
REMARK    9  A    between atoms: C_18  and  S_19
REMARK   10  A    between atoms: S_19  and  C_20
REMARK   11  A    between atoms: N_25  and  N_26
REMARK   12  A    between atoms: C_27  and  C_28
REMARK   13  A    between atoms: C_29  and  C_30
REMARK                            x       y       z     vdW  Elec       q    Type
REMARK                         _______ _______ _______ _____ _____    ______ ____
ROOT
ATOM      1  C   UNL     1      -0.664   4.024   0.034  0.00  0.00    +0.173 C 
ENDROOT
BRANCH   1   3
ATOM      2  N   UNL     1      -1.376   6.393   0.044  0.00  0.00    -0.285 N 
ATOM      3  C   UNL     1      -1.728   5.092   0.036  0.00  0.00    +0.227 C 
ATOM      4  O   UNL     1      -2.900   4.780   0.032  0.00  0.00    -0.275 OA
ATOM      5  H   UNL     1      -0.316   6.676   0.124  0.00  0.00    +0.155 HD
BRANCH   2   9
ATOM      6  C   UNL     1      -4.304   9.343  -0.240  0.00  0.00    +0.106 A 
ATOM      7  C   UNL     1      -4.568   8.174   0.449  0.00  0.00    +0.030 A 
ATOM      8  C   UNL     1      -3.599   7.194   0.545  0.00  0.00    +0.025 A 
ATOM      9  C   UNL     1      -2.360   7.384  -0.052  0.00  0.00    +0.034 A 
ATOM     10  C   UNL     1      -2.096   8.562  -0.738  0.00  0.00    +0.025 A 
ATOM     11  C   UNL     1      -3.071   9.536  -0.836  0.00  0.00    +0.030 A 
BRANCH   6  12
ATOM     12  S   UNL     1      -5.543  10.591  -0.360  0.00  0.00    +0.061 S 
ATOM     13  O   UNL     1      -5.238  11.355  -1.519  0.00  0.00    -0.153 OA
ATOM     14  O   UNL     1      -6.793   9.940  -0.185  0.00  0.00    -0.153 OA
BRANCH  12  15
ATOM     15  N   UNL     1      -5.348  11.601   0.938  0.00  0.00    -0.177 NA
BRANCH  15  17
ATOM     16  C   UNL     1      -5.299  13.999   0.463  0.00  0.00    +0.022 C 
ATOM     17  C   UNL     1      -4.469  12.768   0.832  0.00  0.00    +0.106 C 
ENDBRANCH  15  17
BRANCH  15  18
ATOM     18  C   UNL     1      -6.054  11.326   2.191  0.00  0.00    +0.106 C 
ATOM     19  C   UNL     1      -5.138  10.539   3.131  0.00  0.00    +0.022 C 
ENDBRANCH  15  18
ENDBRANCH  12  15
ENDBRANCH   6  12
ENDBRANCH   2   9
ENDBRANCH   1   3
BRANCH   1  20
ATOM     20  S   UNL     1      -1.448   2.393   0.024  0.00  0.00    -0.075 S 
BRANCH  20  21
ATOM     21  C   UNL     1      -0.016   1.366   0.023  0.00  0.00    +0.211 A 
ATOM     22  N   UNL     1       0.003  -0.004   0.016  0.00  0.00    -0.186 NA
ATOM     23  C   UNL     1       1.329  -0.355   0.012  0.00  0.00    +0.232 A 
ATOM     24  N   UNL     1       2.022   0.756   0.016  0.00  0.00    -0.245 N 
ATOM     25  N   UNL     1       1.231   1.769   0.022  0.00  0.00    -0.144 NA
ATOM     26  N   UNL     1       1.839  -1.644   0.005  0.00  0.00    -0.205 N 
ATOM     27  H   UNL     1       1.156  -2.506   0.002  0.00  0.00    +0.177 HD
ATOM     28  H   UNL     1       3.122   0.719   0.013  0.00  0.00    +0.192 HD
BRANCH  26  29
ATOM     29  N   UNL     1       3.225  -1.849   0.001  0.00  0.00    -0.188 NA
ATOM     30  C   UNL     1       3.705  -3.061  -0.006  0.00  0.00    +0.130 C 
BRANCH  30  31
ATOM     31  C   UNL     1       5.107  -3.268  -0.010  0.00  0.00    +0.022 C 
ATOM     32  C   UNL     1       5.604  -4.523  -0.017  0.00  0.00    +0.009 C 
BRANCH  32  33
ATOM     33  C   UNL     1       7.059  -4.738  -0.021  0.00  0.00    -0.025 A 
ATOM     34  C   UNL     1       7.931  -3.644  -0.024  0.00  0.00    +0.008 A 
ATOM     35  C   UNL     1       9.294  -3.854  -0.021  0.00  0.00    +0.001 A 
ATOM     36  C   UNL     1       9.800  -5.142  -0.029  0.00  0.00    +0.000 A 
ATOM     37  C   UNL     1       8.943  -6.229  -0.032  0.00  0.00    +0.001 A 
ATOM     38  C   UNL     1       7.578  -6.036  -0.028  0.00  0.00    +0.008 A 
ENDBRANCH  32  33
ENDBRANCH  30  31
ENDBRANCH  26  29
ENDBRANCH  20  21
ENDBRANCH   1  20
TORSDOF 11
