REMARK  Name = ZINC30004718
REMARK  8 active torsions:
REMARK  status: ('A' for Active; 'I' for Inactive)
REMARK    1  A    between atoms: C_1  and  C_2
REMARK    2  A    between atoms: C_2  and  C_4
REMARK    3  A    between atoms: C_2  and  N_14
REMARK    4  A    between atoms: C_7  and  S_10
REMARK    5  A    between atoms: S_10  and  C_13
REMARK    6  A    between atoms: N_14  and  C_15
REMARK    7  A    between atoms: N_14  and  C_16
REMARK    8  A    between atoms: C_16  and  C_17
REMARK                            x       y       z     vdW  Elec       q    Type
REMARK                         _______ _______ _______ _____ _____    ______ ____
ROOT
ATOM      1  C   UNL     1       1.549   2.849   4.971  0.00  0.00    +0.116 A 
ATOM      2  N   UNL     1       2.451   2.566   4.048  0.00  0.00    -0.219 NA
ATOM      3  C   UNL     1       2.127   2.378   2.779  0.00  0.00    +0.128 A 
ATOM      4  C   UNL     1       0.762   2.483   2.392  0.00  0.00    +0.051 A 
ATOM      5  C   UNL     1       0.174   2.312   1.056  0.00  0.00    -0.025 A 
ATOM      6  C   UNL     1      -1.158   2.482   0.956  0.00  0.00    -0.004 A 
ATOM      7  S   UNL     1      -1.708   2.845   2.603  0.00  0.00    -0.073 S 
ATOM      8  C   UNL     1      -0.140   2.790   3.428  0.00  0.00    +0.114 A 
ATOM      9  N   UNL     1       0.269   2.961   4.671  0.00  0.00    -0.227 NA
ATOM     10  C   UNL     1      -2.002   2.389  -0.277  0.00  0.00    +0.043 C 
ATOM     11  C   UNL     1      -1.664   1.095  -1.028  0.00  0.00    +0.005 C 
ATOM     12  C   UNL     1      -0.533   1.391  -2.008  0.00  0.00    +0.001 C 
ATOM     13  C   UNL     1       0.394   2.458  -1.428  0.00  0.00    +0.005 C 
ATOM     14  C   UNL     1       1.046   1.957  -0.145  0.00  0.00    +0.037 C 
ATOM     15  N   UNL     1       3.101   2.082   1.843  0.00  0.00    -0.343 N 
ATOM     16  H   UNL     1       2.823   1.927   0.790  0.00  0.00    +0.144 HD
ATOM     17  H   UNL     1       4.154   2.001   2.151  0.00  0.00    +0.144 HD
ENDROOT
BRANCH   1  18
ATOM     18  C   UNL     1       1.992   3.050   6.397  0.00  0.00    -0.001 C 
BRANCH  18  19
ATOM     19  N   UNL     1       1.960   1.764   7.105  0.00  0.00    +0.387 N 
ATOM     20  C   UNL     1       2.959   0.837   6.557  0.00  0.00    -0.095 C 
ATOM     21  H   UNL     1       0.966   1.319   6.953  0.00  0.00    -0.081 HD
BRANCH  19  23
ATOM     22  C   UNL     1       2.176   0.590   9.244  0.00  0.00    -0.008 C 
ATOM     23  C   UNL     1       2.154   1.953   8.549  0.00  0.00    -0.041 C 
BRANCH  23  24
ATOM     24  C   UNL     1       1.024   2.782   9.104  0.00  0.00    -0.061 A 
ATOM     25  C   UNL     1      -0.280   2.504   8.739  0.00  0.00    +0.004 A 
ATOM     26  C   UNL     1      -1.317   3.261   9.251  0.00  0.00    +0.027 A 
ATOM     27  C   UNL     1      -1.049   4.302  10.120  0.00  0.00    +0.088 A 
ATOM     28  C   UNL     1       0.256   4.583  10.481  0.00  0.00    +0.027 A 
ATOM     29  C   UNL     1       1.292   3.823   9.973  0.00  0.00    +0.004 A 
BRANCH  27  30
ATOM     30  S   UNL     1      -2.370   5.272  10.767  0.00  0.00    -0.006 S 
ATOM     31  O   UNL     1      -3.501   4.412  10.734  0.00  0.00    -0.170 OA
ATOM     32  O   UNL     1      -1.879   5.776  12.002  0.00  0.00    -0.170 OA
ATOM     33  C   UNL     1      -2.580   6.626   9.579  0.00  0.00    +0.200 C 
ENDBRANCH  27  30
ENDBRANCH  23  24
ENDBRANCH  19  23
ENDBRANCH  18  19
ENDBRANCH   1  18
TORSDOF 5
