REMARK  Name = ZINC04939195
REMARK  5 active torsions:
REMARK  status: ('A' for Active; 'I' for Inactive)
REMARK    1  A    between atoms: C_1  and  C_2
REMARK    2  A    between atoms: C_2  and  C_3
REMARK    3  A    between atoms: C_3  and  C_5
REMARK    4  A    between atoms: C_3  and  C_11
REMARK    5  A    between atoms: C_14  and  C_19
REMARK                            x       y       z     vdW  Elec       q    Type
REMARK                         _______ _______ _______ _____ _____    ______ ____
ROOT
ATOM      1  C   UNL     1      -0.015   1.295   0.009  0.00  0.00    +0.110 A 
ATOM      2  N   UNL     1       0.002  -0.004   0.002  0.00  0.00    -0.160 NA
ATOM      3  N   UNL     1       1.196  -0.712  -0.013  0.00  0.00    -0.185 N 
ATOM      4  C   UNL     1       1.654  -2.023  -0.024  0.00  0.00    +0.192 A 
ATOM      5  N   UNL     1       2.968  -1.988  -0.036  0.00  0.00    -0.126 NA
ATOM      6  N   UNL     1       3.374  -0.766  -0.034  0.00  0.00    -0.120 NA
ATOM      7  C   UNL     1       2.350   0.034  -0.020  0.00  0.00    +0.218 A 
ATOM      8  S   UNL     1       1.725   1.696  -0.005  0.00  0.00    -0.031 S 
ENDROOT
BRANCH   4   9
ATOM      9  C   UNL     1       0.817  -3.235  -0.022  0.00  0.00    +0.058 A 
ATOM     10  C   UNL     1       1.170  -4.529  -0.308  0.00  0.00    +0.019 A 
ATOM     11  C   UNL     1       0.203  -5.508  -0.239  0.00  0.00    +0.008 A 
ATOM     12  C   UNL     1      -1.063  -5.164   0.108  0.00  0.00    +0.046 A 
ATOM     13  S   UNL     1      -0.918  -3.403   0.360  0.00  0.00    -0.093 S 
ENDBRANCH   4   9
BRANCH   1  14
ATOM     14  C   UNL     1      -1.201   2.226   0.020  0.00  0.00    +0.076 C 
BRANCH  14  15
ATOM     15  C   UNL     1      -1.151   3.088   1.255  0.00  0.00    -0.038 A 
ATOM     16  C   UNL     1      -0.068   3.917   1.476  0.00  0.00    +0.004 A 
ATOM     17  C   UNL     1      -0.024   4.712   2.606  0.00  0.00    +0.000 A 
ATOM     18  C   UNL     1      -1.060   4.670   3.521  0.00  0.00    +0.000 A 
ATOM     19  C   UNL     1      -2.141   3.836   3.303  0.00  0.00    +0.000 A 
ATOM     20  C   UNL     1      -2.187   3.045   2.170  0.00  0.00    +0.004 A 
ENDBRANCH  14  15
BRANCH  14  22
ATOM     21  C   UNL     1      -1.339   2.250  -2.474  0.00  0.00    +0.005 C 
ATOM     22  C   UNL     1      -1.163   3.115  -1.224  0.00  0.00    +0.011 C 
ENDBRANCH  14  22
ENDBRANCH   1  14
TORSDOF 4
