REMARK  Name = ZINC12594414
REMARK  15 active torsions:
REMARK  status: ('A' for Active; 'I' for Inactive)
REMARK    1  A    between atoms: C_1  and  N_65
REMARK    2  A    between atoms: C_2  and  C_3
REMARK    3  A    between atoms: C_2  and  N_65
REMARK    4  A    between atoms: C_9  and  C_10
REMARK    5  A    between atoms: C_9  and  N_65
REMARK    6  A    between atoms: C_10  and  C_12
REMARK    7  A    between atoms: C_10  and  O_30
REMARK    8  A    between atoms: C_12  and  O_13
REMARK    9  A    between atoms: O_13  and  C_14
REMARK   10  A    between atoms: C_16  and  C_22
REMARK   11  A    between atoms: C_19  and  O_20
REMARK   12  A    between atoms: O_20  and  C_21
REMARK   13  A    between atoms: C_22  and  N_67
REMARK   14  A    between atoms: C_23  and  N_67
REMARK   15  A    between atoms: C_26  and  O_29
REMARK                            x       y       z     vdW  Elec       q    Type
REMARK                         _______ _______ _______ _____ _____    ______ ____
ROOT
ATOM      1  C   UNL     1       1.636   0.870  -6.775  0.00  0.00    +0.162 A 
ATOM      2  C   UNL     1       1.038   1.242  -5.582  0.00  0.00    +0.051 A 
ATOM      3  C   UNL     1       0.561   0.276  -4.716  0.00  0.00    -0.061 A 
ATOM      4  C   UNL     1       0.670  -1.063  -5.043  0.00  0.00    +0.005 A 
ATOM      5  C   UNL     1       1.261  -1.442  -6.234  0.00  0.00    +0.049 A 
ATOM      6  C   UNL     1       1.745  -0.478  -7.104  0.00  0.00    +0.162 A 
ENDROOT
BRANCH   6   7
ATOM      7  O   UNL     1       2.327  -0.849  -8.276  0.00  0.00    -0.491 OA
ATOM      8  C   UNL     1       2.404  -2.250  -8.548  0.00  0.00    +0.277 C 
ENDBRANCH   6   7
BRANCH   1   9
ATOM      9  O   UNL     1       2.110   1.819  -7.626  0.00  0.00    -0.486 OA
BRANCH   9  10
ATOM     10  C   UNL     1       1.963   3.182  -7.223  0.00  0.00    +0.258 C 
BRANCH  10  11
ATOM     11  C   UNL     1       2.551   4.098  -8.299  0.00  0.00    +0.135 C 
BRANCH  11  12
ATOM     12  O   UNL     1       3.960   3.881  -8.391  0.00  0.00    -0.390 OA
ATOM     13  H   UNL     1       4.441   4.059  -7.571  0.00  0.00    +0.210 HD
ENDBRANCH  11  12
BRANCH  11  14
ATOM     14  C   UNL     1       2.283   5.558  -7.928  0.00  0.00    -0.044 C 
BRANCH  14  16
ATOM     15  C   UNL     1       2.934   7.808  -8.542  0.00  0.00    -0.096 C 
ATOM     16  N   UNL     1       2.764   6.422  -9.027  0.00  0.00    +0.382 N 
ATOM     17  H   UNL     1       3.671   6.070  -9.355  0.00  0.00    -0.082 HD
BRANCH  16  18
ATOM     18  C   UNL     1       1.802   6.393 -10.149  0.00  0.00    -0.043 C 
BRANCH  18  19
ATOM     19  C   UNL     1       2.415   7.098 -11.332  0.00  0.00    -0.064 A 
ATOM     20  C   UNL     1       2.208   8.452 -11.513  0.00  0.00    +0.002 A 
ATOM     21  C   UNL     1       2.775   9.099 -12.595  0.00  0.00    +0.000 A 
ATOM     22  C   UNL     1       3.539   8.389 -13.502  0.00  0.00    +0.000 A 
ATOM     23  C   UNL     1       3.741   7.034 -13.325  0.00  0.00    +0.000 A 
ATOM     24  C   UNL     1       3.179   6.388 -12.239  0.00  0.00    +0.002 A 
ENDBRANCH  18  19
ENDBRANCH  16  18
ENDBRANCH  14  16
ENDBRANCH  11  14
ENDBRANCH  10  11
ENDBRANCH   9  10
ENDBRANCH   1   9
BRANCH   3  25
ATOM     25  C   UNL     1      -0.084   0.682  -3.417  0.00  0.00    -0.046 C 
BRANCH  25  26
ATOM     26  N   UNL     1       0.950   0.759  -2.367  0.00  0.00    +0.384 N 
ATOM     27  H   UNL     1       1.657   1.453  -2.638  0.00  0.00    -0.085 HD
ATOM     28  H   UNL     1       1.395  -0.160  -2.263  0.00  0.00    -0.085 HD
BRANCH  26  29
ATOM     29  C   UNL     1       0.346   1.156  -1.081  0.00  0.00    -0.071 C 
ATOM     30  C   UNL     1       1.223   0.647   0.064  0.00  0.00    -0.013 C 
ATOM     31  C   UNL     1       0.605   1.058   1.402  0.00  0.00    +0.030 C 
ATOM     32  C   UNL     1       0.509   2.584   1.472  0.00  0.00    +0.114 C 
ATOM     33  C   UNL     1      -0.368   3.093   0.326  0.00  0.00    +0.030 C 
ATOM     34  C   UNL     1       0.250   2.682  -1.011  0.00  0.00    -0.013 C 
BRANCH  32  35
ATOM     35  O   UNL     1       1.817   3.149   1.358  0.00  0.00    -0.392 OA
ATOM     36  H   UNL     1       2.428   2.869   2.053  0.00  0.00    +0.210 HD
ENDBRANCH  32  35
ENDBRANCH  26  29
ENDBRANCH  25  26
ENDBRANCH   3  25
TORSDOF 13
