REMARK  Name = ZINC63110753
REMARK  7 active torsions:
REMARK  status: ('A' for Active; 'I' for Inactive)
REMARK    1  A    between atoms: C_1  and  C_2
REMARK    2  A    between atoms: C_4  and  C_12
REMARK    3  A    between atoms: C_12  and  C_13
REMARK    4  A    between atoms: C_13  and  N_14
REMARK    5  A    between atoms: N_14  and  C_15
REMARK    6  A    between atoms: C_17  and  C_32
REMARK    7  A    between atoms: N_19  and  C_22
REMARK                            x       y       z     vdW  Elec       q    Type
REMARK                         _______ _______ _______ _____ _____    ______ ____
ROOT
ATOM      1  C   UNL     1       1.752  -1.249  -5.967  0.00  0.00    +0.082 C 
ATOM      2  C   UNL     1       1.406  -1.028  -7.290  0.00  0.00    +0.084 C 
ATOM      3  C   UNL     1       0.265  -0.253  -7.800  0.00  0.00    +0.175 C 
ATOM      4  N   UNL     1       0.309  -0.298  -9.095  0.00  0.00    -0.170 NA
ATOM      5  N   UNL     1       1.397  -1.049  -9.541  0.00  0.00    -0.158 N 
ATOM      6  C   UNL     1       2.102  -1.511  -8.489  0.00  0.00    +0.272 C 
ATOM      7  O   UNL     1       3.112  -2.195  -8.525  0.00  0.00    -0.268 OA
ENDROOT
BRANCH   5   8
ATOM      8  C   UNL     1       1.729  -1.293 -10.946  0.00  0.00    +0.249 C 
ATOM      9  N   UNL     1       1.897  -0.030 -11.678  0.00  0.00    -0.315 N 
ATOM     10  C   UNL     1       1.023   0.224 -12.733  0.00  0.00    +0.043 A 
ATOM     11  C   UNL     1       1.030   1.374 -13.543  0.00  0.00    +0.024 A 
ATOM     12  C   UNL     1       0.122   1.532 -14.564  0.00  0.00    +0.002 A 
ATOM     13  C   UNL     1      -0.830   0.565 -14.830  0.00  0.00    +0.001 A 
ATOM     14  C   UNL     1      -0.861  -0.578 -14.048  0.00  0.00    +0.016 A 
ATOM     15  C   UNL     1       0.048  -0.735 -13.026  0.00  0.00    +0.032 A 
ATOM     16  S   UNL     1       0.307  -2.037 -11.841  0.00  0.00    -0.080 S 
ATOM     17  H   UNL     1       2.590   0.604 -11.434  0.00  0.00    +0.149 HD
ENDBRANCH   5   8
BRANCH   3  18
ATOM     18  C   UNL     1      -0.768   0.463  -6.968  0.00  0.00    +0.436 C 
ATOM     19  F   UNL     1      -1.694   1.087  -7.811  0.00  0.00    -0.164 F 
ATOM     20  F   UNL     1      -1.429  -0.459  -6.150  0.00  0.00    -0.164 F 
ATOM     21  F   UNL     1      -0.139   1.426  -6.172  0.00  0.00    -0.164 F 
ENDBRANCH   3  18
BRANCH   1  22
ATOM     22  N   UNL     1       0.998  -0.729  -4.977  0.00  0.00    -0.349 N 
ATOM     23  H   UNL     1       0.214  -0.200  -5.192  0.00  0.00    +0.146 HD
BRANCH  22  24
ATOM     24  C   UNL     1       1.364  -0.963  -3.578  0.00  0.00    +0.105 C 
BRANCH  24  25
ATOM     25  C   UNL     1       0.353  -0.268  -2.664  0.00  0.00    +0.052 C 
BRANCH  25  28
ATOM     26  C   UNL     1      -0.019   1.526   0.010  0.00  0.00    +0.035 C 
ATOM     27  C   UNL     1       0.002  -0.004   0.002  0.00  0.00    +0.103 C 
ATOM     28  C   UNL     1       0.729  -0.509  -1.224  0.00  0.00    -0.037 C 
ATOM     29  C   UNL     1       1.785  -1.220  -0.768  0.00  0.00    -0.001 A 
ATOM     30  C   UNL     1       2.858  -1.954  -1.449  0.00  0.00    +0.010 A 
ATOM     31  C   UNL     1       3.797  -2.583  -0.705  0.00  0.00    +0.001 A 
ATOM     32  C   UNL     1       3.770  -2.551   0.696  0.00  0.00    +0.002 A 
ATOM     33  C   UNL     1       2.817  -1.897   1.393  0.00  0.00    +0.026 A 
ATOM     34  C   UNL     1       1.780  -1.201   0.712  0.00  0.00    +0.043 A 
ATOM     35  N   UNL     1       0.758  -0.506   1.155  0.00  0.00    -0.378 N 
ATOM     36  H   UNL     1       0.540  -0.349   2.087  0.00  0.00    +0.160 HD
ENDBRANCH  25  28
ENDBRANCH  24  25
ENDBRANCH  22  24
ENDBRANCH   1  22
TORSDOF 6
