REMARK  Name = ZINC43219006
REMARK  7 active torsions:
REMARK  status: ('A' for Active; 'I' for Inactive)
REMARK    1  A    between atoms: C_1  and  O_2
REMARK    2  A    between atoms: O_2  and  C_3
REMARK    3  A    between atoms: C_5  and  C_10
REMARK    4  A    between atoms: C_8  and  O_9
REMARK    5  A    between atoms: N_18  and  C_21
REMARK    6  A    between atoms: C_27  and  C_29
REMARK    7  A    between atoms: C_27  and  C_35
REMARK                            x       y       z     vdW  Elec       q    Type
REMARK                         _______ _______ _______ _____ _____    ______ ____
ROOT
ATOM      1  C   UNL     1       2.403   0.379  -4.230  0.00  0.00    -0.026 C 
ATOM      2  C   UNL     1       3.920   0.430  -4.079  0.00  0.00    +0.077 C 
ATOM      3  C   UNL     1       4.246   0.906  -5.546  0.00  0.00    +0.090 C 
ATOM      4  C   UNL     1       5.599   1.389  -5.410  0.00  0.00    +0.225 C 
ATOM      5  O   UNL     1       6.487   1.342  -6.234  0.00  0.00    -0.275 OA
ATOM      6  N   UNL     1       5.663   1.913  -4.142  0.00  0.00    -0.239 N 
ATOM      7  C   UNL     1       4.586   1.558  -3.356  0.00  0.00    +0.225 C 
ATOM      8  O   UNL     1       4.242   2.054  -2.305  0.00  0.00    -0.275 OA
ATOM      9  C   UNL     1       3.454  -0.002  -6.384  0.00  0.00    +0.074 C 
ATOM     10  N   UNL     1       2.212  -0.273  -5.567  0.00  0.00    +0.398 N 
ATOM     11  H   UNL     1       2.101  -1.269  -5.449  0.00  0.00    -0.083 HD
ATOM     12  H   UNL     1       1.399   0.112  -6.023  0.00  0.00    -0.083 HD
ENDROOT
BRANCH   1  15
ATOM     13  C   UNL     1       0.606  -0.608  -1.056  0.00  0.00    +0.161 A 
ATOM     14  C   UNL     1       1.173   0.159  -2.062  0.00  0.00    +0.051 A 
ATOM     15  C   UNL     1       1.787  -0.456  -3.137  0.00  0.00    -0.057 A 
ATOM     16  C   UNL     1       1.837  -1.836  -3.212  0.00  0.00    +0.006 A 
ATOM     17  C   UNL     1       1.273  -2.606  -2.212  0.00  0.00    +0.049 A 
ATOM     18  C   UNL     1       0.662  -1.996  -1.129  0.00  0.00    +0.158 A 
BRANCH  13  20
ATOM     19  C   UNL     1      -0.017   1.425   0.010  0.00  0.00    +0.277 C 
ATOM     20  O   UNL     1       0.002  -0.004   0.002  0.00  0.00    -0.491 OA
ENDBRANCH  13  20
BRANCH  18  21
ATOM     21  O   UNL     1       0.112  -2.753  -0.142  0.00  0.00    -0.503 OA
ATOM     22  H   UNL     1      -0.816  -2.979  -0.291  0.00  0.00    +0.292 HD
ENDBRANCH  18  21
ENDBRANCH   1  15
BRANCH   6  23
ATOM     23  C   UNL     1       6.766   2.750  -3.665  0.00  0.00    +0.084 C 
ATOM     24  C   UNL     1       7.435   2.078  -2.465  0.00  0.00    +0.023 C 
ATOM     25  C   UNL     1       8.587   2.953  -1.967  0.00  0.00    +0.002 C 
ATOM     26  C   UNL     1       8.045   4.321  -1.548  0.00  0.00    +0.000 C 
ATOM     27  C   UNL     1       7.376   4.994  -2.749  0.00  0.00    +0.002 C 
ATOM     28  C   UNL     1       6.224   4.118  -3.247  0.00  0.00    +0.023 C 
ENDBRANCH   6  23
BRANCH   9  29
ATOM     29  C   UNL     1       3.076   0.673  -7.678  0.00  0.00    -0.047 A 
ATOM     30  C   UNL     1       3.907   1.631  -8.226  0.00  0.00    +0.003 A 
ATOM     31  C   UNL     1       3.560   2.250  -9.413  0.00  0.00    +0.000 A 
ATOM     32  C   UNL     1       2.382   1.910 -10.050  0.00  0.00    +0.000 A 
ATOM     33  C   UNL     1       1.550   0.952  -9.502  0.00  0.00    +0.000 A 
ATOM     34  C   UNL     1       1.899   0.330  -8.318  0.00  0.00    +0.003 A 
ENDBRANCH   9  29
BRANCH   9  35
ATOM     35  C   UNL     1       4.221  -1.270  -6.657  0.00  0.00    +0.350 C 
ATOM     36  O   UNL     1       3.768  -2.345  -6.303  0.00  0.00    -0.248 OA
ATOM     37  O   UNL     1       5.296  -1.221  -7.231  0.00  0.00    -0.248 OA
ENDBRANCH   9  35
TORSDOF 6
