REMARK  Name = ZINC09870204
REMARK  12 active torsions:
REMARK  status: ('A' for Active; 'I' for Inactive)
REMARK    1  A    between atoms: C_1  and  C_2
REMARK    2  A    between atoms: C_2  and  C_3
REMARK    3  A    between atoms: C_4  and  C_31
REMARK    4  A    between atoms: C_6  and  N_13
REMARK    5  A    between atoms: C_7  and  C_8
REMARK    6  A    between atoms: C_8  and  O_10
REMARK    7  A    between atoms: O_10  and  C_11
REMARK    8  A    between atoms: C_11  and  C_12
REMARK    9  A    between atoms: C_14  and  C_16
REMARK   10  A    between atoms: C_16  and  C_17
REMARK   11  A    between atoms: C_24  and  C_30
REMARK   12  A    between atoms: C_25  and  C_29
REMARK                            x       y       z     vdW  Elec       q    Type
REMARK                         _______ _______ _______ _____ _____    ______ ____
ROOT
ATOM      1  N   UNL     1       3.640  -0.182   3.761  0.00  0.00    -0.279 N 
ATOM      2  C   UNL     1       3.661   0.192   2.466  0.00  0.00    +0.220 C 
ATOM      3  O   UNL     1       3.798  -0.642   1.597  0.00  0.00    -0.275 OA
ATOM      4  H   UNL     1       3.531   0.485   4.457  0.00  0.00    +0.155 HD
ENDROOT
BRANCH   1   8
ATOM      5  C   UNL     1       3.940  -3.528   5.425  0.00  0.00    -0.022 A 
ATOM      6  C   UNL     1       4.072  -4.181   4.257  0.00  0.00    -0.008 A 
ATOM      7  S   UNL     1       3.982  -2.879   3.046  0.00  0.00    -0.078 S 
ATOM      8  C   UNL     1       3.776  -1.519   4.099  0.00  0.00    +0.086 A 
ATOM      9  C   UNL     1       3.786  -2.094   5.365  0.00  0.00    +0.091 A 
ATOM     10  C   UNL     1       4.251  -5.660   4.028  0.00  0.00    +0.052 C 
BRANCH   5  12
ATOM     11  C   UNL     1       5.397  -4.347   7.257  0.00  0.00    +0.009 C 
ATOM     12  C   UNL     1       3.959  -4.262   6.742  0.00  0.00    +0.033 C 
ENDBRANCH   5  12
BRANCH   9  13
ATOM     13  C   UNL     1       3.642  -1.285   6.577  0.00  0.00    +0.342 C 
ATOM     14  O   UNL     1       2.537  -1.067   7.036  0.00  0.00    -0.245 OA
BRANCH  13  15
ATOM     15  O   UNL     1       4.736  -0.782   7.186  0.00  0.00    -0.461 OA
BRANCH  15  16
ATOM     16  C   UNL     1       4.518   0.011   8.383  0.00  0.00    +0.229 C 
ATOM     17  C   UNL     1       5.865   0.492   8.927  0.00  0.00    +0.048 C 
ENDBRANCH  15  16
ENDBRANCH  13  15
ENDBRANCH   9  13
ENDBRANCH   1   8
BRANCH   2  18
ATOM     18  C   UNL     1       3.513   1.646   2.099  0.00  0.00    +0.127 C 
BRANCH  18  19
ATOM     19  C   UNL     1       3.570   1.796   0.578  0.00  0.00    +0.166 C 
ATOM     20  C   UNL     1       3.536   3.259   0.212  0.00  0.00    +0.238 C 
ATOM     21  O   UNL     1       4.575   3.871   0.091  0.00  0.00    -0.273 OA
ATOM     22  N   UNL     1       2.364   3.891   0.018  0.00  0.00    -0.282 N 
ATOM     23  C   UNL     1       1.158   3.182   0.011  0.00  0.00    +0.055 A 
ATOM     24  C   UNL     1      -0.055   3.852   0.021  0.00  0.00    +0.028 A 
ATOM     25  C   UNL     1      -1.238   3.136   0.028  0.00  0.00    -0.046 A 
ATOM     26  C   UNL     1      -1.218   1.754   0.017  0.00  0.00    -0.046 A 
ATOM     27  C   UNL     1      -0.013   1.076   0.008  0.00  0.00    +0.028 A 
ATOM     28  C   UNL     1       1.175   1.786   0.000  0.00  0.00    +0.049 A 
ATOM     29  N   UNL     1       2.410   1.124  -0.026  0.00  0.00    -0.331 N 
ATOM     30  C   UNL     1      -2.514   0.984   0.022  0.00  0.00    +0.044 C 
ATOM     31  C   UNL     1      -2.556   3.867   0.041  0.00  0.00    +0.044 C 
ATOM     32  H   UNL     1       2.355   4.851  -0.120  0.00  0.00    +0.155 HD
ATOM     33  H   UNL     1       2.498   0.247  -0.432  0.00  0.00    +0.147 HD
ENDBRANCH  18  19
ENDBRANCH   2  18
TORSDOF 7
