REMARK  Name = ZINC39601201
REMARK  9 active torsions:
REMARK  status: ('A' for Active; 'I' for Inactive)
REMARK    1  A    between atoms: C_1  and  C_2
REMARK    2  A    between atoms: C_3  and  C_15
REMARK    3  A    between atoms: C_4  and  C_7
REMARK    4  A    between atoms: C_19  and  C_28
REMARK    5  A    between atoms: N_30  and  C_31
REMARK    6  A    between atoms: C_31  and  C_32
REMARK    7  A    between atoms: C_32  and  C_33
REMARK    8  A    between atoms: C_33  and  C_34
REMARK    9  A    between atoms: C_33  and  C_35
REMARK                            x       y       z     vdW  Elec       q    Type
REMARK                         _______ _______ _______ _____ _____    ______ ____
ROOT
ATOM      1  C   UNL     1      -2.585  -0.082   0.860  0.00  0.00    +0.252 C 
ATOM      2  O   UNL     1      -3.416   0.114  -0.007  0.00  0.00    -0.270 OA
ATOM      3  N   UNL     1      -2.895   0.137   2.153  0.00  0.00    -0.296 N 
ATOM      4  C   UNL     1      -2.059  -0.133   3.346  0.00  0.00    +0.121 C 
ATOM      5  C   UNL     1      -2.316   1.069   4.282  0.00  0.00    +0.100 C 
ATOM      6  C   UNL     1      -3.691   1.611   3.857  0.00  0.00    -0.004 C 
ATOM      7  C   UNL     1      -4.149   0.708   2.702  0.00  0.00    +0.115 C 
ATOM      8  C   UNL     1      -4.676   1.524   5.019  0.00  0.00    -0.010 C 
ATOM      9  C   UNL     1      -6.019   2.122   4.589  0.00  0.00    -0.082 C 
ATOM     10  N   UNL     1      -5.828   3.521   4.187  0.00  0.00    +0.379 N 
ATOM     11  C   UNL     1      -4.952   3.588   3.010  0.00  0.00    -0.082 C 
ATOM     12  C   UNL     1      -3.564   3.052   3.373  0.00  0.00    -0.010 C 
ATOM     13  H   UNL     1      -6.722   3.930   3.963  0.00  0.00    -0.086 HD
ATOM     14  H   UNL     1      -5.407   4.034   4.947  0.00  0.00    -0.086 HD
ENDROOT
BRANCH   1  17
ATOM     15  C   UNL     1      -0.214   1.700  -0.125  0.00  0.00    +0.090 C 
ATOM     16  C   UNL     1      -0.195   0.205   0.065  0.00  0.00    +0.147 A 
ATOM     17  C   UNL     1      -1.240  -0.558   0.496  0.00  0.00    +0.106 A 
ATOM     18  C   UNL     1      -0.763  -1.950   0.527  0.00  0.00    +0.128 A 
ATOM     19  N   UNL     1       0.484  -1.934   0.130  0.00  0.00    -0.077 NA
ATOM     20  O   UNL     1       0.846  -0.599  -0.165  0.00  0.00    -0.359 OA
BRANCH  18  21
ATOM     21  C   UNL     1      -1.546  -3.142   0.932  0.00  0.00    +0.041 A 
ATOM     22  C   UNL     1      -2.713  -3.479   0.246  0.00  0.00    +0.052 A 
ATOM     23  C   UNL     1      -3.438  -4.592   0.627  0.00  0.00    +0.021 A 
ATOM     24  C   UNL     1      -3.009  -5.371   1.687  0.00  0.00    +0.003 A 
ATOM     25  C   UNL     1      -1.853  -5.041   2.371  0.00  0.00    +0.021 A 
ATOM     26  C   UNL     1      -1.116  -3.935   1.996  0.00  0.00    +0.052 A 
ATOM     27 CL   UNL     1       0.339  -3.527   2.851  0.00  0.00    -0.083 Cl
ATOM     28 CL   UNL     1      -3.254  -2.502  -1.083  0.00  0.00    -0.083 Cl
ENDBRANCH  18  21
ENDBRANCH   1  17
BRANCH   5  29
ATOM     29  C   UNL     1      -1.253   2.120   4.091  0.00  0.00    +0.218 C 
ATOM     30  O   UNL     1      -0.775   2.306   2.993  0.00  0.00    -0.275 OA
ATOM     31  N   UNL     1      -0.835   2.854   5.142  0.00  0.00    -0.315 N 
ATOM     32  H   UNL     1      -1.218   2.706   6.021  0.00  0.00    +0.149 HD
BRANCH  31  33
ATOM     33  C   UNL     1       0.198   3.876   4.956  0.00  0.00    +0.104 C 
BRANCH  33  34
ATOM     34  C   UNL     1       0.488   4.558   6.295  0.00  0.00    +0.022 C 
BRANCH  34  35
ATOM     35  C   UNL     1       1.567   5.625   6.101  0.00  0.00    -0.016 C 
ATOM     36  C   UNL     1       1.768   6.391   7.410  0.00  0.00    +0.007 C 
ATOM     37  C   UNL     1       2.881   4.954   5.696  0.00  0.00    +0.007 C 
ENDBRANCH  34  35
ENDBRANCH  33  34
ENDBRANCH  31  33
ENDBRANCH   5  29
TORSDOF 6
