REMARK  Name = ZINC59015546
REMARK  8 active torsions:
REMARK  status: ('A' for Active; 'I' for Inactive)
REMARK    1  A    between atoms: C_1  and  C_2
REMARK    2  A    between atoms: C_5  and  C_8
REMARK    3  A    between atoms: C_8  and  N_9
REMARK    4  A    between atoms: C_10  and  C_12
REMARK    5  A    between atoms: C_12  and  S_13
REMARK    6  A    between atoms: S_13  and  C_14
REMARK    7  A    between atoms: N_19  and  N_20
REMARK    8  A    between atoms: C_21  and  C_22
REMARK                            x       y       z     vdW  Elec       q    Type
REMARK                         _______ _______ _______ _____ _____    ______ ____
ROOT
ATOM      1  C   UNL     1       4.876  -8.769  -0.073  0.00  0.00    +0.211 A 
ATOM      2  N   UNL     1       5.382 -10.007  -0.087  0.00  0.00    -0.186 NA
ATOM      3  C   UNL     1       6.697  -9.947  -0.093  0.00  0.00    +0.232 A 
ATOM      4  N   UNL     1       7.056  -8.645  -0.082  0.00  0.00    -0.245 N 
ATOM      5  N   UNL     1       5.862  -7.905  -0.074  0.00  0.00    -0.144 NA
ATOM      6  N   UNL     1       7.560 -11.028  -0.108  0.00  0.00    -0.205 N 
ATOM      7  H   UNL     1       8.519 -10.882  -0.111  0.00  0.00    +0.177 HD
ATOM      8  H   UNL     1       7.959  -8.292  -0.083  0.00  0.00    +0.192 HD
ENDROOT
BRANCH   6   9
ATOM      9  N   UNL     1       7.049 -12.332  -0.119  0.00  0.00    -0.188 NA
ATOM     10  C   UNL     1       7.859 -13.346  -0.134  0.00  0.00    +0.138 C 
BRANCH  10  11
ATOM     11  C   UNL     1       7.322 -14.719  -0.145  0.00  0.00    -0.005 A 
ATOM     12  C   UNL     1       5.941 -14.932  -0.147  0.00  0.00    +0.010 A 
ATOM     13  C   UNL     1       5.445 -16.218  -0.159  0.00  0.00    +0.016 A 
ATOM     14  C   UNL     1       6.311 -17.298  -0.169  0.00  0.00    +0.018 A 
ATOM     15  C   UNL     1       7.681 -17.095  -0.167  0.00  0.00    +0.016 A 
ATOM     16  C   UNL     1       8.191 -15.813  -0.161  0.00  0.00    +0.010 A 
ATOM     17 BR   UNL     1       5.622 -19.059  -0.184  0.00  0.00    -0.050 Br
ENDBRANCH  10  11
ENDBRANCH   6   9
BRANCH   1  18
ATOM     18  S   UNL     1       3.161  -8.365  -0.061  0.00  0.00    -0.075 S 
BRANCH  18  19
ATOM     19  C   UNL     1       3.137  -6.551  -0.051  0.00  0.00    +0.173 C 
BRANCH  19  21
ATOM     20  N   UNL     1       1.447  -4.746  -0.032  0.00  0.00    -0.311 N 
ATOM     21  C   UNL     1       1.710  -6.067  -0.040  0.00  0.00    +0.224 C 
ATOM     22  O   UNL     1       0.799  -6.867  -0.040  0.00  0.00    -0.275 OA
ATOM     23  H   UNL     1       2.176  -4.106  -0.032  0.00  0.00    +0.149 HD
BRANCH  20  24
ATOM     24  C   UNL     1       0.059  -4.275  -0.021  0.00  0.00    +0.139 C 
BRANCH  24  29
ATOM     25  C   UNL     1      -0.018   1.503   0.010  0.00  0.00    +0.044 C 
ATOM     26  C   UNL     1       0.002  -0.004   0.002  0.00  0.00    -0.050 A 
ATOM     27  C   UNL     1       0.006  -0.689  -1.199  0.00  0.00    +0.003 A 
ATOM     28  C   UNL     1       0.025  -2.071  -1.206  0.00  0.00    +0.005 A 
ATOM     29  C   UNL     1       0.040  -2.768  -0.013  0.00  0.00    -0.030 A 
ATOM     30  C   UNL     1       0.037  -2.084   1.188  0.00  0.00    +0.005 A 
ATOM     31  C   UNL     1       0.023  -0.702   1.195  0.00  0.00    +0.003 A 
ENDBRANCH  24  29
ENDBRANCH  20  24
ENDBRANCH  19  21
ENDBRANCH  18  19
ENDBRANCH   1  18
TORSDOF 7
