REMARK  Name = ZINC02746459
REMARK  5 active torsions:
REMARK  status: ('A' for Active; 'I' for Inactive)
REMARK    1  A    between atoms: C_1  and  C_2
REMARK    2  A    between atoms: C_5  and  N_8
REMARK    3  A    between atoms: C_9  and  C_26
REMARK    4  A    between atoms: C_12  and  C_19
REMARK    5  A    between atoms: C_30  and  N_32
REMARK                            x       y       z     vdW  Elec       q    Type
REMARK                         _______ _______ _______ _____ _____    ______ ____
ROOT
ATOM      1  N   UNL     1       0.057  -4.169  -0.021  0.00  0.00    -0.255 N 
ATOM      2  C   UNL     1       0.069  -5.036   1.165  0.00  0.00    +0.146 C 
ATOM      3  C   UNL     1       0.086  -6.448   0.648  0.00  0.00    +0.035 A 
ATOM      4  C   UNL     1       0.104  -7.814   0.949  0.00  0.00    +0.099 A 
ATOM      5  N   UNL     1       0.112  -8.470  -0.195  0.00  0.00    -0.173 NA
ATOM      6  N   UNL     1       0.101  -7.654  -1.188  0.00  0.00    -0.272 N 
ATOM      7  H   UNL     1       0.104  -7.914  -2.123  0.00  0.00    +0.189 HD
ATOM      8  C   UNL     1       0.085  -6.367  -0.732  0.00  0.00    +0.127 A 
ATOM      9  C   UNL     1       0.061  -4.951  -1.115  0.00  0.00    +0.270 C 
ATOM     10  O   UNL     1       0.050  -4.542  -2.261  0.00  0.00    -0.268 OA
ENDROOT
BRANCH   1  15
ATOM     11  C   UNL     1      -0.018   1.503   0.010  0.00  0.00    +0.044 C 
ATOM     12  C   UNL     1       0.002  -0.004   0.002  0.00  0.00    -0.050 A 
ATOM     13  C   UNL     1       0.006  -0.687  -1.200  0.00  0.00    +0.005 A 
ATOM     14  C   UNL     1       0.024  -2.068  -1.211  0.00  0.00    +0.024 A 
ATOM     15  C   UNL     1       0.039  -2.771  -0.013  0.00  0.00    +0.038 A 
ATOM     16  C   UNL     1       0.036  -2.081   1.193  0.00  0.00    +0.024 A 
ATOM     17  C   UNL     1       0.023  -0.700   1.197  0.00  0.00    +0.005 A 
ENDBRANCH   1  15
BRANCH   4  18
ATOM     18  C   UNL     1       0.112  -8.415   2.306  0.00  0.00    +0.003 A 
ATOM     19  C   UNL     1       0.792  -7.783   3.345  0.00  0.00    +0.011 A 
ATOM     20  C   UNL     1       0.796  -8.345   4.606  0.00  0.00    +0.016 A 
ATOM     21  C   UNL     1       0.128  -9.534   4.838  0.00  0.00    +0.018 A 
ATOM     22  C   UNL     1      -0.548 -10.166   3.809  0.00  0.00    +0.016 A 
ATOM     23  C   UNL     1      -0.564  -9.609   2.546  0.00  0.00    +0.011 A 
ATOM     24 BR   UNL     1       0.139 -10.299   6.567  0.00  0.00    -0.050 Br
ENDBRANCH   4  18
BRANCH   2  25
ATOM     25  C   UNL     1      -1.169  -4.800   1.992  0.00  0.00    -0.020 A 
ATOM     26  C   UNL     1      -2.385  -4.585   1.370  0.00  0.00    +0.006 A 
ATOM     27  C   UNL     1      -3.520  -4.369   2.128  0.00  0.00    +0.003 A 
ATOM     28  C   UNL     1      -3.440  -4.368   3.508  0.00  0.00    +0.033 A 
ATOM     29  C   UNL     1      -2.224  -4.583   4.130  0.00  0.00    +0.127 A 
ATOM     30  C   UNL     1      -1.090  -4.804   3.371  0.00  0.00    +0.038 A 
BRANCH  29  31
ATOM     31  N   UNL     1      -2.138  -4.582   5.607  0.00  0.00    +0.056 N 
ATOM     32  O   UNL     1      -3.131  -4.392   6.271  0.00  0.00    -0.126 OA
ATOM     33  O   UNL     1      -1.075  -4.770   6.151  0.00  0.00    -0.126 OA
ENDBRANCH  29  31
ENDBRANCH   2  25
TORSDOF 4
