REMARK  Name = ZINC02347739
REMARK  10 active torsions:
REMARK  status: ('A' for Active; 'I' for Inactive)
REMARK    1  A    between atoms: C_1  and  C_2
REMARK    2  A    between atoms: C_4  and  C_36
REMARK    3  A    between atoms: C_5  and  O_35
REMARK    4  A    between atoms: C_6  and  C_8
REMARK    5  A    between atoms: N_16  and  C_26
REMARK    6  A    between atoms: C_17  and  C_19
REMARK    7  A    between atoms: C_23  and  O_25
REMARK    8  A    between atoms: C_26  and  C_27
REMARK    9  A    between atoms: C_30  and  O_33
REMARK   10  A    between atoms: O_33  and  C_34
REMARK                            x       y       z     vdW  Elec       q    Type
REMARK                         _______ _______ _______ _____ _____    ______ ____
ROOT
ATOM      1  C   UNL     1      -0.229  -3.133   2.806  0.00  0.00    +0.102 A 
ATOM      2  C   UNL     1       0.021  -2.398   3.970  0.00  0.00    +0.035 A 
ATOM      3  C   UNL     1       0.077  -3.324   4.995  0.00  0.00    +0.126 A 
ATOM      4  N   UNL     1      -0.135  -4.543   4.417  0.00  0.00    -0.272 N 
ATOM      5  H   UNL     1      -0.152  -5.389   4.892  0.00  0.00    +0.189 HD
ATOM      6  N   UNL     1      -0.314  -4.403   3.152  0.00  0.00    -0.173 NA
ATOM      7  C   UNL     1       0.338  -2.613   6.252  0.00  0.00    +0.266 C 
ATOM      8  O   UNL     1       0.446  -3.144   7.340  0.00  0.00    -0.268 OA
ATOM      9  N   UNL     1       0.442  -1.290   6.029  0.00  0.00    -0.281 N 
ATOM     10  C   UNL     1       0.253  -1.049   4.593  0.00  0.00    +0.142 C 
ENDROOT
BRANCH   1  16
ATOM     11  C   UNL     1       1.366  -0.107  -0.830  0.00  0.00    +0.044 C 
ATOM     12  C   UNL     1       0.386  -1.130  -0.316  0.00  0.00    -0.049 A 
ATOM     13  C   UNL     1      -0.653  -1.557  -1.124  0.00  0.00    +0.010 A 
ATOM     14  C   UNL     1      -1.556  -2.495  -0.662  0.00  0.00    -0.008 A 
ATOM     15  C   UNL     1      -1.425  -3.013   0.617  0.00  0.00    +0.129 A 
ATOM     16  C   UNL     1      -0.376  -2.584   1.435  0.00  0.00    +0.044 A 
ATOM     17  C   UNL     1       0.532  -1.643   0.957  0.00  0.00    +0.017 A 
ATOM     18  C   UNL     1      -2.685  -2.954  -1.548  0.00  0.00    +0.047 C 
BRANCH  15  19
ATOM     19  O   UNL     1      -2.313  -3.935   1.073  0.00  0.00    -0.506 OA
ATOM     20  H   UNL     1      -2.059  -4.850   0.890  0.00  0.00    +0.292 HD
ENDBRANCH  15  19
ENDBRANCH   1  16
BRANCH  10  21
ATOM     21  C   UNL     1      -0.944  -0.162   4.369  0.00  0.00    -0.019 A 
ATOM     22  C   UNL     1      -2.105  -0.372   5.091  0.00  0.00    +0.006 A 
ATOM     23  C   UNL     1      -3.205   0.441   4.888  0.00  0.00    +0.004 A 
ATOM     24  C   UNL     1      -3.147   1.464   3.962  0.00  0.00    +0.045 A 
ATOM     25  C   UNL     1      -1.985   1.677   3.236  0.00  0.00    +0.117 A 
ATOM     26  C   UNL     1      -0.880   0.864   3.446  0.00  0.00    +0.051 A 
BRANCH  25  27
ATOM     27  O   UNL     1      -1.926   2.683   2.325  0.00  0.00    -0.507 OA
ATOM     28  H   UNL     1      -1.618   3.525   2.688  0.00  0.00    +0.292 HD
ENDBRANCH  25  27
ENDBRANCH  10  21
BRANCH   9  29
ATOM     29  C   UNL     1       0.700  -0.267   7.045  0.00  0.00    +0.144 C 
BRANCH  29  30
ATOM     30  C   UNL     1       2.186  -0.060   7.184  0.00  0.00    -0.030 A 
ATOM     31  C   UNL     1       2.906  -0.818   8.089  0.00  0.00    +0.009 A 
ATOM     32  C   UNL     1       4.269  -0.630   8.219  0.00  0.00    +0.046 A 
ATOM     33  C   UNL     1       4.914   0.319   7.441  0.00  0.00    +0.120 A 
ATOM     34  C   UNL     1       4.189   1.078   6.533  0.00  0.00    +0.046 A 
ATOM     35  C   UNL     1       2.828   0.883   6.403  0.00  0.00    +0.009 A 
BRANCH  33  36
ATOM     36  O   UNL     1       6.254   0.506   7.567  0.00  0.00    -0.495 OA
ATOM     37  C   UNL     1       6.852   1.501   6.733  0.00  0.00    +0.277 C 
ENDBRANCH  33  36
ENDBRANCH  29  30
ENDBRANCH   9  29
TORSDOF 7
