REMARK  Name = ZINC10769437
REMARK  5 active torsions:
REMARK  status: ('A' for Active; 'I' for Inactive)
REMARK    1  A    between atoms: C_7  and  N_13
REMARK    2  A    between atoms: C_8  and  C_10
REMARK    3  A    between atoms: C_14  and  C_16
REMARK    4  A    between atoms: N_21  and  S_23
REMARK    5  A    between atoms: S_23  and  C_26
REMARK                            x       y       z     vdW  Elec       q    Type
REMARK                         _______ _______ _______ _____ _____    ______ ____
ROOT
ATOM      1  N   UNL     1      -0.884   2.500   0.011  0.00  0.00    -0.282 N 
ATOM      2  C   UNL     1      -2.168   2.180   0.266  0.00  0.00    +0.222 C 
ATOM      3  O   UNL     1      -2.459   1.045   0.582  0.00  0.00    -0.275 OA
ATOM      4  H   UNL     1      -0.644   3.418  -0.190  0.00  0.00    +0.155 HD
ENDROOT
BRANCH   1  11
ATOM      5  C   UNL     1       1.502   0.546   3.453  0.00  0.00    +0.001 A 
ATOM      6  C   UNL     1       2.393  -0.407   2.980  0.00  0.00    +0.004 A 
ATOM      7  C   UNL     1       2.488  -0.674   1.632  0.00  0.00    +0.047 A 
ATOM      8  C   UNL     1       1.684   0.015   0.731  0.00  0.00    +0.138 A 
ATOM      9  C   UNL     1       0.783   0.979   1.217  0.00  0.00    +0.042 A 
ATOM     10  C   UNL     1       0.702   1.236   2.586  0.00  0.00    +0.013 A 
ATOM     11  C   UNL     1       0.096   1.515   0.035  0.00  0.00    +0.092 A 
ATOM     12  C   UNL     1       0.623   0.850  -1.038  0.00  0.00    +0.211 A 
ATOM     13  O   UNL     1       1.557  -0.029  -0.610  0.00  0.00    -0.448 OA
BRANCH  12  14
ATOM     14  C   UNL     1       0.237   1.058  -2.432  0.00  0.00    +0.279 C 
ATOM     15  O   UNL     1      -0.664   1.830  -2.705  0.00  0.00    -0.267 OA
ATOM     16  N   UNL     1       0.878   0.396  -3.415  0.00  0.00    -0.323 N 
ATOM     17  H   UNL     1       1.596  -0.219  -3.197  0.00  0.00    +0.145 HD
ATOM     18  H   UNL     1       0.622   0.534  -4.340  0.00  0.00    +0.145 HD
ENDBRANCH  12  14
ENDBRANCH   1  11
BRANCH   2  19
ATOM     19  C   UNL     1      -3.243   3.231   0.160  0.00  0.00    +0.091 C 
ATOM     20  C   UNL     1      -2.943   4.368   1.140  0.00  0.00    +0.015 C 
ATOM     21  C   UNL     1      -4.016   5.451   1.010  0.00  0.00    +0.018 C 
ATOM     22  C   UNL     1      -5.383   4.856   1.363  0.00  0.00    +0.109 C 
ATOM     23  N   UNL     1      -5.615   3.673   0.522  0.00  0.00    -0.175 NA
ATOM     24  C   UNL     1      -4.601   2.610   0.503  0.00  0.00    +0.122 C 
BRANCH  23  25
ATOM     25  S   UNL     1      -6.993   3.541  -0.387  0.00  0.00    +0.067 S 
ATOM     26  O   UNL     1      -7.199   2.153  -0.612  0.00  0.00    -0.152 OA
ATOM     27  O   UNL     1      -7.970   4.365   0.234  0.00  0.00    -0.152 OA
BRANCH  25  28
ATOM     28  C   UNL     1      -6.651   4.261  -1.958  0.00  0.00    +0.144 A 
ATOM     29  C   UNL     1      -6.155   3.676  -3.075  0.00  0.00    +0.038 A 
ATOM     30  C   UNL     1      -5.971   4.444  -4.210  0.00  0.00    +0.030 A 
ATOM     31  C   UNL     1      -6.282   5.764  -4.167  0.00  0.00    +0.080 A 
ATOM     32  S   UNL     1      -6.862   5.952  -2.489  0.00  0.00    -0.057 S 
ATOM     33 CL   UNL     1      -6.150   6.960  -5.419  0.00  0.00    -0.076 Cl
ENDBRANCH  25  28
ENDBRANCH  23  25
ENDBRANCH   2  19
TORSDOF 5
