REMARK  Name = ZINC02851386
REMARK  14 active torsions:
REMARK  status: ('A' for Active; 'I' for Inactive)
REMARK    1  A    between atoms: C_1  and  C_2
REMARK    2  A    between atoms: C_2  and  C_3
REMARK    3  A    between atoms: C_4  and  C_32
REMARK    4  A    between atoms: C_6  and  N_12
REMARK    5  A    between atoms: C_7  and  C_8
REMARK    6  A    between atoms: C_8  and  O_10
REMARK    7  A    between atoms: O_10  and  C_11
REMARK    8  A    between atoms: N_12  and  C_13
REMARK    9  A    between atoms: C_13  and  N_15
REMARK   10  A    between atoms: N_15  and  N_16
REMARK   11  A    between atoms: C_17  and  C_19
REMARK   12  A    between atoms: C_22  and  C_31
REMARK   13  A    between atoms: C_23  and  C_24
REMARK   14  A    between atoms: C_27  and  C_30
REMARK                            x       y       z     vdW  Elec       q    Type
REMARK                         _______ _______ _______ _____ _____    ______ ____
ROOT
ATOM      1  N   UNL     1       1.210   4.231  -4.772  0.00  0.00    -0.245 N 
ATOM      2  H   UNL     1       1.227   4.859  -5.511  0.00  0.00    +0.172 HD
ENDROOT
BRANCH   1   3
ATOM      3  N   UNL     1       1.153   2.854  -5.024  0.00  0.00    -0.231 N 
ATOM      4  C   UNL     1       1.123   2.402  -6.293  0.00  0.00    +0.261 C 
ATOM      5  O   UNL     1       1.144   3.189  -7.220  0.00  0.00    -0.269 OA
ATOM      6  H   UNL     1       1.137   2.226  -4.285  0.00  0.00    +0.173 HD
BRANCH   4   7
ATOM      7  C   UNL     1       1.063   0.956  -6.557  0.00  0.00    +0.053 A 
ATOM      8  C   UNL     1       1.044   0.047  -5.537  0.00  0.00    +0.059 A 
ATOM      9  S   UNL     1       0.970  -1.478  -6.352  0.00  0.00    -0.100 S 
ATOM     10  C   UNL     1       0.975  -0.914  -8.041  0.00  0.00    -0.005 A 
ATOM     11  C   UNL     1       1.029   0.439  -7.910  0.00  0.00    +0.004 A 
ATOM     12  C   UNL     1       0.930  -1.734  -9.305  0.00  0.00    +0.052 C 
BRANCH  11  13
ATOM     13  C   UNL     1       1.052   1.337  -9.089  0.00  0.00    -0.016 A 
ATOM     14  C   UNL     1      -0.012   2.204  -9.329  0.00  0.00    +0.009 A 
ATOM     15  C   UNL     1       0.018   3.041 -10.426  0.00  0.00    +0.004 A 
ATOM     16  C   UNL     1       1.096   3.013 -11.293  0.00  0.00    -0.050 A 
ATOM     17  C   UNL     1       2.152   2.150 -11.062  0.00  0.00    +0.004 A 
ATOM     18  C   UNL     1       2.136   1.312  -9.966  0.00  0.00    +0.009 A 
ATOM     19  C   UNL     1       1.119   3.925 -12.492  0.00  0.00    +0.044 C 
ENDBRANCH  11  13
ENDBRANCH   4   7
ENDBRANCH   1   3
BRANCH   1  20
ATOM     20  C   UNL     1       1.241   4.683  -3.503  0.00  0.00    +0.151 C 
ATOM     21  S   UNL     1       1.310   6.366  -3.195  0.00  0.00    -0.017 S 
BRANCH  20  22
ATOM     22  N   UNL     1       1.217   3.811  -2.476  0.00  0.00    -0.290 N 
ATOM     23  H   UNL     1       1.178   2.857  -2.650  0.00  0.00    +0.154 HD
BRANCH  22  27
ATOM     24  C   UNL     1       1.268   4.290   1.242  0.00  0.00    -0.022 A 
ATOM     25  C   UNL     1       1.325   5.630   1.144  0.00  0.00    -0.008 A 
ATOM     26  S   UNL     1       1.318   5.913  -0.614  0.00  0.00    -0.078 S 
ATOM     27  C   UNL     1       1.249   4.275  -1.171  0.00  0.00    +0.086 A 
ATOM     28  C   UNL     1       1.233   3.539   0.009  0.00  0.00    +0.091 A 
ATOM     29  C   UNL     1       1.376   6.648   2.254  0.00  0.00    +0.052 C 
BRANCH  24  31
ATOM     30  C   UNL     1       2.683   3.312   3.029  0.00  0.00    +0.009 C 
ATOM     31  C   UNL     1       1.248   3.601   2.583  0.00  0.00    +0.033 C 
ENDBRANCH  24  31
BRANCH  28  32
ATOM     32  C   UNL     1       1.176   2.076   0.002  0.00  0.00    +0.342 C 
ATOM     33  O   UNL     1       2.205   1.428  -0.011  0.00  0.00    -0.245 OA
BRANCH  32  34
ATOM     34  O   UNL     1      -0.018   1.448   0.010  0.00  0.00    -0.464 OA
ATOM     35  C   UNL     1       0.002  -0.004   0.002  0.00  0.00    +0.280 C 
ENDBRANCH  32  34
ENDBRANCH  28  32
ENDBRANCH  22  27
ENDBRANCH  20  22
ENDBRANCH   1  20
TORSDOF 9
