REMARK  Name = ZINC21224072
REMARK  4 active torsions:
REMARK  status: ('A' for Active; 'I' for Inactive)
REMARK    1  A    between atoms: C_5  and  C_7
REMARK    2  A    between atoms: C_12  and  C_22
REMARK    3  A    between atoms: C_25  and  O_31
REMARK    4  A    between atoms: C_26  and  N_28
REMARK                            x       y       z     vdW  Elec       q    Type
REMARK                         _______ _______ _______ _____ _____    ______ ____
ROOT
ATOM      1  C   UNL     1      -4.338   0.349  -3.824  0.00  0.00    +0.033 C 
ATOM      2  C   UNL     1      -3.261  -0.673  -3.464  0.00  0.00    +0.059 C 
ATOM      3  C   UNL     1      -2.872  -0.523  -2.002  0.00  0.00    +0.017 C 
ATOM      4  C   UNL     1      -2.897   0.683  -1.411  0.00  0.00    +0.036 C 
ATOM      5  C   UNL     1      -2.513   0.977   0.019  0.00  0.00    +0.136 C 
ATOM      6  N   UNL     1      -2.344  -0.200   0.845  0.00  0.00    -0.331 N 
ATOM      7  C   UNL     1      -1.334  -1.123   0.591  0.00  0.00    +0.049 A 
ATOM      8  C   UNL     1      -0.266  -1.286   1.458  0.00  0.00    +0.025 A 
ATOM      9  C   UNL     1       0.769  -2.136   1.109  0.00  0.00    +0.002 A 
ATOM     10  C   UNL     1       0.739  -2.820  -0.093  0.00  0.00    +0.002 A 
ATOM     11  C   UNL     1      -0.337  -2.675  -0.952  0.00  0.00    +0.025 A 
ATOM     12  C   UNL     1      -1.381  -1.837  -0.597  0.00  0.00    +0.052 A 
ATOM     13  N   UNL     1      -2.510  -1.680  -1.391  0.00  0.00    -0.316 N 
ATOM     14  C   UNL     1      -3.316   1.823  -2.137  0.00  0.00    +0.163 C 
ATOM     15  O   UNL     1      -3.314   2.904  -1.582  0.00  0.00    -0.292 OA
ATOM     16  C   UNL     1      -3.760   1.746  -3.567  0.00  0.00    +0.088 C 
ATOM     17  H   UNL     1      -3.021  -0.378   1.694  0.00  0.00    +0.147 HD
ATOM     18  H   UNL     1      -3.130  -2.581  -1.509  0.00  0.00    +0.152 HD
ENDROOT
BRANCH   1  23
ATOM     19  C   UNL     1      -4.086   0.222  -7.588  0.00  0.00    +0.000 A 
ATOM     20  C   UNL     1      -5.395  -0.047  -7.944  0.00  0.00    +0.001 A 
ATOM     21  C   UNL     1      -6.362  -0.187  -6.968  0.00  0.00    +0.020 A 
ATOM     22  C   UNL     1      -6.019  -0.065  -5.633  0.00  0.00    +0.044 A 
ATOM     23  C   UNL     1      -4.711   0.209  -5.277  0.00  0.00    -0.025 A 
ATOM     24  C   UNL     1      -3.744   0.350  -6.255  0.00  0.00    +0.005 A 
ATOM     25 CL   UNL     1      -7.232  -0.250  -4.404  0.00  0.00    -0.083 Cl
ENDBRANCH   1  23
BRANCH   5  26
ATOM     26  C   UNL     1      -1.220   1.750   0.017  0.00  0.00    -0.020 A 
ATOM     27  C   UNL     1      -1.186   3.041   0.513  0.00  0.00    +0.009 A 
ATOM     28  C   UNL     1      -0.001   3.749   0.518  0.00  0.00    +0.048 A 
ATOM     29  C   UNL     1       1.156   3.167   0.019  0.00  0.00    +0.147 A 
ATOM     30  C   UNL     1       1.119   1.875  -0.482  0.00  0.00    +0.168 A 
ATOM     31  C   UNL     1      -0.070   1.170  -0.485  0.00  0.00    +0.042 A 
BRANCH  30  32
ATOM     32  N   UNL     1       2.351   1.251  -1.015  0.00  0.00    +0.060 N 
ATOM     33  O   UNL     1       2.317   0.116  -1.455  0.00  0.00    -0.126 OA
ATOM     34  O   UNL     1       3.398   1.873  -1.013  0.00  0.00    -0.126 OA
ENDBRANCH  30  32
BRANCH  29  35
ATOM     35  O   UNL     1       2.324   3.862   0.023  0.00  0.00    -0.504 OA
ATOM     36  H   UNL     1       3.241   3.400  -0.372  0.00  0.00    +0.292 HD
ENDBRANCH  29  35
ENDBRANCH   5  26
TORSDOF 4
