REMARK  Name = ZINC21248989
REMARK  8 active torsions:
REMARK  status: ('A' for Active; 'I' for Inactive)
REMARK    1  A    between atoms: C_1  and  C_2
REMARK    2  A    between atoms: C_2  and  C_3
REMARK    3  A    between atoms: C_3  and  O_4
REMARK    4  A    between atoms: O_4  and  C_5
REMARK    5  A    between atoms: C_8  and  C_11
REMARK    6  A    between atoms: C_16  and  C_21
REMARK    7  A    between atoms: C_26  and  O_27
REMARK    8  A    between atoms: O_27  and  C_28
REMARK                            x       y       z     vdW  Elec       q    Type
REMARK                         _______ _______ _______ _____ _____    ______ ____
ROOT
ATOM      1  C   UNL     1      -2.869   2.237   2.444  0.00  0.00    +0.136 C 
ATOM      2  C   UNL     1      -2.012   1.775   1.289  0.00  0.00    +0.036 C 
ATOM      3  C   UNL     1      -0.684   1.597   1.316  0.00  0.00    +0.017 C 
ATOM      4  C   UNL     1       0.060   1.125   0.077  0.00  0.00    +0.060 C 
ATOM      5  C   UNL     1      -0.643   1.636  -1.179  0.00  0.00    +0.035 C 
ATOM      6  C   UNL     1      -2.075   1.089  -1.169  0.00  0.00    +0.088 C 
ATOM      7  C   UNL     1      -2.741   1.528   0.101  0.00  0.00    +0.163 C 
ATOM      8  O   UNL     1      -3.947   1.677   0.111  0.00  0.00    -0.292 OA
ATOM      9  N   UNL     1       0.108   1.788   2.407  0.00  0.00    -0.316 N 
ATOM     10  C   UNL     1       0.055   2.899   3.243  0.00  0.00    +0.052 A 
ATOM     11  C   UNL     1       1.123   3.764   3.395  0.00  0.00    +0.025 A 
ATOM     12  C   UNL     1       1.031   4.803   4.306  0.00  0.00    +0.002 A 
ATOM     13  C   UNL     1      -0.120   4.972   5.055  0.00  0.00    +0.002 A 
ATOM     14  C   UNL     1      -1.198   4.120   4.886  0.00  0.00    +0.025 A 
ATOM     15  C   UNL     1      -1.116   3.091   3.961  0.00  0.00    +0.049 A 
ATOM     16  N   UNL     1      -2.194   2.243   3.724  0.00  0.00    -0.331 N 
ATOM     17  H   UNL     1       0.858   1.032   2.682  0.00  0.00    +0.152 HD
ATOM     18  H   UNL     1      -2.532   1.571   4.527  0.00  0.00    +0.147 HD
ENDROOT
BRANCH   1  22
ATOM     19  C   UNL     1      -4.231   6.203   1.621  0.00  0.00    +0.121 A 
ATOM     20  C   UNL     1      -2.875   5.951   1.771  0.00  0.00    +0.046 A 
ATOM     21  C   UNL     1      -2.437   4.668   2.037  0.00  0.00    +0.009 A 
ATOM     22  C   UNL     1      -3.349   3.636   2.154  0.00  0.00    -0.023 A 
ATOM     23  C   UNL     1      -4.701   3.883   2.000  0.00  0.00    +0.009 A 
ATOM     24  C   UNL     1      -5.144   5.166   1.740  0.00  0.00    +0.046 A 
BRANCH  19  25
ATOM     25  O   UNL     1      -4.664   7.465   1.360  0.00  0.00    -0.492 OA
BRANCH  25  26
ATOM     26  C   UNL     1      -6.074   7.650   1.219  0.00  0.00    +0.229 C 
BRANCH  26  28
ATOM     27  C   UNL     1      -7.877   9.322   0.778  0.00  0.00    +0.007 C 
ATOM     28  C   UNL     1      -6.368   9.124   0.930  0.00  0.00    +0.038 C 
ENDBRANCH  26  28
ENDBRANCH  25  26
ENDBRANCH  19  25
ENDBRANCH   1  22
BRANCH   5  29
ATOM     29  C   UNL     1       0.082   1.145  -2.406  0.00  0.00    -0.002 A 
ATOM     30  C   UNL     1       0.221  -0.211  -2.630  0.00  0.00    +0.007 A 
ATOM     31  C   UNL     1       0.882  -0.663  -3.757  0.00  0.00    +0.001 A 
ATOM     32  C   UNL     1       1.415   0.242  -4.658  0.00  0.00    +0.004 A 
ATOM     33  C   UNL     1       1.284   1.599  -4.435  0.00  0.00    +0.046 A 
ATOM     34  C   UNL     1       0.616   2.054  -3.307  0.00  0.00    +0.124 A 
BRANCH  34  35
ATOM     35  O   UNL     1       0.486   3.389  -3.086  0.00  0.00    -0.495 OA
ATOM     36  C   UNL     1       1.061   4.266  -4.056  0.00  0.00    +0.277 C 
ENDBRANCH  34  35
ENDBRANCH   5  29
TORSDOF 6
