REMARK  Name = ZINC22822569
REMARK  3 active torsions:
REMARK  status: ('A' for Active; 'I' for Inactive)
REMARK    1  A    between atoms: C_1  and  C_2
REMARK    2  A    between atoms: C_5  and  C_8
REMARK    3  A    between atoms: C_13  and  C_28
REMARK                            x       y       z     vdW  Elec       q    Type
REMARK                         _______ _______ _______ _____ _____    ______ ____
ROOT
ATOM      1  C   UNL     1       5.574  10.992  -1.828  0.00  0.00    +0.032 C 
ATOM      2  C   UNL     1       4.478  10.867  -0.767  0.00  0.00    +0.060 C 
ATOM      3  C   UNL     1       4.316   9.420  -0.376  0.00  0.00    +0.020 C 
ATOM      4  C   UNL     1       5.361   8.564  -0.414  0.00  0.00    +0.041 C 
ATOM      5  C   UNL     1       5.178   7.125  -0.005  0.00  0.00    +0.173 C 
ATOM      6  N   UNL     1       3.771   6.748  -0.001  0.00  0.00    -0.243 NA
ATOM      7  C   UNL     1       2.815   7.620   0.014  0.00  0.00    +0.186 C 
ATOM      8  N   UNL     1       3.084   8.970   0.013  0.00  0.00    -0.290 N 
ATOM      9  N   UNL     1       1.506   7.189   0.024  0.00  0.00    -0.266 N 
ATOM     10  C   UNL     1       1.223   5.835   0.020  0.00  0.00    +0.165 A 
ATOM     11  N   UNL     1       0.053   5.238   0.028  0.00  0.00    -0.225 NA
ATOM     12  C   UNL     1      -0.075   3.893   0.023  0.00  0.00    +0.080 A 
ATOM     13  C   UNL     1      -1.266   3.130   0.030  0.00  0.00    +0.029 A 
ATOM     14  C   UNL     1      -1.219   1.760   0.017  0.00  0.00    +0.002 A 
ATOM     15  C   UNL     1      -0.013   1.076   0.008  0.00  0.00    +0.001 A 
ATOM     16  C   UNL     1       1.171   1.790   0.001  0.00  0.00    +0.017 A 
ATOM     17  C   UNL     1       1.135   3.163   0.008  0.00  0.00    +0.041 A 
ATOM     18  S   UNL     1       2.356   4.453   0.002  0.00  0.00    -0.052 S 
ATOM     19  C   UNL     1       6.632   8.990  -0.832  0.00  0.00    +0.164 C 
ATOM     20  O   UNL     1       7.552   8.196  -0.850  0.00  0.00    -0.292 OA
ATOM     21  C   UNL     1       6.873  10.413  -1.258  0.00  0.00    +0.088 C 
ATOM     22  H   UNL     1       2.309   9.687   0.324  0.00  0.00    +0.154 HD
ATOM     23  H   UNL     1       0.686   7.922   0.036  0.00  0.00    +0.157 HD
ENDROOT
BRANCH   5  24
ATOM     24  C   UNL     1       5.745   6.929   1.377  0.00  0.00    -0.013 A 
ATOM     25  C   UNL     1       4.997   7.274   2.486  0.00  0.00    +0.044 A 
ATOM     26  C   UNL     1       5.515   7.090   3.757  0.00  0.00    +0.126 A 
ATOM     27  C   UNL     1       6.788   6.571   3.916  0.00  0.00    +0.076 A 
ATOM     28  C   UNL     1       7.539   6.230   2.804  0.00  0.00    +0.126 A 
ATOM     29  C   UNL     1       7.016   6.409   1.535  0.00  0.00    +0.044 A 
ATOM     30  F   UNL     1       8.781   5.722   2.958  0.00  0.00    -0.205 F 
ATOM     31  F   UNL     1       4.781   7.424   4.841  0.00  0.00    -0.205 F 
ENDBRANCH   5  24
BRANCH   1  36
ATOM     32  C   UNL     1       6.352  16.561  -3.162  0.00  0.00    +0.044 C 
ATOM     33  C   UNL     1       6.150  15.108  -2.814  0.00  0.00    -0.050 A 
ATOM     34  C   UNL     1       5.788  14.206  -3.797  0.00  0.00    +0.003 A 
ATOM     35  C   UNL     1       5.602  12.874  -3.478  0.00  0.00    +0.004 A 
ATOM     36  C   UNL     1       5.778  12.444  -2.176  0.00  0.00    -0.043 A 
ATOM     37  C   UNL     1       6.135  13.347  -1.192  0.00  0.00    +0.004 A 
ATOM     38  C   UNL     1       6.326  14.678  -1.512  0.00  0.00    +0.003 A 
ENDBRANCH   1  36
TORSDOF 2
