REMARK  Name = ZINC14645908
REMARK  15 active torsions:
REMARK  status: ('A' for Active; 'I' for Inactive)
REMARK    1  A    between atoms: C_1  and  C_2
REMARK    2  A    between atoms: C_2  and  C_3
REMARK    3  A    between atoms: C_2  and  C_4
REMARK    4  A    between atoms: C_4  and  C_5
REMARK    5  A    between atoms: C_5  and  O_6
REMARK    6  A    between atoms: O_6  and  C_7
REMARK    7  A    between atoms: C_10  and  C_14
REMARK    8  A    between atoms: N_16  and  C_17
REMARK    9  A    between atoms: C_17  and  N_19
REMARK   10  A    between atoms: C_25  and  C_27
REMARK   11  A    between atoms: C_27  and  C_28
REMARK   12  A    between atoms: C_28  and  O_30
REMARK   13  A    between atoms: O_30  and  C_31
REMARK   14  A    between atoms: C_31  and  C_32
REMARK   15  A    between atoms: C_31  and  C_33
REMARK                            x       y       z     vdW  Elec       q    Type
REMARK                         _______ _______ _______ _____ _____    ______ ____
ROOT
ATOM      1  C   UNL     1       0.302  -4.745  -0.091  0.00  0.00    +0.250 C 
ATOM      2  O   UNL     1       1.284  -5.462  -0.096  0.00  0.00    -0.270 OA
ATOM      3  N   UNL     1      -0.930  -5.290  -0.063  0.00  0.00    -0.264 N 
ATOM      4  H   UNL     1      -1.713  -4.718  -0.059  0.00  0.00    +0.157 HD
ENDROOT
BRANCH   1   8
ATOM      5  C   UNL     1       0.756  -0.524  -0.165  0.00  0.00    +0.134 A 
ATOM      6  C   UNL     1       1.880  -1.342  -0.170  0.00  0.00    +0.047 A 
ATOM      7  C   UNL     1       1.737  -2.711  -0.146  0.00  0.00    +0.017 A 
ATOM      8  C   UNL     1       0.460  -3.279  -0.117  0.00  0.00    +0.038 A 
ATOM      9  C   UNL     1      -0.668  -2.453  -0.112  0.00  0.00    +0.032 A 
ATOM     10  C   UNL     1      -0.516  -1.084  -0.130  0.00  0.00    +0.060 A 
ATOM     11 BR   UNL     1      -2.040   0.036  -0.115  0.00  0.00    -0.046 Br
BRANCH   5  12
ATOM     12  O   UNL     1       0.902   0.825  -0.189  0.00  0.00    -0.491 OA
BRANCH  12  13
ATOM     13  C   UNL     1       2.237   1.334  -0.218  0.00  0.00    +0.229 C 
BRANCH  13  14
ATOM     14  C   UNL     1       2.200   2.863  -0.242  0.00  0.00    +0.044 C 
BRANCH  14  16
ATOM     15  C   UNL     1       3.593   4.929  -0.423  0.00  0.00    +0.007 C 
ATOM     16  C   UNL     1       3.630   3.407  -0.274  0.00  0.00    -0.014 C 
ATOM     17  C   UNL     1       4.344   3.039   1.028  0.00  0.00    +0.007 C 
ENDBRANCH  14  16
ENDBRANCH  13  14
ENDBRANCH  12  13
ENDBRANCH   5  12
ENDBRANCH   1   8
BRANCH   3  18
ATOM     18  C   UNL     1      -1.074  -6.630  -0.039  0.00  0.00    +0.140 C 
ATOM     19  S   UNL     1       0.301  -7.641  -0.179  0.00  0.00    -0.018 S 
BRANCH  18  20
ATOM     20  N   UNL     1      -2.300  -7.174   0.095  0.00  0.00    -0.299 N 
ATOM     21  C   UNL     1      -2.481  -8.628   0.242  0.00  0.00    +0.126 C 
ATOM     22  C   UNL     1      -3.139  -8.892   1.597  0.00  0.00    +0.123 C 
ATOM     23  N   UNL     1      -4.268  -7.995   1.807  0.00  0.00    -0.312 N 
ATOM     24  C   UNL     1      -4.435  -6.830   1.180  0.00  0.00    +0.234 C 
ATOM     25  O   UNL     1      -5.376  -6.133   1.497  0.00  0.00    -0.274 OA
ATOM     26  C   UNL     1      -3.510  -6.340   0.105  0.00  0.00    +0.171 C 
ATOM     27  H   UNL     1      -4.945  -8.265   2.447  0.00  0.00    +0.149 HD
BRANCH  26  28
ATOM     28  C   UNL     1      -4.211  -6.436  -1.251  0.00  0.00    +0.152 C 
BRANCH  28  29
ATOM     29  C   UNL     1      -3.340  -5.815  -2.312  0.00  0.00    +0.310 C 
ATOM     30  O   UNL     1      -2.329  -5.232  -1.999  0.00  0.00    -0.251 OA
BRANCH  29  31
ATOM     31  O   UNL     1      -3.688  -5.909  -3.606  0.00  0.00    -0.462 OA
BRANCH  31  32
ATOM     32  C   UNL     1      -2.802  -5.287  -4.573  0.00  0.00    +0.170 C 
ATOM     33  C   UNL     1      -2.870  -6.055  -5.895  0.00  0.00    +0.052 C 
ATOM     34  C   UNL     1      -3.234  -3.837  -4.803  0.00  0.00    +0.052 C 
ENDBRANCH  31  32
ENDBRANCH  29  31
ENDBRANCH  28  29
ENDBRANCH  26  28
ENDBRANCH  18  20
ENDBRANCH   3  18
TORSDOF 11
