REMARK  Name = ZINC64609366
REMARK  6 active torsions:
REMARK  status: ('A' for Active; 'I' for Inactive)
REMARK    1  A    between atoms: C_1  and  C_2
REMARK    2  A    between atoms: C_2  and  C_3
REMARK    3  A    between atoms: C_2  and  N_10
REMARK    4  A    between atoms: N_10  and  C_11
REMARK    5  A    between atoms: N_17  and  C_22
REMARK    6  A    between atoms: N_20  and  C_21
REMARK                            x       y       z     vdW  Elec       q    Type
REMARK                         _______ _______ _______ _____ _____    ______ ____
ROOT
ATOM      1  C   UNL     1      -0.057  -0.853   2.334  0.00  0.00    +0.030 A 
ATOM      2  C   UNL     1      -1.337  -0.326   2.471  0.00  0.00    +0.025 A 
ATOM      3  C   UNL     1      -2.019  -0.462   3.664  0.00  0.00    +0.030 A 
ATOM      4  C   UNL     1      -1.427  -1.125   4.728  0.00  0.00    +0.070 A 
ATOM      5  C   UNL     1      -0.142  -1.654   4.593  0.00  0.00    +0.071 A 
ATOM      6  C   UNL     1       0.538  -1.522   3.393  0.00  0.00    +0.051 A 
ATOM      7  N   UNL     1       0.177  -2.251   5.811  0.00  0.00    -0.295 N 
ATOM      8  C   UNL     1      -0.864  -2.092   6.649  0.00  0.00    +0.330 A 
ATOM      9  O   UNL     1      -0.909  -2.498   7.795  0.00  0.00    -0.246 OA
ATOM     10  N   UNL     1      -1.848  -1.417   6.026  0.00  0.00    -0.295 N 
ATOM     11  C   UNL     1      -3.141  -1.051   6.611  0.00  0.00    +0.154 C 
ATOM     12  C   UNL     1       1.434  -2.936   6.125  0.00  0.00    +0.154 C 
ENDROOT
BRANCH   1  13
ATOM     13  N   UNL     1       0.629  -0.713   1.122  0.00  0.00    -0.333 N 
ATOM     14  H   UNL     1       1.520  -1.083   1.024  0.00  0.00    +0.147 HD
BRANCH  13  16
ATOM     15  C   UNL     1       0.246   1.497   0.146  0.00  0.00    +0.038 C 
ATOM     16  C   UNL     1       0.001  -0.007   0.003  0.00  0.00    +0.154 C 
BRANCH  16  17
ATOM     17  C   UNL     1       0.597  -0.491  -1.294  0.00  0.00    +0.236 C 
ATOM     18  O   UNL     1       1.727  -0.932  -1.315  0.00  0.00    -0.274 OA
ATOM     19  N   UNL     1      -0.125  -0.435  -2.430  0.00  0.00    -0.300 N 
ATOM     20  C   UNL     1      -1.456   0.176  -2.571  0.00  0.00    +0.108 C 
ATOM     21  C   UNL     1      -1.897  -0.020  -4.037  0.00  0.00    +0.020 C 
ATOM     22  C   UNL     1      -1.037  -1.225  -4.501  0.00  0.00    +0.020 C 
ATOM     23  C   UNL     1       0.290  -0.969  -3.740  0.00  0.00    +0.108 C 
ENDBRANCH  16  17
ENDBRANCH  13  16
ENDBRANCH   1  13
TORSDOF 3
