REMARK  Name = ZINC09569385
REMARK  4 active torsions:
REMARK  status: ('A' for Active; 'I' for Inactive)
REMARK    1  A    between atoms: C_6  and  S_11
REMARK    2  A    between atoms: S_11  and  N_14
REMARK    3  A    between atoms: N_14  and  C_15
REMARK    4  A    between atoms: C_25  and  C_27
REMARK                            x       y       z     vdW  Elec       q    Type
REMARK                         _______ _______ _______ _____ _____    ______ ____
ROOT
ATOM      1  C   UNL     1      -0.251   7.667  -2.427  0.00  0.00    +0.050 A 
ATOM      2  C   UNL     1      -1.035   6.586  -2.042  0.00  0.00    +0.025 A 
ATOM      3  C   UNL     1      -2.317   6.452  -2.533  0.00  0.00    +0.007 A 
ATOM      4  C   UNL     1      -2.829   7.385  -3.421  0.00  0.00    -0.026 A 
ATOM      5  C   UNL     1      -2.049   8.463  -3.809  0.00  0.00    +0.042 A 
ATOM      6  C   UNL     1      -0.759   8.605  -3.313  0.00  0.00    +0.048 A 
ATOM      7  N   UNL     1      -2.546   9.425  -4.698  0.00  0.00    -0.265 N 
ATOM      8  C   UNL     1      -3.775   9.133  -5.447  0.00  0.00    +0.114 C 
ATOM      9  C   UNL     1      -4.786   8.522  -4.468  0.00  0.00    +0.024 C 
ATOM     10  C   UNL     1      -4.229   7.198  -3.944  0.00  0.00    +0.038 C 
ATOM     11  C   UNL     1      -1.906  10.600  -4.863  0.00  0.00    +0.286 C 
ATOM     12  O   UNL     1      -0.964  10.886  -4.148  0.00  0.00    -0.266 OA
ENDROOT
BRANCH  11  13
ATOM     13  C   UNL     1      -2.346  11.534  -5.905  0.00  0.00    +0.190 A 
ATOM     14  C   UNL     1      -1.881  12.804  -6.092  0.00  0.00    +0.054 A 
ATOM     15  C   UNL     1      -2.574  13.330  -7.194  0.00  0.00    +0.042 A 
ATOM     16  C   UNL     1      -3.422  12.369  -7.625  0.00  0.00    +0.196 A 
ATOM     17  O   UNL     1      -3.277  11.287  -6.849  0.00  0.00    -0.458 OA
ENDBRANCH  11  13
BRANCH   1  18
ATOM     18  N   UNL     1       1.046   7.806  -1.927  0.00  0.00    -0.216 N 
ATOM     19  H   UNL     1       1.778   8.012  -2.529  0.00  0.00    +0.174 HD
BRANCH  18  20
ATOM     20  S   UNL     1       1.334   7.617  -0.307  0.00  0.00    +0.072 S 
ATOM     21  O   UNL     1       2.719   7.865  -0.109  0.00  0.00    -0.150 OA
ATOM     22  O   UNL     1       0.716   6.397   0.076  0.00  0.00    -0.150 OA
BRANCH  20  28
ATOM     23  C   UNL     1      -0.971  13.091   2.814  0.00  0.00    +0.001 A 
ATOM     24  C   UNL     1       0.366  13.276   2.468  0.00  0.00    +0.001 A 
ATOM     25  C   UNL     1       1.065  12.299   1.828  0.00  0.00    +0.008 A 
ATOM     26  C   UNL     1       0.429  11.090   1.499  0.00  0.00    -0.016 A 
ATOM     27  C   UNL     1       1.117  10.062   0.832  0.00  0.00    +0.037 A 
ATOM     28  C   UNL     1       0.468   8.904   0.529  0.00  0.00    +0.109 A 
ATOM     29  C   UNL     1      -0.871   8.722   0.870  0.00  0.00    +0.029 A 
ATOM     30  C   UNL     1      -1.569   9.696   1.516  0.00  0.00    +0.010 A 
ATOM     31  C   UNL     1      -0.932  10.905   1.846  0.00  0.00    -0.018 A 
ATOM     32  C   UNL     1      -1.620  11.933   2.512  0.00  0.00    +0.008 A 
ENDBRANCH  20  28
ENDBRANCH  18  20
ENDBRANCH   1  18
TORSDOF 4
