REMARK  Name = ZINC12420035
REMARK  10 active torsions:
REMARK  status: ('A' for Active; 'I' for Inactive)
REMARK    1  A    between atoms: C_1  and  C_2
REMARK    2  A    between atoms: C_2  and  C_3
REMARK    3  A    between atoms: C_3  and  C_4
REMARK    4  A    between atoms: C_4  and  N_5
REMARK    5  A    between atoms: C_10  and  C_35
REMARK    6  A    between atoms: N_24  and  C_27
REMARK    7  A    between atoms: C_27  and  C_28
REMARK    8  A    between atoms: C_35  and  C_36
REMARK    9  A    between atoms: C_36  and  S_37
REMARK   10  A    between atoms: S_37  and  C_38
REMARK                            x       y       z     vdW  Elec       q    Type
REMARK                         _______ _______ _______ _____ _____    ______ ____
ROOT
ATOM      1  N   UNL     1       1.425  -2.500  -2.470  0.00  0.00    -0.242 N 
ATOM      2  C   UNL     1       0.784  -2.738  -3.621  0.00  0.00    +0.227 C 
ATOM      3  O   UNL     1      -0.406  -2.595  -3.803  0.00  0.00    -0.275 OA
ATOM      4  C   UNL     1       1.776  -3.212  -4.659  0.00  0.00    +0.107 C 
ATOM      5  C   UNL     1       1.500  -4.697  -4.982  0.00  0.00    +0.068 C 
ATOM      6  N   UNL     1       2.838  -5.345  -4.966  0.00  0.00    -0.295 NA
ATOM      7  C   UNL     1       3.543  -4.692  -3.847  0.00  0.00    +0.136 C 
ATOM      8  C   UNL     1       3.128  -3.200  -3.894  0.00  0.00    +0.122 C 
ATOM      9  C   UNL     1       2.744  -2.723  -2.512  0.00  0.00    +0.228 C 
ATOM     10  O   UNL     1       3.510  -2.569  -1.586  0.00  0.00    -0.275 OA
ATOM     11  C   UNL     1       3.197  -5.328  -2.531  0.00  0.00    +0.004 A 
ATOM     12  C   UNL     1       2.016  -5.513  -1.847  0.00  0.00    +0.008 A 
ATOM     13  C   UNL     1       2.018  -6.155  -0.622  0.00  0.00    +0.000 A 
ATOM     14  C   UNL     1       3.209  -6.611  -0.086  0.00  0.00    +0.002 A 
ATOM     15  C   UNL     1       4.394  -6.429  -0.767  0.00  0.00    +0.024 A 
ATOM     16  C   UNL     1       4.401  -5.783  -2.001  0.00  0.00    +0.042 A 
ATOM     17  N   UNL     1       5.455  -5.484  -2.868  0.00  0.00    -0.265 N 
ATOM     18  C   UNL     1       5.034  -4.844  -3.976  0.00  0.00    +0.246 C 
ATOM     19  O   UNL     1       5.724  -4.463  -4.898  0.00  0.00    -0.273 OA
ATOM     20  H   UNL     1       2.757  -6.338  -4.811  0.00  0.00    +0.123 HD
ENDROOT
BRANCH   1  21
ATOM     21  C   UNL     1       0.739  -2.027  -1.265  0.00  0.00    +0.116 C 
BRANCH  21  22
ATOM     22  C   UNL     1       0.718  -0.497  -1.257  0.00  0.00    +0.019 C 
BRANCH  22  24
ATOM     23  C   UNL     1      -0.019   1.526   0.010  0.00  0.00    +0.004 C 
ATOM     24  C   UNL     1       0.002  -0.004   0.002  0.00  0.00    -0.002 C 
ENDBRANCH  22  24
ENDBRANCH  21  22
ENDBRANCH   1  21
BRANCH  17  25
ATOM     25  C   UNL     1       6.854  -5.827  -2.603  0.00  0.00    +0.150 C 
BRANCH  25  26
ATOM     26  C   UNL     1       7.152  -7.193  -3.164  0.00  0.00    -0.011 A 
ATOM     27  C   UNL     1       7.164  -8.296  -2.330  0.00  0.00    +0.006 A 
ATOM     28  C   UNL     1       7.437  -9.549  -2.845  0.00  0.00    +0.000 A 
ATOM     29  C   UNL     1       7.698  -9.701  -4.195  0.00  0.00    +0.001 A 
ATOM     30  C   UNL     1       7.685  -8.600  -5.029  0.00  0.00    +0.020 A 
ATOM     31  C   UNL     1       7.406  -7.346  -4.515  0.00  0.00    +0.046 A 
ATOM     32 CL   UNL     1       7.384  -5.963  -5.564  0.00  0.00    -0.083 Cl
ENDBRANCH  25  26
ENDBRANCH  17  25
BRANCH   5  33
ATOM     33  C   UNL     1       0.857  -4.831  -6.363  0.00  0.00    +0.030 C 
BRANCH  33  34
ATOM     34  C   UNL     1       0.479  -6.293  -6.610  0.00  0.00    +0.070 C 
BRANCH  34  35
ATOM     35  S   UNL     1      -0.283  -6.452  -8.248  0.00  0.00    -0.164 S 
ATOM     36  C   UNL     1      -0.667  -8.220  -8.384  0.00  0.00    +0.084 C 
ENDBRANCH  34  35
ENDBRANCH  33  34
ENDBRANCH   5  33
TORSDOF 8
