REMARK  Name = ZINC61705542
REMARK  2 active torsions:
REMARK  status: ('A' for Active; 'I' for Inactive)
REMARK    1  A    between atoms: C_8  and  C_12
REMARK    2  A    between atoms: C_17  and  O_20
REMARK                            x       y       z     vdW  Elec       q    Type
REMARK                         _______ _______ _______ _____ _____    ______ ____
ROOT
ATOM      1  C   UNL     1      -0.017   1.372   0.010  0.00  0.00    +0.101 A 
ATOM      2  C   UNL     1       1.119   2.069   0.003  0.00  0.00    +0.067 A 
ATOM      3  S   UNL     1       2.347   0.772  -0.016  0.00  0.00    -0.058 S 
ATOM      4  C   UNL     1       1.228  -0.611  -0.013  0.00  0.00    +0.179 A 
ATOM      5  N   UNL     1       0.002  -0.004   0.002  0.00  0.00    -0.293 N 
ATOM      6  C   UNL     1      -0.946  -1.063   0.005  0.00  0.00    +0.082 A 
ATOM      7  C   UNL     1      -2.322  -1.222   0.017  0.00  0.00    +0.049 A 
ATOM      8  C   UNL     1      -2.856  -2.498   0.014  0.00  0.00    +0.078 A 
ATOM      9  S   UNL     1      -1.396  -3.525  -0.005  0.00  0.00    -0.063 S 
ATOM     10  C   UNL     1      -0.178  -2.233  -0.009  0.00  0.00    +0.128 A 
ATOM     11  N   UNL     1       1.109  -1.912  -0.018  0.00  0.00    -0.214 NA
ENDROOT
BRANCH   8  12
ATOM     12  C   UNL     1      -4.218  -2.890   0.024  0.00  0.00    +0.253 C 
ATOM     13  O   UNL     1      -5.095  -2.045   0.037  0.00  0.00    -0.269 OA
ATOM     14  N   UNL     1      -4.543  -4.198   0.019  0.00  0.00    -0.295 N 
ATOM     15  C   UNL     1      -3.589  -5.317   0.011  0.00  0.00    +0.111 C 
ATOM     16  C   UNL     1      -4.414  -6.622   0.036  0.00  0.00    +0.052 C 
ATOM     17  C   UNL     1      -5.772  -6.163   0.629  0.00  0.00    +0.133 C 
ATOM     18  C   UNL     1      -5.912  -4.744   0.029  0.00  0.00    +0.139 C 
BRANCH  17  19
ATOM     19  O   UNL     1      -6.835  -7.013   0.194  0.00  0.00    -0.390 OA
ATOM     20  H   UNL     1      -7.703  -6.766   0.539  0.00  0.00    +0.210 HD
ENDBRANCH  17  19
ENDBRANCH   8  12
TORSDOF 2
