REMARK  Name = ZINC44876741
REMARK  10 active torsions:
REMARK  status: ('A' for Active; 'I' for Inactive)
REMARK    1  A    between atoms: C_1  and  C_2
REMARK    2  A    between atoms: N_5  and  C_8
REMARK    3  A    between atoms: C_8  and  C_9
REMARK    4  A    between atoms: C_12  and  C_15
REMARK    5  A    between atoms: C_15  and  N_16
REMARK    6  A    between atoms: N_16  and  S_17
REMARK    7  A    between atoms: S_17  and  C_20
REMARK    8  A    between atoms: C_23  and  S_33
REMARK    9  A    between atoms: C_24  and  C_26
REMARK   10  A    between atoms: S_33  and  C_34
REMARK                            x       y       z     vdW  Elec       q    Type
REMARK                         _______ _______ _______ _____ _____    ______ ____
ROOT
ATOM      1  N   UNL     1       2.260  -5.022   6.427  0.00  0.00    -0.186 NA
ATOM      2  H   UNL     1       2.396  -4.312   5.779  0.00  0.00    +0.148 HD
ENDROOT
BRANCH   1   3
ATOM      3  S   UNL     1       2.432  -4.712   8.044  0.00  0.00    +0.059 S 
ATOM      4  O   UNL     1       2.804  -3.345   8.158  0.00  0.00    -0.153 OA
ATOM      5  O   UNL     1       1.281  -5.244   8.685  0.00  0.00    -0.153 OA
BRANCH   3   6
ATOM      6  C   UNL     1       3.806  -5.657   8.612  0.00  0.00    +0.106 A 
ATOM      7  C   UNL     1       3.609  -6.945   9.083  0.00  0.00    +0.029 A 
ATOM      8  C   UNL     1       4.676  -7.696   9.531  0.00  0.00    +0.017 A 
ATOM      9  C   UNL     1       5.960  -7.163   9.512  0.00  0.00    +0.020 A 
ATOM     10  C   UNL     1       6.163  -5.858   9.035  0.00  0.00    +0.052 A 
ATOM     11  C   UNL     1       5.071  -5.113   8.580  0.00  0.00    +0.042 A 
BRANCH  10  12
ATOM     12  C   UNL     1       7.518  -5.280   9.009  0.00  0.00    +0.248 C 
ATOM     13  O   UNL     1       8.228  -5.350   9.994  0.00  0.00    -0.270 OA
ATOM     14  N   UNL     1       7.971  -4.674   7.894  0.00  0.00    -0.297 N 
ATOM     15  C   UNL     1       7.187  -4.424   6.676  0.00  0.00    +0.108 C 
ATOM     16  C   UNL     1       8.123  -3.733   5.662  0.00  0.00    +0.020 C 
ATOM     17  C   UNL     1       9.536  -4.142   6.158  0.00  0.00    +0.020 C 
ATOM     18  C   UNL     1       9.333  -4.145   7.696  0.00  0.00    +0.108 C 
ENDBRANCH  10  12
BRANCH   9  19
ATOM     19  S   UNL     1       7.325  -8.120  10.084  0.00  0.00    -0.128 S 
ATOM     20  C   UNL     1       6.577  -9.694  10.586  0.00  0.00    +0.090 C 
ENDBRANCH   9  19
ENDBRANCH   3   6
ENDBRANCH   1   3
BRANCH   1  21
ATOM     21  C   UNL     1       1.901  -6.368   5.973  0.00  0.00    +0.141 C 
BRANCH  21  25
ATOM     22  C   UNL     1       0.624  -6.207   1.900  0.00  0.00    -0.064 A 
ATOM     23  C   UNL     1       1.958  -6.411   2.198  0.00  0.00    +0.002 A 
ATOM     24  C   UNL     1       2.371  -6.463   3.516  0.00  0.00    +0.005 A 
ATOM     25  C   UNL     1       1.450  -6.310   4.536  0.00  0.00    -0.032 A 
ATOM     26  C   UNL     1       0.116  -6.105   4.238  0.00  0.00    +0.005 A 
ATOM     27  C   UNL     1      -0.296  -6.049   2.919  0.00  0.00    +0.002 A 
BRANCH  22  28
ATOM     28  C   UNL     1       0.173  -6.150   0.463  0.00  0.00    -0.043 C 
BRANCH  28  33
ATOM     29  C   UNL     1       1.125  -1.225  -2.251  0.00  0.00    +0.007 C 
ATOM     30  C   UNL     1       1.128  -2.703  -1.853  0.00  0.00    -0.018 C 
ATOM     31  C   UNL     1      -0.308  -3.236  -1.853  0.00  0.00    -0.016 C 
ATOM     32  C   UNL     1      -0.306  -4.690  -1.377  0.00  0.00    -0.078 C 
ATOM     33  N   UNL     1       0.245  -4.764  -0.019  0.00  0.00    +0.382 N 
ATOM     34  C   UNL     1       1.645  -4.322  -0.024  0.00  0.00    -0.078 C 
ATOM     35  C   UNL     1       1.718  -2.853  -0.447  0.00  0.00    -0.016 C 
ATOM     36  H   UNL     1      -0.292  -4.169   0.594  0.00  0.00    -0.081 HD
ENDBRANCH  28  33
ENDBRANCH  22  28
ENDBRANCH  21  25
ENDBRANCH   1  21
TORSDOF 8
