REMARK  Name = ZINC01126611
REMARK  7 active torsions:
REMARK  status: ('A' for Active; 'I' for Inactive)
REMARK    1  A    between atoms: C_1  and  O_2
REMARK    2  A    between atoms: O_2  and  C_3
REMARK    3  A    between atoms: C_5  and  C_11
REMARK    4  A    between atoms: C_8  and  O_9
REMARK    5  A    between atoms: C_13  and  C_25
REMARK    6  A    between atoms: C_14  and  C_19
REMARK    7  A    between atoms: C_25  and  C_27
REMARK                            x       y       z     vdW  Elec       q    Type
REMARK                         _______ _______ _______ _____ _____    ______ ____
ROOT
ATOM      1  C   UNL     1      -2.448  -0.244  -0.150  0.00  0.00    +0.138 C 
ATOM      2  C   UNL     1      -1.088  -0.909  -0.207  0.00  0.00    +0.046 C 
ATOM      3  C   UNL     1      -1.040  -2.268  -0.056  0.00  0.00    +0.049 C 
ATOM      4  N   UNL     1      -2.191  -2.994   0.134  0.00  0.00    -0.296 N 
ATOM      5  C   UNL     1      -3.411  -2.446   0.185  0.00  0.00    +0.135 C 
ATOM      6  S   UNL     1      -4.764  -3.466   0.427  0.00  0.00    -0.019 S 
ATOM      7  N   UNL     1      -3.613  -1.121   0.052  0.00  0.00    -0.315 N 
ATOM      8  H   UNL     1      -2.115  -3.955   0.237  0.00  0.00    +0.154 HD
ATOM      9  H   UNL     1      -4.509  -0.751   0.093  0.00  0.00    +0.149 HD
ENDROOT
BRANCH   1  12
ATOM     10  C   UNL     1      -2.743   2.570  -2.655  0.00  0.00    +0.163 A 
ATOM     11  C   UNL     1      -2.560   1.882  -1.466  0.00  0.00    +0.055 A 
ATOM     12  C   UNL     1      -2.654   0.503  -1.443  0.00  0.00    -0.018 A 
ATOM     13  C   UNL     1      -2.942  -0.193  -2.603  0.00  0.00    +0.025 A 
ATOM     14  C   UNL     1      -3.132   0.488  -3.792  0.00  0.00    +0.063 A 
ATOM     15  C   UNL     1      -3.033   1.871  -3.822  0.00  0.00    +0.173 A 
ATOM     16 BR   UNL     1      -3.525  -0.466  -5.376  0.00  0.00    -0.046 Br
BRANCH  10  18
ATOM     17  C   UNL     1      -2.243   4.569  -1.468  0.00  0.00    +0.277 C 
ATOM     18  O   UNL     1      -2.645   3.926  -2.679  0.00  0.00    -0.491 OA
ENDBRANCH  10  18
BRANCH  15  19
ATOM     19  O   UNL     1      -3.218   2.542  -4.990  0.00  0.00    -0.503 OA
ATOM     20  H   UNL     1      -4.136   2.802  -5.153  0.00  0.00    +0.292 HD
ENDBRANCH  15  19
ENDBRANCH   1  12
BRANCH   3  21
ATOM     21  C   UNL     1       0.262  -2.962  -0.098  0.00  0.00    -0.003 A 
ATOM     22  C   UNL     1       0.435  -4.080  -0.918  0.00  0.00    +0.010 A 
ATOM     23  C   UNL     1       1.657  -4.720  -0.957  0.00  0.00    +0.001 A 
ATOM     24  C   UNL     1       2.705  -4.264  -0.176  0.00  0.00    +0.000 A 
ATOM     25  C   UNL     1       2.538  -3.162   0.643  0.00  0.00    +0.001 A 
ATOM     26  C   UNL     1       1.325  -2.509   0.687  0.00  0.00    +0.010 A 
ENDBRANCH   3  21
BRANCH   2  27
ATOM     27  C   UNL     1       0.086  -0.155  -0.402  0.00  0.00    +0.193 C 
ATOM     28  O   UNL     1       0.729  -0.285  -1.429  0.00  0.00    -0.287 OA
BRANCH  27  29
ATOM     29  C   UNL     1       0.537   0.795   0.639  0.00  0.00    +0.022 A 
ATOM     30  C   UNL     1      -0.209   0.960   1.807  0.00  0.00    +0.012 A 
ATOM     31  C   UNL     1       0.220   1.843   2.777  0.00  0.00    +0.001 A 
ATOM     32  C   UNL     1       1.381   2.572   2.588  0.00  0.00    +0.000 A 
ATOM     33  C   UNL     1       2.122   2.417   1.430  0.00  0.00    +0.001 A 
ATOM     34  C   UNL     1       1.707   1.532   0.456  0.00  0.00    +0.012 A 
ENDBRANCH  27  29
ENDBRANCH   2  27
TORSDOF 6
