REMARK  Name = ZINC20734224
REMARK  4 active torsions:
REMARK  status: ('A' for Active; 'I' for Inactive)
REMARK    1  A    between atoms: C_1  and  C_2
REMARK    2  A    between atoms: C_10  and  C_12
REMARK    3  A    between atoms: C_20  and  C_23
REMARK    4  A    between atoms: C_28  and  O_29
REMARK                            x       y       z     vdW  Elec       q    Type
REMARK                         _______ _______ _______ _____ _____    ______ ____
ROOT
ATOM      1  C   UNL     1       1.569  12.623   1.013  0.00  0.00    +0.069 C 
ATOM      2  C   UNL     1       1.381  11.386   1.853  0.00  0.00    +0.087 A 
ATOM      3  C   UNL     1       1.027  10.116   1.405  0.00  0.00    +0.049 A 
ATOM      4  C   UNL     1       0.989   9.349   2.541  0.00  0.00    +0.226 A 
ATOM      5  O   UNL     1       1.302  10.158   3.547  0.00  0.00    -0.339 OA
ATOM      6  N   UNL     1       1.519  11.288   3.152  0.00  0.00    -0.081 NA
ATOM      7  N   UNL     1       0.672   8.007   2.486  0.00  0.00    -0.286 N 
ATOM      8  C   UNL     1       0.683   7.379   1.263  0.00  0.00    +0.019 C 
ATOM      9  C   UNL     1       0.712   8.060   0.097  0.00  0.00    +0.025 C 
ATOM     10  C   UNL     1       0.729   9.574   0.044  0.00  0.00    +0.097 C 
ATOM     11  C   UNL     1       0.722   7.382  -1.136  0.00  0.00    +0.162 C 
ATOM     12  O   UNL     1       0.775   8.025  -2.166  0.00  0.00    -0.292 OA
ATOM     13  C   UNL     1       0.670   5.882  -1.208  0.00  0.00    +0.088 C 
ATOM     14  C   UNL     1      -0.059   5.351   0.030  0.00  0.00    +0.035 C 
ATOM     15  C   UNL     1       0.667   5.867   1.274  0.00  0.00    +0.060 C 
ATOM     16  H   UNL     1       0.419   7.464   3.408  0.00  0.00    +0.155 HD
ENDROOT
BRANCH  14  17
ATOM     17  C   UNL     1      -0.043   3.844   0.022  0.00  0.00    -0.002 A 
ATOM     18  C   UNL     1       1.161   3.165   0.007  0.00  0.00    +0.007 A 
ATOM     19  C   UNL     1       1.176   1.783   0.000  0.00  0.00    +0.001 A 
ATOM     20  C   UNL     1      -0.013   1.076   0.008  0.00  0.00    +0.004 A 
ATOM     21  C   UNL     1      -1.218   1.750   0.017  0.00  0.00    +0.046 A 
ATOM     22  C   UNL     1      -1.236   3.137   0.030  0.00  0.00    +0.120 A 
BRANCH  22  23
ATOM     23  O   UNL     1      -2.421   3.802   0.046  0.00  0.00    -0.506 OA
ATOM     24  H   UNL     1      -3.367   3.240   0.052  0.00  0.00    +0.292 HD
ENDBRANCH  22  23
ENDBRANCH  14  17
BRANCH  10  25
ATOM     25  C   UNL     1      -0.617  10.076  -0.413  0.00  0.00    +0.002 A 
ATOM     26  C   UNL     1      -0.923  10.828  -1.499  0.00  0.00    +0.012 A 
ATOM     27  C   UNL     1      -2.243  11.172  -1.725  0.00  0.00    +0.008 A 
ATOM     28  C   UNL     1      -3.190  10.756  -0.849  0.00  0.00    +0.045 A 
ATOM     29  S   UNL     1      -2.219   9.842   0.338  0.00  0.00    -0.101 S 
ENDBRANCH  10  25
TORSDOF 3
