REMARK  Name = ZINC12637558
REMARK  8 active torsions:
REMARK  status: ('A' for Active; 'I' for Inactive)
REMARK    1  A    between atoms: C_1  and  C_2
REMARK    2  A    between atoms: C_12  and  C_14
REMARK    3  A    between atoms: C_14  and  C_16
REMARK    4  A    between atoms: C_14  and  N_63
REMARK    5  A    between atoms: N_20  and  C_21
REMARK    6  A    between atoms: C_21  and  C_22
REMARK    7  A    between atoms: C_22  and  C_23
REMARK    8  A    between atoms: C_32  and  C_35
REMARK                            x       y       z     vdW  Elec       q    Type
REMARK                         _______ _______ _______ _____ _____    ______ ____
ROOT
ATOM      1  C   UNL     1       0.013   1.235  -2.408  0.00  0.00    +0.039 C 
ENDROOT
BRANCH   1  13
ATOM      2  C   UNL     1       5.962   3.787  -1.267  0.00  0.00    +0.046 C 
ATOM      3  C   UNL     1       4.977   4.017  -2.384  0.00  0.00    -0.026 A 
ATOM      4  C   UNL     1       5.277   4.901  -3.399  0.00  0.00    +0.005 A 
ATOM      5  C   UNL     1       4.379   5.123  -4.434  0.00  0.00    +0.001 A 
ATOM      6  C   UNL     1       3.180   4.469  -4.466  0.00  0.00    +0.010 A 
ATOM      7  C   UNL     1       2.854   3.568  -3.447  0.00  0.00    -0.001 A 
ATOM      8  C   UNL     1       3.763   3.340  -2.396  0.00  0.00    +0.052 A 
ATOM      9  N   UNL     1       3.437   2.451  -1.394  0.00  0.00    -0.322 N 
ATOM     10  H   UNL     1       4.064   2.295  -0.670  0.00  0.00    +0.169 HD
ATOM     11  C   UNL     1       2.260   1.801  -1.402  0.00  0.00    +0.251 A 
ATOM     12  O   UNL     1       2.003   1.026  -0.497  0.00  0.00    -0.268 OA
ATOM     13  C   UNL     1       1.317   1.989  -2.435  0.00  0.00    +0.011 A 
ATOM     14  C   UNL     1       1.578   2.850  -3.450  0.00  0.00    +0.017 A 
ENDBRANCH   1  13
BRANCH   1  21
ATOM     15  C   UNL     1      -1.895   0.676  -1.027  0.00  0.00    -0.077 C 
ATOM     16  C   UNL     1      -2.484   0.815   0.379  0.00  0.00    -0.018 C 
ATOM     17  C   UNL     1      -2.764   2.293   0.666  0.00  0.00    -0.001 C 
ATOM     18  C   UNL     1      -1.464   3.088   0.518  0.00  0.00    -0.031 C 
ATOM     19  C   UNL     1      -0.905   2.884  -0.892  0.00  0.00    -0.074 C 
ATOM     20  C   UNL     1      -1.746   4.575   0.744  0.00  0.00    +0.005 C 
ATOM     21  N   UNL     1      -0.634   1.445  -1.097  0.00  0.00    +0.389 N 
ATOM     22  H   UNL     1      -0.002   1.116  -0.357  0.00  0.00    -0.080 HD
ENDBRANCH   1  21
BRANCH   1  23
ATOM     23  C   UNL     1       0.280  -0.237  -2.591  0.00  0.00    +0.142 A 
ATOM     24  N   UNL     1       0.775  -1.060  -1.699  0.00  0.00    -0.115 NA
ATOM     25  N   UNL     1       0.850  -2.229  -2.233  0.00  0.00    -0.023 NA
ATOM     26  N   UNL     1       0.422  -2.173  -3.446  0.00  0.00    -0.044 NA
ATOM     27  N   UNL     1       0.061  -0.961  -3.704  0.00  0.00    -0.230 N 
BRANCH  27  28
ATOM     28  C   UNL     1      -0.484  -0.467  -4.971  0.00  0.00    +0.152 C 
BRANCH  28  29
ATOM     29  C   UNL     1       0.661   0.005  -5.869  0.00  0.00    +0.058 C 
BRANCH  29  30
ATOM     30  C   UNL     1       0.101   0.514  -7.172  0.00  0.00    -0.046 A 
ATOM     31  C   UNL     1      -0.064  -0.350  -8.238  0.00  0.00    +0.004 A 
ATOM     32  C   UNL     1      -0.582   0.116  -9.432  0.00  0.00    +0.000 A 
ATOM     33  C   UNL     1      -0.927   1.448  -9.563  0.00  0.00    +0.000 A 
ATOM     34  C   UNL     1      -0.758   2.313  -8.498  0.00  0.00    +0.000 A 
ATOM     35  C   UNL     1      -0.244   1.847  -7.303  0.00  0.00    +0.004 A 
ENDBRANCH  29  30
ENDBRANCH  28  29
ENDBRANCH  27  28
ENDBRANCH   1  23
TORSDOF 6
