REMARK  Name = ZINC09746699
REMARK  12 active torsions:
REMARK  status: ('A' for Active; 'I' for Inactive)
REMARK    1  A    between atoms: C_1  and  C_2
REMARK    2  A    between atoms: C_7  and  C_8
REMARK    3  A    between atoms: C_8  and  N_67
REMARK    4  A    between atoms: C_11  and  C_14
REMARK    5  A    between atoms: C_14  and  N_69
REMARK    6  A    between atoms: C_15  and  C_16
REMARK    7  A    between atoms: C_15  and  N_69
REMARK    8  A    between atoms: C_17  and  C_32
REMARK    9  A    between atoms: N_18  and  C_24
REMARK   10  A    between atoms: C_19  and  C_23
REMARK   11  A    between atoms: C_20  and  C_21
REMARK   12  A    between atoms: C_24  and  C_25
REMARK                            x       y       z     vdW  Elec       q    Type
REMARK                         _______ _______ _______ _____ _____    ______ ____
ROOT
ATOM      1  C   UNL     1       3.169   5.384   0.348  0.00  0.00    -0.044 C 
ENDROOT
BRANCH   1   2
ATOM      2  C   UNL     1       4.610   5.779   0.538  0.00  0.00    -0.030 A 
ATOM      3  C   UNL     1       5.236   6.005   1.706  0.00  0.00    +0.018 A 
ATOM      4  N   UNL     1       6.536   6.337   1.459  0.00  0.00    -0.343 N 
ATOM      5  C   UNL     1       6.774   6.343   0.134  0.00  0.00    +0.031 A 
ATOM      6  C   UNL     1       5.607   6.001  -0.515  0.00  0.00    +0.085 A 
ATOM      7  C   UNL     1       8.090   6.668  -0.525  0.00  0.00    +0.064 C 
ATOM      8  C   UNL     1       4.604   5.903   3.071  0.00  0.00    +0.064 C 
BRANCH   6   9
ATOM      9  C   UNL     1       5.404   5.883  -1.967  0.00  0.00    +0.388 C 
ATOM     10  O   UNL     1       5.046   6.849  -2.612  0.00  0.00    -0.241 OA
ATOM     11  O   UNL     1       5.613   4.702  -2.583  0.00  0.00    -0.241 OA
ENDBRANCH   6   9
BRANCH   4  12
ATOM     12  C   UNL     1       7.530   6.649   2.489  0.00  0.00    +0.156 C 
BRANCH  12  13
ATOM     13  C   UNL     1       7.503   8.127   2.782  0.00  0.00    -0.028 A 
ATOM     14  C   UNL     1       8.318   8.988   2.070  0.00  0.00    +0.008 A 
ATOM     15  C   UNL     1       8.290  10.344   2.334  0.00  0.00    +0.038 A 
ATOM     16  C   UNL     1       7.454  10.840   3.320  0.00  0.00    +0.123 A 
ATOM     17  C   UNL     1       6.642   9.976   4.036  0.00  0.00    +0.038 A 
ATOM     18  C   UNL     1       6.667   8.621   3.766  0.00  0.00    +0.008 A 
ATOM     19  F   UNL     1       7.429  12.165   3.582  0.00  0.00    -0.205 F 
ENDBRANCH  12  13
ENDBRANCH   4  12
ENDBRANCH   1   2
BRANCH   1  20
ATOM     20  N   UNL     1       3.067   3.912   0.346  0.00  0.00    +0.382 N 
ATOM     21  H   UNL     1       3.637   3.534  -0.420  0.00  0.00    -0.085 HD
ATOM     22  H   UNL     1       3.414   3.548   1.242  0.00  0.00    -0.085 HD
BRANCH  20  23
ATOM     23  C   UNL     1       1.665   3.495   0.162  0.00  0.00    -0.079 C 
BRANCH  23  26
ATOM     24  C   UNL     1       0.062  -0.003   0.039  0.00  0.00    -0.078 C 
ATOM     25  C   UNL     1       0.126   1.525   0.098  0.00  0.00    -0.017 C 
ATOM     26  C   UNL     1       1.591   1.967   0.164  0.00  0.00    -0.032 C 
ATOM     27  C   UNL     1       2.337   1.417  -1.054  0.00  0.00    -0.017 C 
ATOM     28  C   UNL     1       2.209  -0.108  -1.080  0.00  0.00    -0.078 C 
ATOM     29  N   UNL     1       0.777  -0.467  -1.168  0.00  0.00    +0.382 N 
ATOM     30  H   UNL     1       0.370  -0.011  -1.993  0.00  0.00    -0.081 HD
BRANCH  29  31
ATOM     31  C   UNL     1       0.632  -1.931  -1.309  0.00  0.00    -0.043 C 
BRANCH  31  38
ATOM     32  C   UNL     1      -0.217  -1.349  -4.008  0.00  0.00    +0.044 C 
ATOM     33  C   UNL     1       1.057  -2.118  -3.768  0.00  0.00    -0.049 A 
ATOM     34  C   UNL     1       1.819  -2.545  -4.840  0.00  0.00    +0.003 A 
ATOM     35  C   UNL     1       2.987  -3.250  -4.620  0.00  0.00    +0.000 A 
ATOM     36  C   UNL     1       3.393  -3.528  -3.328  0.00  0.00    +0.000 A 
ATOM     37  C   UNL     1       2.634  -3.097  -2.257  0.00  0.00    +0.002 A 
ATOM     38  C   UNL     1       1.463  -2.396  -2.477  0.00  0.00    -0.061 A 
ENDBRANCH  31  38
ENDBRANCH  29  31
ENDBRANCH  23  26
ENDBRANCH  20  23
ENDBRANCH   1  20
TORSDOF 9
