REMARK  Name = ZINC14742703
REMARK  7 active torsions:
REMARK  status: ('A' for Active; 'I' for Inactive)
REMARK    1  A    between atoms: C_1  and  C_2
REMARK    2  A    between atoms: C_2  and  C_3
REMARK    3  A    between atoms: C_2  and  C_4
REMARK    4  A    between atoms: C_4  and  N_5
REMARK    5  A    between atoms: C_8  and  C_10
REMARK    6  A    between atoms: C_19  and  N_60
REMARK    7  A    between atoms: C_23  and  N_60
REMARK                            x       y       z     vdW  Elec       q    Type
REMARK                         _______ _______ _______ _____ _____    ______ ____
ROOT
ATOM      1  N   UNL     1      -3.350  -1.204   0.263  0.00  0.00    -0.267 N 
ATOM      2  C   UNL     1      -2.729  -2.393   0.316  0.00  0.00    +0.043 A 
ATOM      3  C   UNL     1      -1.397  -2.155   0.228  0.00  0.00    +0.004 A 
ATOM      4  C   UNL     1      -1.261  -0.760   0.121  0.00  0.00    +0.151 A 
ATOM      5  N   UNL     1      -2.483  -0.257   0.155  0.00  0.00    -0.166 NA
ATOM      6  C   UNL     1      -0.336  -3.220   0.244  0.00  0.00    +0.023 C 
ATOM      7  C   UNL     1      -1.006  -4.572  -0.036  0.00  0.00    -0.067 C 
ATOM      8  C   UNL     1      -2.222  -4.739   0.880  0.00  0.00    -0.009 C 
ATOM      9  C   UNL     1      -3.329  -3.769   0.449  0.00  0.00    +0.054 C 
ENDROOT
BRANCH   4  10
ATOM     10  C   UNL     1       0.002  -0.004   0.002  0.00  0.00    +0.267 C 
ATOM     11  O   UNL     1       1.068  -0.581   0.103  0.00  0.00    -0.268 OA
ATOM     12  N   UNL     1      -0.027   1.325  -0.219  0.00  0.00    -0.292 N 
ATOM     13  C   UNL     1       1.208   2.124  -0.192  0.00  0.00    +0.136 C 
ATOM     14  C   UNL     1       1.260   2.969  -1.476  0.00  0.00    +0.179 C 
ATOM     15  O   UNL     1       0.037   3.696  -1.608  0.00  0.00    -0.377 OA
ATOM     16  C   UNL     1      -1.122   2.872  -1.751  0.00  0.00    +0.179 C 
ATOM     17  C   UNL     1      -1.295   2.021  -0.487  0.00  0.00    +0.136 C 
ENDBRANCH   4  10
BRANCH   7  18
ATOM     18  N   UNL     1      -0.039  -5.655   0.227  0.00  0.00    +0.383 N 
ATOM     19  H   UNL     1      -0.054  -5.886   1.227  0.00  0.00    -0.085 HD
ATOM     20  H   UNL     1       0.902  -5.340  -0.038  0.00  0.00    -0.085 HD
BRANCH  18  21
ATOM     21  C   UNL     1      -0.390  -6.855  -0.556  0.00  0.00    -0.071 C 
ATOM     22  C   UNL     1      -1.381  -7.732   0.236  0.00  0.00    -0.016 C 
ATOM     23  C   UNL     1      -0.947  -9.183  -0.088  0.00  0.00    -0.002 C 
ATOM     24  C   UNL     1       0.598  -9.078  -0.124  0.00  0.00    -0.002 C 
ATOM     25  C   UNL     1       0.869  -7.711  -0.785  0.00  0.00    -0.016 C 
ENDBRANCH  18  21
ENDBRANCH   7  18
BRANCH   1  26
ATOM     26  C   UNL     1      -4.801  -1.010   0.323  0.00  0.00    +0.146 C 
BRANCH  26  28
ATOM     27  C   UNL     1      -4.629   0.448   2.345  0.00  0.00    +0.009 C 
ATOM     28  C   UNL     1      -5.233  -0.840   1.781  0.00  0.00    +0.004 C 
ATOM     29  C   UNL     1      -6.759  -0.763   1.856  0.00  0.00    +0.009 C 
ENDBRANCH  26  28
ENDBRANCH   1  26
TORSDOF 5
