REMARK  Name = ZINC29900421
REMARK  5 active torsions:
REMARK  status: ('A' for Active; 'I' for Inactive)
REMARK    1  A    between atoms: C_1  and  C_2
REMARK    2  A    between atoms: C_5  and  C_7
REMARK    3  A    between atoms: N_9  and  C_10
REMARK    4  A    between atoms: C_10  and  C_12
REMARK    5  A    between atoms: C_10  and  C_13
REMARK                            x       y       z     vdW  Elec       q    Type
REMARK                         _______ _______ _______ _____ _____    ______ ____
ROOT
ATOM      1  C   UNL     1       3.902  -4.161  -0.041  0.00  0.00    +0.138 C 
ATOM      2  C   UNL     1       4.114  -4.631  -1.481  0.00  0.00    +0.036 C 
ENDROOT
BRANCH   1   3
ATOM      3  C   UNL     1       5.225  -3.755   0.555  0.00  0.00    +0.154 A 
ATOM      4  N   UNL     1       5.885  -2.655   0.302  0.00  0.00    -0.132 NA
ATOM      5  N   UNL     1       6.971  -2.633   0.994  0.00  0.00    -0.134 NA
ATOM      6  C   UNL     1       7.049  -3.712   1.719  0.00  0.00    +0.134 A 
ATOM      7  N   UNL     1       5.948  -4.455   1.456  0.00  0.00    -0.313 N 
ATOM      8  C   UNL     1       5.625  -5.764   2.026  0.00  0.00    +0.125 C 
ATOM      9  C   UNL     1       6.261  -5.885   3.413  0.00  0.00    +0.022 C 
ATOM     10  C   UNL     1       7.671  -6.460   3.285  0.00  0.00    +0.002 C 
ATOM     11  C   UNL     1       8.552  -5.535   2.451  0.00  0.00    +0.008 C 
ATOM     12  C   UNL     1       8.143  -4.083   2.686  0.00  0.00    +0.076 C 
ENDBRANCH   1   3
BRANCH   1  15
ATOM     13  C   UNL     1       1.656  -3.216  -0.025  0.00  0.00    +0.280 C 
ATOM     14  O   UNL     1       1.211  -4.349  -0.028  0.00  0.00    -0.267 OA
ATOM     15  N   UNL     1       2.989  -3.016  -0.030  0.00  0.00    -0.299 N 
ATOM     16  H   UNL     1       3.343  -2.113  -0.027  0.00  0.00    +0.150 HD
BRANCH  13  21
ATOM     17  C   UNL     1      -0.018   1.503   0.010  0.00  0.00    +0.086 C 
ATOM     18  C   UNL     1       0.002  -0.004   0.002  0.00  0.00    +0.103 A 
ATOM     19  C   UNL     1      -1.086  -0.806   0.003  0.00  0.00    +0.045 A 
ATOM     20  C   UNL     1      -0.622  -2.131  -0.007  0.00  0.00    +0.055 A 
ATOM     21  C   UNL     1       0.742  -2.070  -0.014  0.00  0.00    +0.189 A 
ATOM     22  O   UNL     1       1.101  -0.769  -0.013  0.00  0.00    -0.455 OA
ENDBRANCH  13  21
ENDBRANCH   1  15
TORSDOF 3
