REMARK  Name = ZINC34933444
REMARK  6 active torsions:
REMARK  status: ('A' for Active; 'I' for Inactive)
REMARK    1  A    between atoms: C_8  and  C_10
REMARK    2  A    between atoms: N_12  and  C_13
REMARK    3  A    between atoms: C_13  and  N_15
REMARK    4  A    between atoms: N_15  and  C_16
REMARK    5  A    between atoms: C_18  and  N_23
REMARK    6  A    between atoms: C_21  and  O_22
REMARK                            x       y       z     vdW  Elec       q    Type
REMARK                         _______ _______ _______ _____ _____    ______ ____
ROOT
ATOM      1  C   UNL     1       4.863  -5.578   0.171  0.00  0.00    +0.141 C 
ATOM      2  S   UNL     1       3.713  -6.800   0.510  0.00  0.00    -0.018 S 
ENDROOT
BRANCH   1   5
ATOM      3  C   UNL     1       3.208  -3.951   0.425  0.00  0.00    +0.258 C 
ATOM      4  O   UNL     1       2.391  -4.819   0.666  0.00  0.00    -0.269 OA
ATOM      5  N   UNL     1       4.488  -4.283   0.165  0.00  0.00    -0.263 N 
ATOM      6  H   UNL     1       5.140  -3.591  -0.027  0.00  0.00    +0.157 HD
BRANCH   3  14
ATOM      7  C   UNL     1       0.176   1.468   0.724  0.00  0.00    +0.001 A 
ATOM      8  C   UNL     1       1.327   2.186   0.420  0.00  0.00    +0.001 A 
ATOM      9  C   UNL     1       2.511   1.512   0.205  0.00  0.00    +0.016 A 
ATOM     10  C   UNL     1       2.536   0.136   0.294  0.00  0.00    +0.021 A 
ATOM     11  C   UNL     1       1.380  -0.620   0.601  0.00  0.00    +0.008 A 
ATOM     12  C   UNL     1       0.185   0.114   0.814  0.00  0.00    +0.010 A 
ATOM     13  C   UNL     1       1.568  -2.014   0.655  0.00  0.00    +0.068 A 
ATOM     14  C   UNL     1       2.801  -2.542   0.418  0.00  0.00    +0.094 A 
ATOM     15  S   UNL     1       3.798  -1.097   0.099  0.00  0.00    -0.082 S 
ATOM     16 CL   UNL     1       0.231  -3.058   1.022  0.00  0.00    -0.082 Cl
ENDBRANCH   3  14
ENDBRANCH   1   5
BRANCH   1  17
ATOM     17  N   UNL     1       6.143  -5.910  -0.089  0.00  0.00    -0.294 N 
ATOM     18  H   UNL     1       6.780  -5.224  -0.342  0.00  0.00    +0.154 HD
BRANCH  17  19
ATOM     19  C   UNL     1       6.553  -7.247   0.006  0.00  0.00    +0.077 A 
ATOM     20  C   UNL     1       5.796  -8.250  -0.582  0.00  0.00    +0.059 A 
ATOM     21  C   UNL     1       6.203  -9.567  -0.486  0.00  0.00    +0.128 A 
ATOM     22  C   UNL     1       7.362  -9.889   0.194  0.00  0.00    +0.036 A 
ATOM     23  C   UNL     1       8.122  -8.895   0.782  0.00  0.00    +0.049 A 
ATOM     24  C   UNL     1       7.724  -7.571   0.686  0.00  0.00    +0.138 A 
BRANCH  21  25
ATOM     25  N   UNL     1       5.394 -10.637  -1.114  0.00  0.00    +0.056 N 
ATOM     26  O   UNL     1       4.379 -10.357  -1.709  0.00  0.00    -0.126 OA
ATOM     27  O   UNL     1       5.748 -11.790  -1.032  0.00  0.00    -0.126 OA
ENDBRANCH  21  25
BRANCH  24  28
ATOM     28  O   UNL     1       8.473  -6.591   1.260  0.00  0.00    -0.505 OA
ATOM     29  H   UNL     1       8.231  -6.395   2.175  0.00  0.00    +0.292 HD
ENDBRANCH  24  28
ENDBRANCH  17  19
ENDBRANCH   1  17
TORSDOF 6
