REMARK  Name = ZINC00632173
REMARK  3 active torsions:
REMARK  status: ('A' for Active; 'I' for Inactive)
REMARK    1  A    between atoms: C_4  and  C_7
REMARK    2  A    between atoms: N_25  and  C_26
REMARK    3  A    between atoms: C_26  and  C_27
REMARK                            x       y       z     vdW  Elec       q    Type
REMARK                         _______ _______ _______ _____ _____    ______ ____
ROOT
ATOM      1  C   UNL     1      -1.087   1.900   0.017  0.00  0.00    +0.004 A 
ATOM      2  C   UNL     1      -0.013   1.076   0.008  0.00  0.00    +0.056 A 
ATOM      3  S   UNL     1       1.372   2.199   0.001  0.00  0.00    -0.076 S 
ATOM      4  C   UNL     1       0.486   3.736   0.017  0.00  0.00    +0.116 A 
ATOM      5  C   UNL     1      -0.867   3.343   0.027  0.00  0.00    +0.082 A 
ATOM      6  C   UNL     1      -1.822   4.399   0.041  0.00  0.00    +0.284 A 
ATOM      7  O   UNL     1      -3.016   4.146   0.051  0.00  0.00    -0.265 OA
ATOM      8  N   UNL     1      -1.401   5.681   0.043  0.00  0.00    -0.175 N 
ATOM      9  C   UNL     1      -0.065   5.971   0.033  0.00  0.00    +0.167 A 
ATOM     10  N   UNL     1       0.842   5.009   0.020  0.00  0.00    -0.220 NA
ATOM     11  C   UNL     1       0.362   7.377   0.035  0.00  0.00    +0.030 A 
ATOM     12  C   UNL     1       1.709   7.737   0.023  0.00  0.00    +0.012 A 
ATOM     13  C   UNL     1       2.056   9.070   0.025  0.00  0.00    +0.001 A 
ATOM     14  C   UNL     1       1.078  10.056   0.038  0.00  0.00    +0.001 A 
ATOM     15  C   UNL     1      -0.259   9.723   0.050  0.00  0.00    +0.012 A 
ATOM     16  C   UNL     1      -0.632   8.379   0.048  0.00  0.00    +0.027 A 
ATOM     17  C   UNL     1      -2.042   7.969   0.060  0.00  0.00    +0.148 A 
ATOM     18  N   UNL     1      -2.358   6.704   0.057  0.00  0.00    -0.146 NA
ATOM     19  N   UNL     1      -3.042   8.931   0.074  0.00  0.00    -0.325 N 
ATOM     20  H   UNL     1      -2.809   9.872   0.076  0.00  0.00    +0.148 HD
ENDROOT
BRANCH   1  24
ATOM     21  C   UNL     1      -5.031   0.314   0.023  0.00  0.00    +0.000 A 
ATOM     22  C   UNL     1      -4.107  -0.140  -0.902  0.00  0.00    +0.001 A 
ATOM     23  C   UNL     1      -2.825   0.371  -0.908  0.00  0.00    +0.008 A 
ATOM     24  C   UNL     1      -2.462   1.347   0.019  0.00  0.00    -0.017 A 
ATOM     25  C   UNL     1      -3.396   1.796   0.952  0.00  0.00    +0.008 A 
ATOM     26  C   UNL     1      -4.676   1.282   0.945  0.00  0.00    +0.001 A 
ENDBRANCH   1  24
BRANCH  19  27
ATOM     27  C   UNL     1      -4.450   8.524   0.085  0.00  0.00    +0.134 C 
BRANCH  27  28
ATOM     28  C   UNL     1      -5.340   9.768   0.099  0.00  0.00    +0.135 C 
ATOM     29  C   UNL     1      -6.825   9.365   0.237  0.00  0.00    +0.035 C 
ATOM     30  C   UNL     1      -7.573  10.377  -0.660  0.00  0.00    +0.031 C 
ATOM     31  C   UNL     1      -6.452  11.271  -1.233  0.00  0.00    +0.160 C 
ATOM     32  O   UNL     1      -5.261  10.457  -1.168  0.00  0.00    -0.375 OA
ENDBRANCH  27  28
ENDBRANCH  19  27
TORSDOF 3
