REMARK  Name = ZINC63314347
REMARK  12 active torsions:
REMARK  status: ('A' for Active; 'I' for Inactive)
REMARK    1  A    between atoms: C_1  and  C_2
REMARK    2  A    between atoms: C_2  and  O_3
REMARK    3  A    between atoms: O_3  and  C_4
REMARK    4  A    between atoms: C_9  and  S_14
REMARK    5  A    between atoms: S_14  and  C_15
REMARK    6  A    between atoms: C_15  and  C_16
REMARK    7  A    between atoms: C_17  and  C_32
REMARK    8  A    between atoms: C_18  and  C_24
REMARK    9  A    between atoms: C_26  and  C_31
REMARK   10  A    between atoms: C_29  and  C_30
REMARK   11  A    between atoms: C_32  and  O_34
REMARK   12  A    between atoms: O_34  and  C_35
REMARK                            x       y       z     vdW  Elec       q    Type
REMARK                         _______ _______ _______ _____ _____    ______ ____
ROOT
ATOM      1  C   UNL     1      -2.035  -6.693   5.554  0.00  0.00    +0.034 C 
ATOM      2  C   UNL     1      -1.877  -5.974   6.686  0.00  0.00    +0.079 C 
ATOM      3  C   UNL     1      -2.483  -6.524   7.961  0.00  0.00    +0.144 C 
ATOM      4  N   UNL     1      -3.199  -7.807   7.861  0.00  0.00    -0.288 N 
ATOM      5  C   UNL     1      -3.272  -8.408   6.656  0.00  0.00    +0.304 C 
ATOM      6  O   UNL     1      -3.861  -9.467   6.563  0.00  0.00    -0.252 OA
ATOM      7  N   UNL     1      -2.722  -7.873   5.559  0.00  0.00    -0.272 N 
ATOM      8  H   UNL     1      -3.608  -8.210   8.642  0.00  0.00    +0.151 HD
ATOM      9  H   UNL     1      -2.813  -8.353   4.721  0.00  0.00    +0.156 HD
ENDROOT
BRANCH   3  10
ATOM     10  C   UNL     1      -3.445  -5.497   8.499  0.00  0.00    -0.019 A 
ATOM     11  C   UNL     1      -4.779  -5.543   8.137  0.00  0.00    +0.009 A 
ATOM     12  C   UNL     1      -5.661  -4.600   8.631  0.00  0.00    -0.050 A 
ATOM     13  C   UNL     1      -5.211  -3.612   9.487  0.00  0.00    +0.003 A 
ATOM     14  C   UNL     1      -3.878  -3.567   9.849  0.00  0.00    +0.004 A 
ATOM     15  C   UNL     1      -2.996  -4.513   9.359  0.00  0.00    -0.045 A 
ATOM     16  C   UNL     1      -1.543  -4.467   9.759  0.00  0.00    +0.044 C 
ATOM     17  C   UNL     1      -7.115  -4.649   8.236  0.00  0.00    +0.044 C 
ENDBRANCH   3  10
BRANCH   2  18
ATOM     18  C   UNL     1      -1.170  -4.749   6.682  0.00  0.00    +0.339 C 
ATOM     19  O   UNL     1      -0.010  -4.715   7.048  0.00  0.00    -0.245 OA
BRANCH  18  20
ATOM     20  O   UNL     1      -1.781  -3.619   6.271  0.00  0.00    -0.465 OA
ATOM     21  C   UNL     1      -0.986  -2.432   6.222  0.00  0.00    +0.280 C 
ENDBRANCH  18  20
ENDBRANCH   2  18
BRANCH   1  22
ATOM     22  C   UNL     1      -1.448  -6.183   4.263  0.00  0.00    +0.124 C 
BRANCH  22  23
ATOM     23  S   UNL     1       0.045  -7.131   3.861  0.00  0.00    -0.109 S 
BRANCH  23  29
ATOM     24  C   UNL     1      -1.022  -2.503   0.483  0.00  0.00    +0.123 A 
ATOM     25  C   UNL     1      -1.828  -3.462  -0.261  0.00  0.00    +0.048 A 
ATOM     26  C   UNL     1      -1.707  -4.790  -0.073  0.00  0.00    +0.031 A 
ATOM     27  C   UNL     1      -0.738  -5.303   0.907  0.00  0.00    +0.061 A 
ATOM     28  N   UNL     1      -0.425  -6.511   1.278  0.00  0.00    -0.355 N 
ATOM     29  C   UNL     1       0.621  -6.402   2.303  0.00  0.00    +0.236 C 
ATOM     30  N   UNL     1       0.878  -4.968   2.481  0.00  0.00    -0.355 N 
ATOM     31  C   UNL     1       0.086  -4.325   1.667  0.00  0.00    +0.064 A 
ATOM     32  C   UNL     1      -0.104  -2.898   1.398  0.00  0.00    +0.073 A 
ATOM     33  H   UNL     1      -0.813  -7.334   0.940  0.00  0.00    +0.162 HD
ATOM     34  H   UNL     1       1.519  -4.571   3.091  0.00  0.00    +0.162 HD
BRANCH  24  35
ATOM     35  O   UNL     1      -1.192  -1.178   0.248  0.00  0.00    -0.492 OA
BRANCH  35  37
ATOM     36  C   UNL     1      -2.219   0.713  -0.853  0.00  0.00    +0.048 C 
ATOM     37  C   UNL     1      -2.171  -0.811  -0.726  0.00  0.00    +0.225 C 
ENDBRANCH  35  37
ENDBRANCH  24  35
ENDBRANCH  23  29
ENDBRANCH  22  23
ENDBRANCH   1  22
TORSDOF 8
