REMARK  Name = ZINC21247624
REMARK  9 active torsions:
REMARK  status: ('A' for Active; 'I' for Inactive)
REMARK    1  A    between atoms: C_1  and  C_2
REMARK    2  A    between atoms: C_3  and  C_7
REMARK    3  A    between atoms: C_10  and  S_13
REMARK    4  A    between atoms: N_11  and  N_12
REMARK    5  A    between atoms: S_13  and  C_14
REMARK    6  A    between atoms: C_14  and  C_16
REMARK    7  A    between atoms: C_14  and  C_17
REMARK    8  A    between atoms: N_19  and  C_20
REMARK    9  A    between atoms: C_25  and  C_26
REMARK                            x       y       z     vdW  Elec       q    Type
REMARK                         _______ _______ _______ _____ _____    ______ ____
ROOT
ATOM      1  C   UNL     1      -5.224   4.988   0.043  0.00  0.00    +0.137 C 
ATOM      2  C   UNL     1      -4.657   5.554   1.347  0.00  0.00    +0.029 C 
ENDROOT
BRANCH   1   3
ATOM      3  C   UNL     1      -6.687   5.334  -0.061  0.00  0.00    +0.230 C 
ATOM      4  O   UNL     1      -7.526   4.540   0.310  0.00  0.00    -0.274 OA
ATOM      5  N   UNL     1      -7.063   6.526  -0.566  0.00  0.00    -0.284 N 
ATOM      6  H   UNL     1      -6.304   7.281  -0.817  0.00  0.00    +0.155 HD
BRANCH   5   7
ATOM      7  C   UNL     1      -8.418   6.802  -0.769  0.00  0.00    +0.041 A 
ATOM      8  C   UNL     1      -9.319   5.765  -0.959  0.00  0.00    +0.024 A 
ATOM      9  C   UNL     1     -10.659   6.040  -1.155  0.00  0.00    +0.002 A 
ATOM     10  C   UNL     1     -11.108   7.349  -1.174  0.00  0.00    +0.001 A 
ATOM     11  C   UNL     1     -10.222   8.391  -0.993  0.00  0.00    +0.010 A 
ATOM     12  C   UNL     1      -8.870   8.126  -0.789  0.00  0.00    +0.003 A 
BRANCH  12  13
ATOM     13  C   UNL     1      -7.913   9.243  -0.593  0.00  0.00    -0.016 A 
ATOM     14  C   UNL     1      -7.031   9.227   0.486  0.00  0.00    +0.008 A 
ATOM     15  C   UNL     1      -6.139  10.266   0.660  0.00  0.00    +0.001 A 
ATOM     16  C   UNL     1      -6.128  11.327  -0.227  0.00  0.00    +0.000 A 
ATOM     17  C   UNL     1      -7.005  11.351  -1.296  0.00  0.00    +0.001 A 
ATOM     18  C   UNL     1      -7.897  10.315  -1.484  0.00  0.00    +0.008 A 
ENDBRANCH  12  13
ENDBRANCH   5   7
ENDBRANCH   1   3
BRANCH   1  19
ATOM     19  S   UNL     1      -5.028   3.189   0.031  0.00  0.00    -0.072 S 
BRANCH  19  23
ATOM     20  C   UNL     1      -1.217   2.324  -0.022  0.00  0.00    +0.185 A 
ATOM     21  N   UNL     1      -1.216   3.636  -0.010  0.00  0.00    -0.127 NA
ATOM     22  N   UNL     1      -2.423   4.077   0.003  0.00  0.00    -0.121 NA
ATOM     23  C   UNL     1      -3.269   3.073   0.009  0.00  0.00    +0.209 A 
ATOM     24  N   UNL     1      -2.533   1.921  -0.007  0.00  0.00    -0.224 N 
BRANCH  20  27
ATOM     25  C   UNL     1       1.778   3.246  -0.063  0.00  0.00    +0.087 C 
ATOM     26  C   UNL     1       1.276   1.825  -0.061  0.00  0.00    +0.112 A 
ATOM     27  C   UNL     1      -0.029   1.443  -0.041  0.00  0.00    +0.061 A 
ATOM     28  C   UNL     1      -0.014  -0.025  -0.049  0.00  0.00    +0.053 A 
ATOM     29  C   UNL     1       1.281  -0.382  -0.073  0.00  0.00    +0.196 A 
ATOM     30  O   UNL     1       2.040   0.724  -0.080  0.00  0.00    -0.467 OA
ENDBRANCH  20  27
BRANCH  24  31
ATOM     31  N   UNL     1      -3.004   0.639  -0.008  0.00  0.00    -0.295 N 
ATOM     32  H   UNL     1      -4.088   0.452   0.005  0.00  0.00    +0.163 HD
ATOM     33  H   UNL     1      -2.300  -0.206  -0.022  0.00  0.00    +0.163 HD
ENDBRANCH  24  31
ENDBRANCH  19  23
ENDBRANCH   1  19
TORSDOF 7
