REMARK  Name = ZINC10002826
REMARK  11 active torsions:
REMARK  status: ('A' for Active; 'I' for Inactive)
REMARK    1  A    between atoms: C_1  and  C_2
REMARK    2  A    between atoms: C_2  and  C_3
REMARK    3  A    between atoms: C_2  and  C_4
REMARK    4  A    between atoms: C_4  and  C_6
REMARK    5  A    between atoms: C_4  and  N_27
REMARK    6  A    between atoms: N_8  and  N_9
REMARK    7  A    between atoms: C_10  and  C_11
REMARK    8  A    between atoms: C_16  and  O_17
REMARK    9  A    between atoms: O_17  and  C_18
REMARK   10  A    between atoms: C_18  and  C_19
REMARK   11  A    between atoms: C_28  and  C_30
REMARK                            x       y       z     vdW  Elec       q    Type
REMARK                         _______ _______ _______ _____ _____    ______ ____
ROOT
ATOM      1  C   UNL     1       0.821   3.811  -0.182  0.00  0.00    +0.253 C 
ATOM      2  O   UNL     1      -0.299   4.218   0.044  0.00  0.00    -0.272 OA
ATOM      3  N   UNL     1       1.891   4.543   0.186  0.00  0.00    -0.205 N 
ATOM      4  H   UNL     1       2.786   4.191   0.058  0.00  0.00    +0.177 HD
ENDROOT
BRANCH   3   5
ATOM      5  N   UNL     1       1.711   5.810   0.755  0.00  0.00    -0.188 NA
ATOM      6  C   UNL     1       2.740   6.563   1.000  0.00  0.00    +0.142 C 
BRANCH   6   7
ATOM      7  C   UNL     1       2.565   7.836   1.722  0.00  0.00    +0.038 A 
ATOM      8  C   UNL     1       3.646   8.706   1.884  0.00  0.00    +0.033 A 
ATOM      9  C   UNL     1       3.476   9.896   2.560  0.00  0.00    +0.042 A 
ATOM     10  C   UNL     1       2.236  10.233   3.080  0.00  0.00    +0.023 A 
ATOM     11  C   UNL     1       1.159   9.381   2.925  0.00  0.00    +0.048 A 
ATOM     12  C   UNL     1       1.312   8.184   2.245  0.00  0.00    +0.130 A 
ATOM     13 CL   UNL     1       4.820  10.977   2.762  0.00  0.00    -0.084 Cl
BRANCH  12  14
ATOM     14  O   UNL     1       0.253   7.348   2.089  0.00  0.00    -0.487 OA
BRANCH  14  15
ATOM     15  C   UNL     1      -1.020   7.823   2.533  0.00  0.00    +0.266 C 
BRANCH  15  16
ATOM     16  C   UNL     1      -2.023   6.701   2.475  0.00  0.00    +0.008 A 
ATOM     17  C   UNL     1      -1.607   5.416   2.181  0.00  0.00    +0.008 A 
ATOM     18  C   UNL     1      -2.527   4.385   2.132  0.00  0.00    +0.000 A 
ATOM     19  C   UNL     1      -3.865   4.641   2.368  0.00  0.00    +0.001 A 
ATOM     20  C   UNL     1      -4.283   5.926   2.657  0.00  0.00    +0.020 A 
ATOM     21  C   UNL     1      -3.362   6.957   2.711  0.00  0.00    +0.047 A 
ATOM     22 CL   UNL     1      -3.886   8.572   3.074  0.00  0.00    -0.083 Cl
ENDBRANCH  15  16
ENDBRANCH  14  15
ENDBRANCH  12  14
ENDBRANCH   6   7
ENDBRANCH   3   5
BRANCH   1  23
ATOM     23  C   UNL     1       1.016   2.487  -0.876  0.00  0.00    +0.163 C 
BRANCH  23  24
ATOM     24  N   UNL     1      -0.291   1.893  -1.170  0.00  0.00    -0.300 N 
ATOM     25  C   UNL     1      -0.408   0.558  -1.309  0.00  0.00    +0.245 C 
ATOM     26  O   UNL     1       0.570  -0.154  -1.191  0.00  0.00    -0.270 OA
ATOM     27  H   UNL     1      -1.071   2.462  -1.268  0.00  0.00    +0.150 HD
BRANCH  25  28
ATOM     28  C   UNL     1      -1.726  -0.042  -1.606  0.00  0.00    +0.037 A 
ATOM     29  C   UNL     1      -2.853   0.772  -1.736  0.00  0.00    +0.013 A 
ATOM     30  C   UNL     1      -4.080   0.207  -2.018  0.00  0.00    +0.001 A 
ATOM     31  C   UNL     1      -4.196  -1.165  -2.161  0.00  0.00    +0.000 A 
ATOM     32  C   UNL     1      -3.085  -1.977  -2.027  0.00  0.00    +0.001 A 
ATOM     33  C   UNL     1      -1.851  -1.424  -1.750  0.00  0.00    +0.013 A 
ENDBRANCH  25  28
ENDBRANCH  23  24
BRANCH  23  35
ATOM     34  C   UNL     1       1.980   1.360  -2.886  0.00  0.00    +0.009 C 
ATOM     35  C   UNL     1       1.783   2.704  -2.182  0.00  0.00    +0.012 C 
ATOM     36  C   UNL     1       0.988   3.644  -3.091  0.00  0.00    +0.009 C 
ENDBRANCH  23  35
ENDBRANCH   1  23
TORSDOF 9
