REMARK  Name = ZINC35087259
REMARK  12 active torsions:
REMARK  status: ('A' for Active; 'I' for Inactive)
REMARK    1  A    between atoms: C_1  and  C_2
REMARK    2  A    between atoms: C_2  and  N_3
REMARK    3  A    between atoms: N_3  and  C_4
REMARK    4  A    between atoms: N_3  and  C_6
REMARK    5  A    between atoms: C_4  and  C_5
REMARK    6  A    between atoms: C_6  and  C_7
REMARK    7  A    between atoms: C_7  and  S_8
REMARK    8  A    between atoms: S_8  and  C_9
REMARK    9  A    between atoms: C_10  and  C_26
REMARK   10  A    between atoms: C_11  and  C_18
REMARK   11  A    between atoms: C_12  and  C_16
REMARK   12  A    between atoms: C_13  and  N_15
REMARK                            x       y       z     vdW  Elec       q    Type
REMARK                         _______ _______ _______ _____ _____    ______ ____
ROOT
ATOM      1  C   UNL     1       3.380  -3.975  -1.850  0.00  0.00    +0.117 A 
ATOM      2  C   UNL     1       3.874  -5.223  -2.274  0.00  0.00    +0.093 A 
ATOM      3  C   UNL     1       4.644  -5.287  -3.452  0.00  0.00    +0.024 A 
ATOM      4  C   UNL     1       4.883  -4.088  -4.153  0.00  0.00    +0.100 A 
ATOM      5  C   UNL     1       4.348  -2.887  -3.653  0.00  0.00    +0.136 A 
ATOM      6  N   UNL     1       3.626  -2.874  -2.544  0.00  0.00    -0.224 NA
ENDROOT
BRANCH   3   7
ATOM      7  C   UNL     1       5.185  -6.574  -3.939  0.00  0.00    +0.005 A 
ATOM      8  C   UNL     1       4.441  -7.360  -4.820  0.00  0.00    +0.010 A 
ATOM      9  C   UNL     1       4.951  -8.559  -5.270  0.00  0.00    +0.002 A 
ATOM     10  C   UNL     1       6.198  -8.987  -4.851  0.00  0.00    +0.021 A 
ATOM     11  C   UNL     1       6.943  -8.214  -3.977  0.00  0.00    +0.060 A 
ATOM     12  C   UNL     1       6.446  -7.006  -3.523  0.00  0.00    +0.067 A 
ATOM     13 CL   UNL     1       7.384  -6.034  -2.433  0.00  0.00    -0.081 Cl
ATOM     14 CL   UNL     1       8.507  -8.759  -3.455  0.00  0.00    -0.082 Cl
ENDBRANCH   3   7
BRANCH   5  15
ATOM     15  N   UNL     1       4.576  -1.706  -4.330  0.00  0.00    -0.342 N 
ATOM     16  H   UNL     1       5.101  -1.708  -5.146  0.00  0.00    +0.144 HD
ATOM     17  H   UNL     1       4.210  -0.874  -3.991  0.00  0.00    +0.144 HD
ENDBRANCH   5  15
BRANCH   4  18
ATOM     18  C   UNL     1       5.659  -4.092  -5.357  0.00  0.00    +0.103 C 
ATOM     19  N   UNL     1       6.275  -4.095  -6.311  0.00  0.00    -0.191 NA
ENDBRANCH   4  18
BRANCH   2  20
ATOM     20  C   UNL     1       3.599  -6.409  -1.520  0.00  0.00    +0.102 C 
ATOM     21  N   UNL     1       3.381  -7.349  -0.922  0.00  0.00    -0.191 NA
ENDBRANCH   2  20
BRANCH   1  22
ATOM     22  S   UNL     1       2.415  -3.877  -0.379  0.00  0.00    -0.106 S 
BRANCH  22  23
ATOM     23  C   UNL     1       2.004  -2.115  -0.240  0.00  0.00    +0.057 C 
BRANCH  23  24
ATOM     24  C   UNL     1       1.156  -1.887   1.013  0.00  0.00    -0.068 C 
BRANCH  24  25
ATOM     25  N   UNL     1       0.823  -0.461   1.126  0.00  0.00    +0.380 N 
ATOM     26  H   UNL     1       1.671   0.085   1.109  0.00  0.00    -0.082 HD
BRANCH  25  28
ATOM     27  C   UNL     1      -0.264   1.445   0.037  0.00  0.00    -0.017 C 
ATOM     28  C   UNL     1      -0.034  -0.067  -0.001  0.00  0.00    -0.082 C 
ENDBRANCH  25  28
BRANCH  25  29
ATOM     29  C   UNL     1       0.111  -0.222   2.389  0.00  0.00    -0.082 C 
ATOM     30  C   UNL     1       1.053  -0.495   3.563  0.00  0.00    -0.017 C 
ENDBRANCH  25  29
ENDBRANCH  24  25
ENDBRANCH  23  24
ENDBRANCH  22  23
ENDBRANCH   1  22
TORSDOF 10
