REMARK  Name = ZINC08709970
REMARK  4 active torsions:
REMARK  status: ('A' for Active; 'I' for Inactive)
REMARK    1  A    between atoms: C_1  and  C_2
REMARK    2  A    between atoms: C_2  and  C_4
REMARK    3  A    between atoms: C_2  and  S_16
REMARK    4  A    between atoms: S_16  and  C_17
REMARK                            x       y       z     vdW  Elec       q    Type
REMARK                         _______ _______ _______ _____ _____    ______ ____
ROOT
ATOM      1  C   UNL     1       0.889  -2.671  -1.458  0.00  0.00    +0.027 C 
ATOM      2  C   UNL     1       1.050  -2.175  -0.020  0.00  0.00    +0.117 C 
ENDROOT
BRANCH   2   3
ATOM      3  C   UNL     1       1.117  -0.670  -0.012  0.00  0.00    +0.124 A 
ATOM      4  N   UNL     1       2.340  -0.078  -0.020  0.00  0.00    -0.309 N 
ATOM      5  H   UNL     1       3.139  -0.628  -0.031  0.00  0.00    +0.170 HD
ATOM      6  C   UNL     1       2.453   1.270  -0.014  0.00  0.00    +0.259 A 
ATOM      7  O   UNL     1       3.543   1.813  -0.021  0.00  0.00    -0.267 OA
ATOM      8  C   UNL     1       1.209   2.054   0.002  0.00  0.00    +0.065 A 
ATOM      9  C   UNL     1       1.216   3.447   0.009  0.00  0.00    +0.015 A 
ATOM     10  C   UNL     1       0.021   4.132   0.025  0.00  0.00    +0.001 A 
ATOM     11  C   UNL     1      -1.187   3.445   0.032  0.00  0.00    +0.002 A 
ATOM     12  C   UNL     1      -1.215   2.069   0.030  0.00  0.00    +0.028 A 
ATOM     13  C   UNL     1      -0.016   1.352   0.009  0.00  0.00    +0.078 A 
ATOM     14  N   UNL     1       0.002  -0.004   0.002  0.00  0.00    -0.233 NA
ENDBRANCH   2   3
BRANCH   2  15
ATOM     15  S   UNL     1      -0.363  -2.722   0.970  0.00  0.00    -0.077 S 
BRANCH  15  16
ATOM     16  C   UNL     1      -0.118  -4.466   0.917  0.00  0.00    +0.170 A 
ATOM     17  N   UNL     1      -0.919  -5.390   1.524  0.00  0.00    -0.332 N 
ATOM     18  H   UNL     1      -1.735  -5.201   2.071  0.00  0.00    +0.168 HD
ATOM     19  C   UNL     1      -0.390  -6.638   1.241  0.00  0.00    +0.087 A 
ATOM     20  C   UNL     1      -0.749  -7.936   1.567  0.00  0.00    +0.051 A 
ATOM     21  C   UNL     1       0.044  -8.974   1.099  0.00  0.00    +0.061 A 
ATOM     22  C   UNL     1       1.159  -8.684   0.329  0.00  0.00    +0.133 A 
ATOM     23  N   UNL     1       1.482  -7.443   0.030  0.00  0.00    -0.233 NA
ATOM     24  C   UNL     1       0.754  -6.412   0.455  0.00  0.00    +0.179 A 
ATOM     25  N   UNL     1       0.865  -5.070   0.293  0.00  0.00    -0.202 NA
ATOM     26 CL   UNL     1      -0.357 -10.620   1.474  0.00  0.00    -0.082 Cl
ENDBRANCH  15  16
ENDBRANCH   2  15
TORSDOF 3
