REMARK  Name = ZINC38788091
REMARK  5 active torsions:
REMARK  status: ('A' for Active; 'I' for Inactive)
REMARK    1  A    between atoms: C_1  and  C_2
REMARK    2  A    between atoms: C_11  and  C_14
REMARK    3  A    between atoms: C_17  and  N_20
REMARK    4  A    between atoms: C_21  and  C_23
REMARK    5  A    between atoms: C_23  and  C_24
REMARK                            x       y       z     vdW  Elec       q    Type
REMARK                         _______ _______ _______ _____ _____    ______ ____
ROOT
ATOM      1  C   UNL     1       5.350  -6.328   0.244  0.00  0.00    +0.002 A 
ATOM      2  C   UNL     1       6.101  -6.579  -0.904  0.00  0.00    +0.012 A 
ATOM      3  C   UNL     1       7.179  -7.435  -0.848  0.00  0.00    +0.024 A 
ATOM      4  C   UNL     1       7.519  -8.048   0.352  0.00  0.00    +0.033 A 
ATOM      5  C   UNL     1       6.772  -7.801   1.498  0.00  0.00    +0.024 A 
ATOM      6  C   UNL     1       5.696  -6.940   1.448  0.00  0.00    +0.012 A 
ENDROOT
BRANCH   1  17
ATOM      7  C   UNL     1      -0.598   0.999   0.885  0.00  0.00    +0.007 C 
ATOM      8  C   UNL     1      -0.476  -0.493   0.568  0.00  0.00    -0.011 C 
ATOM      9  C   UNL     1       0.436  -0.684  -0.646  0.00  0.00    +0.022 C 
ATOM     10  C   UNL     1       0.529  -2.175  -0.982  0.00  0.00    +0.107 C 
ATOM     11  N   UNL     1       0.962  -2.904   0.218  0.00  0.00    -0.314 N 
ATOM     12  C   UNL     1       0.208  -2.721   1.466  0.00  0.00    +0.107 C 
ATOM     13  C   UNL     1       0.119  -1.224   1.774  0.00  0.00    +0.022 C 
ATOM     14  C   UNL     1       2.064  -3.750   0.174  0.00  0.00    +0.144 A 
ATOM     15  C   UNL     1       2.750  -3.942  -1.026  0.00  0.00    +0.047 A 
ATOM     16  C   UNL     1       3.841  -4.792  -1.022  0.00  0.00    +0.033 A 
ATOM     17  C   UNL     1       4.189  -5.407   0.185  0.00  0.00    +0.093 A 
ATOM     18  N   UNL     1       3.478  -5.164   1.278  0.00  0.00    -0.147 NA
ATOM     19  N   UNL     1       2.469  -4.371   1.273  0.00  0.00    -0.134 NA
ENDBRANCH   1  17
BRANCH   4  20
ATOM     20  N   UNL     1       8.614  -8.917   0.407  0.00  0.00    -0.285 N 
ATOM     21  C   UNL     1       9.393  -8.950   1.506  0.00  0.00    +0.219 C 
ATOM     22  O   UNL     1       9.098  -8.288   2.479  0.00  0.00    -0.275 OA
ATOM     23  H   UNL     1       8.812  -9.495  -0.346  0.00  0.00    +0.155 HD
BRANCH  21  24
ATOM     24  C   UNL     1      10.631  -9.809   1.526  0.00  0.00    +0.122 C 
BRANCH  24  25
ATOM     25  C   UNL     1      11.403  -9.560   2.823  0.00  0.00    +0.112 C 
ATOM     26  C   UNL     1      11.800  -8.067   2.893  0.00  0.00    +0.103 C 
ATOM     27  S   UNL     1      13.407  -8.239   3.776  0.00  0.00    -0.086 S 
ATOM     28  C   UNL     1      13.736  -9.943   3.366  0.00  0.00    +0.172 A 
ATOM     29  N   UNL     1      12.574 -10.444   2.857  0.00  0.00    -0.283 N 
ATOM     30  C   UNL     1      12.602 -11.741   2.428  0.00  0.00    +0.258 A 
ATOM     31  O   UNL     1      11.605 -12.240   1.933  0.00  0.00    -0.267 OA
ATOM     32  C   UNL     1      13.774 -12.500   2.553  0.00  0.00    +0.038 A 
ATOM     33  C   UNL     1      14.887 -11.926   3.095  0.00  0.00    +0.052 A 
ATOM     34  N   UNL     1      14.830 -10.659   3.488  0.00  0.00    -0.228 NA
ATOM     35  C   UNL     1      16.021 -12.926   3.138  0.00  0.00    +0.056 C 
ATOM     36  C   UNL     1      15.349 -14.304   2.949  0.00  0.00    +0.011 C 
ATOM     37  C   UNL     1      14.066 -13.935   2.172  0.00  0.00    +0.043 C 
ENDBRANCH  24  25
ENDBRANCH  21  24
ENDBRANCH   4  20
TORSDOF 4
