REMARK  Name = ZINC55927644
REMARK  5 active torsions:
REMARK  status: ('A' for Active; 'I' for Inactive)
REMARK    1  A    between atoms: C_6  and  S_7
REMARK    2  A    between atoms: S_7  and  N_10
REMARK    3  A    between atoms: C_14  and  C_16
REMARK    4  A    between atoms: C_16  and  N_17
REMARK    5  A    between atoms: C_21  and  C_23
REMARK                            x       y       z     vdW  Elec       q    Type
REMARK                         _______ _______ _______ _____ _____    ______ ____
ROOT
ATOM      1  C   UNL     1      -0.417   2.159  -0.444  0.00  0.00    +0.030 A 
ATOM      2  C   UNL     1       0.833   2.736  -0.374  0.00  0.00    +0.026 A 
ATOM      3  C   UNL     1       1.974   1.935  -0.292  0.00  0.00    +0.040 A 
ATOM      4  C   UNL     1       1.829   0.557  -0.282  0.00  0.00    -0.023 A 
ATOM      5  C   UNL     1       0.574  -0.016  -0.352  0.00  0.00    +0.034 A 
ATOM      6  C   UNL     1      -0.551   0.783  -0.433  0.00  0.00    +0.105 A 
ATOM      7  C   UNL     1       3.202  -0.070  -0.187  0.00  0.00    +0.056 C 
ATOM      8  C   UNL     1       4.170   1.123  -0.143  0.00  0.00    +0.118 C 
ATOM      9  N   UNL     1       3.318   2.312  -0.213  0.00  0.00    -0.272 N 
ATOM     10  C   UNL     1       3.764   3.584  -0.203  0.00  0.00    +0.203 C 
ATOM     11  O   UNL     1       2.976   4.504  -0.264  0.00  0.00    -0.277 OA
ENDROOT
BRANCH   6  12
ATOM     12  S   UNL     1      -2.151   0.051  -0.523  0.00  0.00    +0.056 S 
ATOM     13  O   UNL     1      -2.038  -1.243   0.054  0.00  0.00    -0.153 OA
ATOM     14  O   UNL     1      -3.070   1.022  -0.042  0.00  0.00    -0.153 OA
BRANCH  12  15
ATOM     15  N   UNL     1      -2.497  -0.175  -2.126  0.00  0.00    -0.204 NA
ATOM     16  H   UNL     1      -1.854   0.089  -2.803  0.00  0.00    +0.144 HD
ATOM     17  H   UNL     1      -3.343  -0.571  -2.389  0.00  0.00    +0.144 HD
ENDBRANCH  12  15
ENDBRANCH   6  12
BRANCH  10  18
ATOM     18  C   UNL     1       5.242   3.863  -0.114  0.00  0.00    +0.019 C 
BRANCH  18  19
ATOM     19  N   UNL     1       5.468   5.315  -0.120  0.00  0.00    +0.387 N 
ATOM     20  C   UNL     1       5.062   5.876  -1.426  0.00  0.00    -0.078 C 
ATOM     21  C   UNL     1       6.086   7.004  -1.707  0.00  0.00    -0.020 C 
ATOM     22  C   UNL     1       7.393   6.389  -1.141  0.00  0.00    -0.017 C 
ATOM     23  C   UNL     1       6.901   5.595   0.087  0.00  0.00    -0.065 C 
ATOM     24  H   UNL     1       4.928   5.746   0.616  0.00  0.00    -0.081 HD
BRANCH  23  25
ATOM     25  C   UNL     1       7.090   6.430   1.356  0.00  0.00    -0.025 C 
ATOM     26  C   UNL     1       8.588   6.721   1.579  0.00  0.00    +0.002 C 
ATOM     27  C   UNL     1       8.765   6.646   3.115  0.00  0.00    +0.000 C 
ATOM     28  C   UNL     1       7.831   5.475   3.511  0.00  0.00    +0.000 C 
ATOM     29  C   UNL     1       6.608   5.638   2.584  0.00  0.00    +0.002 C 
ENDBRANCH  23  25
ENDBRANCH  18  19
ENDBRANCH  10  18
TORSDOF 5
