REMARK  Name = ZINC39628616
REMARK  11 active torsions:
REMARK  status: ('A' for Active; 'I' for Inactive)
REMARK    1  A    between atoms: C_1  and  C_2
REMARK    2  A    between atoms: C_2  and  C_3
REMARK    3  A    between atoms: C_3  and  C_5
REMARK    4  A    between atoms: C_3  and  C_6
REMARK    5  A    between atoms: C_6  and  C_7
REMARK    6  A    between atoms: C_11  and  C_20
REMARK    7  A    between atoms: N_22  and  C_23
REMARK    8  A    between atoms: C_23  and  C_24
REMARK    9  A    between atoms: C_24  and  C_25
REMARK   10  A    between atoms: C_25  and  N_26
REMARK   11  A    between atoms: C_31  and  C_33
REMARK                            x       y       z     vdW  Elec       q    Type
REMARK                         _______ _______ _______ _____ _____    ______ ____
ROOT
ATOM      1  C   UNL     1       1.779  -2.509  -2.498  0.00  0.00    +0.216 C 
ATOM      2  O   UNL     1       2.176  -1.736  -3.344  0.00  0.00    -0.276 OA
ATOM      3  N   UNL     1       1.977  -3.833  -2.648  0.00  0.00    -0.300 N 
ATOM      4  C   UNL     1       1.562  -4.924  -1.734  0.00  0.00    +0.121 C 
ATOM      5  C   UNL     1       1.094  -6.061  -2.670  0.00  0.00    +0.100 C 
ATOM      6  C   UNL     1       1.819  -5.797  -4.000  0.00  0.00    -0.004 C 
ATOM      7  C   UNL     1       2.654  -4.529  -3.769  0.00  0.00    +0.115 C 
ATOM      8  C   UNL     1       0.806  -5.558  -5.115  0.00  0.00    -0.010 C 
ATOM      9  C   UNL     1       1.549  -5.355  -6.439  0.00  0.00    -0.082 C 
ATOM     10  N   UNL     1       2.360  -6.543  -6.734  0.00  0.00    +0.379 N 
ATOM     11  C   UNL     1       3.393  -6.712  -5.704  0.00  0.00    -0.082 C 
ATOM     12  C   UNL     1       2.727  -6.972  -4.349  0.00  0.00    -0.010 C 
ATOM     13  H   UNL     1       1.766  -7.358  -6.750  0.00  0.00    -0.086 HD
ATOM     14  H   UNL     1       2.801  -6.432  -7.635  0.00  0.00    -0.086 HD
ENDROOT
BRANCH   5  15
ATOM     15  C   UNL     1       1.495  -7.401  -2.108  0.00  0.00    +0.218 C 
ATOM     16  O   UNL     1       2.500  -7.501  -1.438  0.00  0.00    -0.275 OA
ATOM     17  N   UNL     1       0.735  -8.487  -2.350  0.00  0.00    -0.315 N 
ATOM     18  H   UNL     1      -0.070  -8.407  -2.886  0.00  0.00    +0.149 HD
BRANCH  17  19
ATOM     19  C   UNL     1       1.124  -9.790  -1.804  0.00  0.00    +0.102 C 
BRANCH  19  20
ATOM     20  C   UNL     1       0.099 -10.845  -2.224  0.00  0.00    +0.000 C 
BRANCH  20  21
ATOM     21  C   UNL     1       0.506 -12.206  -1.653  0.00  0.00    -0.077 C 
BRANCH  21  22
ATOM     22  N   UNL     1      -0.478 -13.220  -2.056  0.00  0.00    +0.381 N 
ATOM     23  C   UNL     1      -0.448 -13.376  -3.515  0.00  0.00    -0.078 C 
ATOM     24  C   UNL     1      -1.526 -14.371  -3.948  0.00  0.00    -0.019 C 
ATOM     25  C   UNL     1      -1.261 -15.725  -3.282  0.00  0.00    -0.003 C 
ATOM     26  C   UNL     1      -1.221 -15.536  -1.763  0.00  0.00    -0.016 C 
ATOM     27  C   UNL     1      -0.154 -14.498  -1.411  0.00  0.00    -0.072 C 
ATOM     28  C   UNL     1      -0.110 -14.306   0.106  0.00  0.00    -0.013 C 
ATOM     29  H   UNL     1      -1.400 -12.924  -1.771  0.00  0.00    -0.081 HD
ENDBRANCH  21  22
ENDBRANCH  20  21
ENDBRANCH  19  20
ENDBRANCH  17  19
ENDBRANCH   5  15
BRANCH   1  30
ATOM     30  C   UNL     1       1.063  -1.988  -1.278  0.00  0.00    +0.099 C 
BRANCH  30  31
ATOM     31  C   UNL     1       0.971  -0.463  -1.353  0.00  0.00    -0.006 C 
ATOM     32  C   UNL     1       0.092  -0.062  -2.540  0.00  0.00    +0.008 C 
BRANCH  31  34
ATOM     33  C   UNL     1       0.379   1.606  -0.083  0.00  0.00    +0.004 C 
ATOM     34  C   UNL     1       0.357   0.076  -0.060  0.00  0.00    +0.000 C 
ENDBRANCH  31  34
ENDBRANCH  30  31
ENDBRANCH   1  30
TORSDOF 8
