REMARK  Name = ZINC61663593
REMARK  8 active torsions:
REMARK  status: ('A' for Active; 'I' for Inactive)
REMARK    1  A    between atoms: C_1  and  C_2
REMARK    2  A    between atoms: C_2  and  C_4
REMARK    3  A    between atoms: C_2  and  N_22
REMARK    4  A    between atoms: C_4  and  C_5
REMARK    5  A    between atoms: C_10  and  O_11
REMARK    6  A    between atoms: O_11  and  C_12
REMARK    7  A    between atoms: C_12  and  C_13
REMARK    8  A    between atoms: C_18  and  C_19
REMARK                            x       y       z     vdW  Elec       q    Type
REMARK                         _______ _______ _______ _____ _____    ______ ____
ROOT
ATOM      1  C   UNL     1       0.632  -2.000  -1.327  0.00  0.00    -0.006 A 
ATOM      2  C   UNL     1       1.661  -2.776  -0.831  0.00  0.00    +0.007 A 
ATOM      3  C   UNL     1       1.583  -4.155  -0.895  0.00  0.00    +0.002 A 
ATOM      4  C   UNL     1       0.474  -4.762  -1.456  0.00  0.00    +0.019 A 
ATOM      5  C   UNL     1      -0.559  -3.990  -1.954  0.00  0.00    +0.060 A 
ATOM      6  C   UNL     1      -0.484  -2.606  -1.886  0.00  0.00    +0.138 A 
ATOM      7 BR   UNL     1      -2.074  -4.820  -2.722  0.00  0.00    -0.047 Br
ENDROOT
BRANCH   1   8
ATOM      8  C   UNL     1       0.718  -0.497  -1.257  0.00  0.00    +0.022 C 
BRANCH   8  10
ATOM      9  C   UNL     1      -0.019   1.526   0.010  0.00  0.00    -0.014 C 
ATOM     10  C   UNL     1       0.002  -0.004   0.002  0.00  0.00    -0.074 C 
BRANCH  10  11
ATOM     11  N   UNL     1       0.713  -0.491   1.192  0.00  0.00    +0.380 N 
ATOM     12  H   UNL     1       0.240  -0.165   2.022  0.00  0.00    -0.090 HD
ATOM     13  H   UNL     1       0.726  -1.500   1.187  0.00  0.00    -0.090 HD
ATOM     14  H   UNL     1       1.659  -0.141   1.185  0.00  0.00    -0.090 HD
ENDBRANCH  10  11
ENDBRANCH   8  10
ENDBRANCH   1   8
BRANCH   6  15
ATOM     15  O   UNL     1      -1.501  -1.844  -2.371  0.00  0.00    -0.486 OA
BRANCH  15  16
ATOM     16  C   UNL     1      -1.425  -1.460  -3.745  0.00  0.00    +0.267 C 
BRANCH  16  17
ATOM     17  C   UNL     1      -2.630  -0.626  -4.100  0.00  0.00    +0.025 A 
ATOM     18  C   UNL     1      -3.592  -0.341  -3.146  0.00  0.00    +0.011 A 
ATOM     19  C   UNL     1      -4.684   0.430  -3.517  0.00  0.00    +0.020 A 
ATOM     20  C   UNL     1      -4.780   0.889  -4.820  0.00  0.00    +0.112 A 
ATOM     21  N   UNL     1      -3.851   0.603  -5.707  0.00  0.00    -0.244 NA
ATOM     22  C   UNL     1      -2.788  -0.127  -5.392  0.00  0.00    +0.146 A 
BRANCH  22  23
ATOM     23  C   UNL     1      -1.799  -0.409  -6.388  0.00  0.00    +0.119 C 
ATOM     24  N   UNL     1      -1.014  -0.633  -7.179  0.00  0.00    -0.189 NA
ENDBRANCH  22  23
ENDBRANCH  16  17
ENDBRANCH  15  16
ENDBRANCH   6  15
TORSDOF 7
