REMARK  Name = ZINC24970027
REMARK  12 active torsions:
REMARK  status: ('A' for Active; 'I' for Inactive)
REMARK    1  A    between atoms: C_1  and  C_2
REMARK    2  A    between atoms: C_2  and  O_3
REMARK    3  A    between atoms: O_3  and  C_4
REMARK    4  A    between atoms: C_4  and  C_6
REMARK    5  A    between atoms: C_7  and  C_20
REMARK    6  A    between atoms: C_12  and  C_14
REMARK    7  A    between atoms: C_17  and  C_19
REMARK    8  A    between atoms: C_20  and  O_21
REMARK    9  A    between atoms: O_21  and  C_22
REMARK   10  A    between atoms: C_22  and  C_24
REMARK   11  A    between atoms: C_24  and  C_25
REMARK   12  A    between atoms: C_31  and  C_33
REMARK                            x       y       z     vdW  Elec       q    Type
REMARK                         _______ _______ _______ _____ _____    ______ ____
ROOT
ATOM      1  C   UNL     1       2.958   1.472   1.484  0.00  0.00    +0.084 C 
ATOM      2  C   UNL     1       4.004   2.273   1.780  0.00  0.00    +0.061 C 
ATOM      3  N   UNL     1       4.645   2.985   0.806  0.00  0.00    -0.269 N 
ATOM      4  C   UNL     1       4.301   2.949  -0.487  0.00  0.00    +0.305 C 
ATOM      5  O   UNL     1       4.933   3.618  -1.282  0.00  0.00    -0.252 OA
ATOM      6  N   UNL     1       3.278   2.196  -0.937  0.00  0.00    -0.285 N 
ATOM      7  C   UNL     1       2.521   1.390   0.036  0.00  0.00    +0.179 C 
ATOM      8  H   UNL     1       5.495   3.633   1.068  0.00  0.00    +0.156 HD
ATOM      9  H   UNL     1       3.003   2.174  -2.002  0.00  0.00    +0.151 HD
ENDROOT
BRANCH   7  10
ATOM     10  C   UNL     1       1.076   1.810  -0.038  0.00  0.00    +0.130 A 
ATOM     11  C   UNL     1       0.013   0.988   0.024  0.00  0.00    +0.047 A 
ATOM     12  C   UNL     1      -1.140   1.799  -0.088  0.00  0.00    +0.045 A 
ATOM     13  C   UNL     1      -0.713   3.069  -0.203  0.00  0.00    +0.102 A 
ATOM     14  O   UNL     1       0.630   3.070  -0.176  0.00  0.00    -0.463 OA
ATOM     15  C   UNL     1      -1.592   4.285  -0.346  0.00  0.00    +0.086 C 
ENDBRANCH   7  10
BRANCH   1  16
ATOM     16  C   UNL     1       2.293   0.736   2.492  0.00  0.00    +0.339 C 
ATOM     17  O   UNL     1       2.528  -0.450   2.634  0.00  0.00    -0.245 OA
BRANCH  16  18
ATOM     18  O   UNL     1       1.398   1.347   3.295  0.00  0.00    -0.462 OA
BRANCH  18  20
ATOM     19  C   UNL     1      -0.210   1.403   5.099  0.00  0.00    +0.048 C 
ATOM     20  C   UNL     1       0.764   0.542   4.291  0.00  0.00    +0.229 C 
ENDBRANCH  18  20
ENDBRANCH  16  18
ENDBRANCH   1  16
BRANCH   2  21
ATOM     21  C   UNL     1       4.472   2.385   3.208  0.00  0.00    +0.283 C 
BRANCH  21  22
ATOM     22  O   UNL     1       5.813   1.839   3.322  0.00  0.00    -0.458 OA
BRANCH  22  23
ATOM     23  C   UNL     1       6.379   1.862   4.540  0.00  0.00    +0.313 C 
ATOM     24  O   UNL     1       5.774   2.323   5.478  0.00  0.00    -0.250 OA
BRANCH  23  25
ATOM     25  C   UNL     1       7.769   1.314   4.735  0.00  0.00    +0.176 C 
BRANCH  25  26
ATOM     26  C   UNL     1       8.167   1.458   6.181  0.00  0.00    +0.061 A 
ATOM     27  C   UNL     1       8.570   0.382   6.900  0.00  0.00    +0.072 A 
ATOM     28  S   UNL     1       8.900   1.144   8.482  0.00  0.00    -0.060 S 
ATOM     29  C   UNL     1       8.472   2.769   8.043  0.00  0.00    +0.165 A 
ATOM     30  N   UNL     1       8.126   2.633   6.778  0.00  0.00    -0.229 NA
ATOM     31  N   UNL     1       8.491   3.917   8.825  0.00  0.00    -0.258 N 
ATOM     32  C   UNL     1       8.881   3.849  10.113  0.00  0.00    +0.285 C 
ATOM     33  O   UNL     1       9.218   2.782  10.591  0.00  0.00    -0.266 OA
ATOM     34  H   UNL     1       8.186   4.881   8.392  0.00  0.00    +0.157 HD
BRANCH  32  35
ATOM     35  C   UNL     1       8.900   5.061  10.938  0.00  0.00    +0.189 A 
ATOM     36  C   UNL     1       9.272   5.133  12.250  0.00  0.00    +0.054 A 
ATOM     37  C   UNL     1       9.138   6.477  12.634  0.00  0.00    +0.042 A 
ATOM     38  C   UNL     1       8.695   7.157  11.553  0.00  0.00    +0.196 A 
ATOM     39  O   UNL     1       8.559   6.302  10.532  0.00  0.00    -0.458 OA
ENDBRANCH  32  35
ENDBRANCH  25  26
ENDBRANCH  23  25
ENDBRANCH  22  23
ENDBRANCH  21  22
ENDBRANCH   2  21
TORSDOF 10
