REMARK  Name = ZINC19940688
REMARK  9 active torsions:
REMARK  status: ('A' for Active; 'I' for Inactive)
REMARK    1  A    between atoms: C_1  and  C_2
REMARK    2  A    between atoms: C_2  and  C_3
REMARK    3  A    between atoms: C_10  and  C_15
REMARK    4  A    between atoms: C_15  and  C_17
REMARK    5  A    between atoms: C_15  and  N_27
REMARK    6  A    between atoms: N_21  and  C_22
REMARK    7  A    between atoms: N_30  and  C_33
REMARK    8  A    between atoms: C_36  and  O_39
REMARK    9  A    between atoms: O_39  and  C_40
REMARK                            x       y       z     vdW  Elec       q    Type
REMARK                         _______ _______ _______ _____ _____    ______ ____
ROOT
ATOM      1  C   UNL     1      -1.332   7.432   0.058  0.00  0.00    +0.162 C 
ENDROOT
BRANCH   1   9
ATOM      2  C   UNL     1       1.185   1.779   0.000  0.00  0.00    -0.047 A 
ATOM      3  C   UNL     1      -0.013   1.076   0.008  0.00  0.00    +0.005 A 
ATOM      4  C   UNL     1      -1.219   1.741   0.017  0.00  0.00    +0.026 A 
ATOM      5  C   UNL     1      -1.240   3.132   0.031  0.00  0.00    +0.049 A 
ATOM      6  C   UNL     1      -0.025   3.842   0.023  0.00  0.00    -0.001 A 
ATOM      7  C   UNL     1       1.188   3.145   0.008  0.00  0.00    +0.013 A 
ATOM      8  C   UNL     1      -0.057   5.306   0.033  0.00  0.00    +0.021 A 
ATOM      9  C   UNL     1      -1.263   5.926   0.048  0.00  0.00    +0.042 A 
ATOM     10  C   UNL     1      -2.453   5.168   0.055  0.00  0.00    +0.254 A 
ATOM     11  O   UNL     1      -3.526   5.746   0.068  0.00  0.00    -0.268 OA
ATOM     12  N   UNL     1      -2.433   3.824   0.047  0.00  0.00    -0.322 N 
ATOM     13  H   UNL     1      -3.386   3.275   0.053  0.00  0.00    +0.169 HD
BRANCH   2  15
ATOM     14  C   UNL     1       2.920   0.783  -1.464  0.00  0.00    +0.009 C 
ATOM     15  C   UNL     1       2.491   1.029  -0.016  0.00  0.00    +0.032 C 
ENDBRANCH   2  15
ENDBRANCH   1   9
BRANCH   1  16
ATOM     16  N   UNL     1      -2.158   7.892  -1.066  0.00  0.00    -0.286 NA
ATOM     17  C   UNL     1      -1.643   7.380  -2.343  0.00  0.00    +0.104 C 
ATOM     18  C   UNL     1      -2.574   7.814  -3.477  0.00  0.00    +0.120 C 
ATOM     19  N   UNL     1      -2.664   9.280  -3.499  0.00  0.00    -0.327 N 
ATOM     20  C   UNL     1      -3.180   9.793  -2.222  0.00  0.00    +0.120 C 
ATOM     21  C   UNL     1      -2.248   9.358  -1.088  0.00  0.00    +0.104 C 
BRANCH  19  22
ATOM     22  C   UNL     1      -3.451   9.719  -4.570  0.00  0.00    +0.030 A 
ATOM     23  C   UNL     1      -4.557  10.525  -4.335  0.00  0.00    +0.027 A 
ATOM     24  C   UNL     1      -5.330  10.962  -5.392  0.00  0.00    +0.047 A 
ATOM     25  C   UNL     1      -5.010  10.585  -6.688  0.00  0.00    +0.120 A 
ATOM     26  C   UNL     1      -3.908   9.776  -6.924  0.00  0.00    +0.047 A 
ATOM     27  C   UNL     1      -3.131   9.343  -5.867  0.00  0.00    +0.027 A 
BRANCH  25  28
ATOM     28  O   UNL     1      -5.775  11.011  -7.729  0.00  0.00    -0.495 OA
ATOM     29  C   UNL     1      -6.894  11.842  -7.414  0.00  0.00    +0.277 C 
ENDBRANCH  25  28
ENDBRANCH  19  22
ENDBRANCH   1  16
BRANCH   1  30
ATOM     30  C   UNL     1      -1.942   7.898   1.355  0.00  0.00    +0.173 A 
ATOM     31  N   UNL     1      -3.209   7.841   1.688  0.00  0.00    -0.111 NA
ATOM     32  N   UNL     1      -3.331   8.336   2.872  0.00  0.00    -0.023 NA
ATOM     33  N   UNL     1      -2.175   8.706   3.302  0.00  0.00    -0.044 NA
ATOM     34  N   UNL     1      -1.292   8.447   2.397  0.00  0.00    -0.224 N 
BRANCH  34  35
ATOM     35  C   UNL     1       0.147   8.707   2.487  0.00  0.00    +0.111 C 
ATOM     36  C   UNL     1       0.741   7.974   3.707  0.00  0.00    +0.027 C 
ATOM     37  C   UNL     1       1.808   8.955   4.256  0.00  0.00    +0.002 C 
ATOM     38  C   UNL     1       1.137  10.337   4.057  0.00  0.00    +0.002 C 
ATOM     39  C   UNL     1       0.399  10.209   2.708  0.00  0.00    +0.027 C 
ENDBRANCH  34  35
ENDBRANCH   1  30
TORSDOF 7
