REMARK  Name = ZINC18196092
REMARK  3 active torsions:
REMARK  status: ('A' for Active; 'I' for Inactive)
REMARK    1  A    between atoms: C_1  and  C_2
REMARK    2  A    between atoms: C_2  and  C_24
REMARK    3  A    between atoms: C_6  and  C_14
REMARK                            x       y       z     vdW  Elec       q    Type
REMARK                         _______ _______ _______ _____ _____    ______ ____
ROOT
ATOM      1  C   UNL     1       2.828   2.357   2.322  0.00  0.00    +0.011 C 
ATOM      2  C   UNL     1       3.425   1.874   0.999  0.00  0.00    -0.023 C 
ATOM      3  C   UNL     1       2.436   0.942   0.297  0.00  0.00    +0.058 C 
ATOM      4  C   UNL     1       1.158   1.690   0.000  0.00  0.00    +0.020 C 
ATOM      5  C   UNL     1       1.175   3.014  -0.263  0.00  0.00    +0.041 C 
ATOM      6  C   UNL     1      -0.085   3.786  -0.592  0.00  0.00    +0.177 C 
ATOM      7  N   UNL     1      -1.256   2.992  -0.253  0.00  0.00    -0.201 N 
ATOM      8  C   UNL     1      -1.207   1.663   0.017  0.00  0.00    +0.240 A 
ATOM      9  N   UNL     1      -2.426   1.274   0.261  0.00  0.00    -0.092 NA
ATOM     10  N   UNL     1      -3.240   2.269   0.162  0.00  0.00    -0.021 NA
ATOM     11  N   UNL     1      -2.599   3.348  -0.138  0.00  0.00    -0.042 NA
ATOM     12  N   UNL     1      -0.011   0.966   0.007  0.00  0.00    -0.286 N 
ATOM     13  C   UNL     1       2.381   3.737  -0.244  0.00  0.00    +0.164 C 
ATOM     14  O   UNL     1       2.365   4.925  -0.499  0.00  0.00    -0.292 OA
ATOM     15  C   UNL     1       3.690   3.074   0.083  0.00  0.00    +0.086 C 
ATOM     16  C   UNL     1       4.735   1.130   1.266  0.00  0.00    +0.011 C 
ATOM     17  H   UNL     1       0.002  -0.004   0.002  0.00  0.00    +0.155 HD
ENDROOT
BRANCH   6  18
ATOM     18  C   UNL     1      -0.106   4.104  -2.064  0.00  0.00    -0.017 A 
ATOM     19  C   UNL     1      -0.083   3.080  -2.993  0.00  0.00    +0.006 A 
ATOM     20  C   UNL     1      -0.108   3.371  -4.344  0.00  0.00    +0.001 A 
ATOM     21  C   UNL     1      -0.146   4.686  -4.767  0.00  0.00    +0.015 A 
ATOM     22  C   UNL     1      -0.164   5.711  -3.839  0.00  0.00    +0.018 A 
ATOM     23  C   UNL     1      -0.144   5.419  -2.487  0.00  0.00    +0.021 A 
ATOM     24 BR   UNL     1      -0.214   7.511  -4.417  0.00  0.00    -0.050 Br
ENDBRANCH   6  18
TORSDOF 1
