REMARK  Name = ZINC02399277
REMARK  10 active torsions:
REMARK  status: ('A' for Active; 'I' for Inactive)
REMARK    1  A    between atoms: C_1  and  C_2
REMARK    2  A    between atoms: C_2  and  C_3
REMARK    3  A    between atoms: C_3  and  C_5
REMARK    4  A    between atoms: C_3  and  C_6
REMARK    5  A    between atoms: C_9  and  N_12
REMARK    6  A    between atoms: C_13  and  N_35
REMARK    7  A    between atoms: C_14  and  C_25
REMARK    8  A    between atoms: C_25  and  O_27
REMARK    9  A    between atoms: O_27  and  C_28
REMARK   10  A    between atoms: C_28  and  C_29
REMARK                            x       y       z     vdW  Elec       q    Type
REMARK                         _______ _______ _______ _____ _____    ______ ____
ROOT
ATOM      1  N   UNL     1      -2.897   2.509   7.163  0.00  0.00    -0.280 N 
ATOM      2  C   UNL     1      -2.470   2.297   8.440  0.00  0.00    +0.119 A 
ATOM      3  C   UNL     1      -3.413   2.763   9.351  0.00  0.00    +0.126 A 
ATOM      4  C   UNL     1      -4.525   3.313   8.557  0.00  0.00    +0.125 A 
ATOM      5  C   UNL     1      -4.133   3.127   7.157  0.00  0.00    +0.167 A 
ATOM      6  N   UNL     1      -4.945   3.521   6.200  0.00  0.00    -0.225 NA
ATOM      7  C   UNL     1      -6.112   4.099   6.512  0.00  0.00    +0.092 A 
ATOM      8  C   UNL     1      -6.984   4.530   5.494  0.00  0.00    +0.030 A 
ATOM      9  C   UNL     1      -8.168   5.115   5.820  0.00  0.00    +0.002 A 
ATOM     10  C   UNL     1      -8.535   5.297   7.152  0.00  0.00    +0.002 A 
ATOM     11  C   UNL     1      -7.720   4.893   8.163  0.00  0.00    +0.030 A 
ATOM     12  C   UNL     1      -6.486   4.283   7.866  0.00  0.00    +0.090 A 
ATOM     13  N   UNL     1      -5.676   3.882   8.853  0.00  0.00    -0.241 NA
ENDROOT
BRANCH   1  17
ATOM     14  C   UNL     1      -0.761   1.454   3.743  0.00  0.00    -0.044 A 
ATOM     15  C   UNL     1      -1.000   2.787   4.023  0.00  0.00    +0.006 A 
ATOM     16  C   UNL     1      -1.712   3.139   5.153  0.00  0.00    +0.026 A 
ATOM     17  C   UNL     1      -2.178   2.154   6.014  0.00  0.00    +0.050 A 
ATOM     18  C   UNL     1      -1.931   0.817   5.733  0.00  0.00    +0.026 A 
ATOM     19  C   UNL     1      -1.223   0.471   4.598  0.00  0.00    +0.006 A 
BRANCH  14  20
ATOM     20  C   UNL     1       0.011   1.072   2.506  0.00  0.00    +0.016 C 
ATOM     21  C   UNL     1       1.405   1.701   2.561  0.00  0.00    +0.012 C 
BRANCH  20  23
ATOM     22  C   UNL     1      -0.013   1.086   0.008  0.00  0.00    +0.004 C 
ATOM     23  C   UNL     1      -0.729   1.579   1.267  0.00  0.00    +0.004 C 
ENDBRANCH  20  23
ENDBRANCH  14  20
ENDBRANCH   1  17
BRANCH   2  24
ATOM     24  N   UNL     1      -1.280   1.709   8.778  0.00  0.00    -0.343 N 
ATOM     25  H   UNL     1      -0.672   1.409   8.084  0.00  0.00    +0.144 HD
ATOM     26  H   UNL     1      -1.045   1.592   9.712  0.00  0.00    +0.144 HD
ENDBRANCH   2  24
BRANCH   3  27
ATOM     27  C   UNL     1      -3.321   2.716  10.763  0.00  0.00    +0.345 C 
ATOM     28  O   UNL     1      -2.815   3.641  11.371  0.00  0.00    -0.245 OA
BRANCH  27  29
ATOM     29  O   UNL     1      -3.796   1.646  11.435  0.00  0.00    -0.456 OA
BRANCH  29  30
ATOM     30  C   UNL     1      -3.671   1.667  12.859  0.00  0.00    +0.268 C 
BRANCH  30  31
ATOM     31  C   UNL     1      -4.251   0.399  13.432  0.00  0.00    -0.010 A 
ATOM     32  C   UNL     1      -5.586   0.349  13.787  0.00  0.00    +0.007 A 
ATOM     33  C   UNL     1      -6.119  -0.815  14.308  0.00  0.00    +0.000 A 
ATOM     34  C   UNL     1      -5.314  -1.925  14.484  0.00  0.00    +0.000 A 
ATOM     35  C   UNL     1      -3.978  -1.873  14.135  0.00  0.00    +0.000 A 
ATOM     36  C   UNL     1      -3.446  -0.711  13.608  0.00  0.00    +0.007 A 
ENDBRANCH  30  31
ENDBRANCH  29  30
ENDBRANCH  27  29
ENDBRANCH   3  27
TORSDOF 8
