REMARK  Name = ZINC34783371
REMARK  9 active torsions:
REMARK  status: ('A' for Active; 'I' for Inactive)
REMARK    1  A    between atoms: C_1  and  C_2
REMARK    2  A    between atoms: N_6  and  C_21
REMARK    3  A    between atoms: N_9  and  C_17
REMARK    4  A    between atoms: C_12  and  C_13
REMARK    5  A    between atoms: N_15  and  N_16
REMARK    6  A    between atoms: C_17  and  C_18
REMARK    7  A    between atoms: C_18  and  C_20
REMARK    8  A    between atoms: C_21  and  C_22
REMARK    9  A    between atoms: N_24  and  C_25
REMARK                            x       y       z     vdW  Elec       q    Type
REMARK                         _______ _______ _______ _____ _____    ______ ____
ROOT
ATOM      1  C   UNL     1      -0.018   1.503   0.010  0.00  0.00    +0.046 C 
ATOM      2  C   UNL     1       0.002  -0.004   0.002  0.00  0.00    -0.017 A 
ATOM      3  C   UNL     1       0.006  -0.728  -1.197  0.00  0.00    +0.074 A 
ATOM      4  C   UNL     1      -0.008  -0.215  -2.589  0.00  0.00    +0.266 A 
ATOM      5  O   UNL     1      -0.025   0.983  -2.803  0.00  0.00    -0.267 OA
ATOM      6  N   UNL     1      -0.002  -1.089  -3.610  0.00  0.00    -0.251 N 
ATOM      7  C   UNL     1       0.017  -2.416  -3.405  0.00  0.00    +0.334 A 
ATOM      8  O   UNL     1       0.021  -3.165  -4.363  0.00  0.00    -0.246 OA
ATOM      9  N   UNL     1       0.030  -2.936  -2.164  0.00  0.00    -0.283 N 
ATOM     10  C   UNL     1       0.025  -2.124  -1.066  0.00  0.00    +0.098 A 
ATOM     11  S   UNL     1       0.038  -2.406   0.582  0.00  0.00    -0.065 S 
ATOM     12  C   UNL     1       0.023  -0.722   1.163  0.00  0.00    +0.081 A 
ENDROOT
BRANCH  12  13
ATOM     13  C   UNL     1       0.031  -0.230   2.542  0.00  0.00    +0.264 C 
ATOM     14  O   UNL     1       0.017   0.967   2.762  0.00  0.00    -0.268 OA
ATOM     15  N   UNL     1       0.053  -1.103   3.569  0.00  0.00    -0.249 N 
ATOM     16  H   UNL     1       0.064  -2.058   3.394  0.00  0.00    +0.169 HD
BRANCH  15  17
ATOM     17  N   UNL     1       0.060  -0.645   4.856  0.00  0.00    -0.254 NA
ATOM     18  H   UNL     1      -0.728  -0.038   5.028  0.00  0.00    +0.140 HD
ATOM     19  H   UNL     1       0.076  -1.411   5.512  0.00  0.00    +0.140 HD
ENDBRANCH  15  17
ENDBRANCH  12  13
BRANCH   9  20
ATOM     20  C   UNL     1       0.050  -4.391  -1.989  0.00  0.00    +0.157 C 
BRANCH  20  21
ATOM     21  C   UNL     1       1.477  -4.871  -1.937  0.00  0.00    -0.060 C 
ATOM     22  C   UNL     1       2.070  -5.037  -0.781  0.00  0.00    +0.009 C 
ATOM     23  C   UNL     1       2.222  -5.160  -3.215  0.00  0.00    +0.040 C 
ENDBRANCH  20  21
ENDBRANCH   9  20
BRANCH   6  24
ATOM     24  C   UNL     1      -0.016  -0.580  -4.984  0.00  0.00    +0.225 C 
BRANCH  24  25
ATOM     25  C   UNL     1       1.399  -0.387  -5.462  0.00  0.00    +0.233 C 
ATOM     26  O   UNL     1       2.329  -0.648  -4.728  0.00  0.00    -0.274 OA
ATOM     27  N   UNL     1       1.633   0.077  -6.706  0.00  0.00    -0.311 N 
ATOM     28  H   UNL     1       0.890   0.286  -7.293  0.00  0.00    +0.149 HD
BRANCH  27  29
ATOM     29  C   UNL     1       3.009   0.265  -7.171  0.00  0.00    +0.073 C 
ATOM     30  C   UNL     1       3.516   1.638  -6.723  0.00  0.00    +0.022 C 
ATOM     31  C   UNL     1       4.953   1.834  -7.209  0.00  0.00    +0.002 C 
ATOM     32  C   UNL     1       4.991   1.751  -8.736  0.00  0.00    +0.000 C 
ATOM     33  C   UNL     1       4.485   0.378  -9.184  0.00  0.00    +0.002 C 
ATOM     34  C   UNL     1       3.047   0.182  -8.699  0.00  0.00    +0.022 C 
ENDBRANCH  27  29
ENDBRANCH  24  25
ENDBRANCH   6  24
TORSDOF 7
