REMARK  Name = ZINC38905491
REMARK  10 active torsions:
REMARK  status: ('A' for Active; 'I' for Inactive)
REMARK    1  A    between atoms: C_1  and  O_2
REMARK    2  A    between atoms: O_2  and  C_3
REMARK    3  A    between atoms: C_8  and  C_9
REMARK    4  A    between atoms: C_9  and  C_10
REMARK    5  A    between atoms: C_10  and  C_11
REMARK    6  A    between atoms: C_11  and  N_12
REMARK    7  A    between atoms: C_13  and  C_15
REMARK    8  A    between atoms: N_20  and  C_22
REMARK    9  A    between atoms: C_22  and  C_23
REMARK   10  A    between atoms: C_25  and  C_28
REMARK                            x       y       z     vdW  Elec       q    Type
REMARK                         _______ _______ _______ _____ _____    ______ ____
ROOT
ATOM      1  C   UNL     1       3.950  -4.850   4.414  0.00  0.00    +0.058 C 
ATOM      2  C   UNL     1       2.895  -5.583   5.248  0.00  0.00    +0.009 C 
ATOM      3  C   UNL     1       3.448  -5.821   6.657  0.00  0.00    -0.018 C 
ATOM      4  C   UNL     1       4.758  -6.606   6.559  0.00  0.00    -0.078 C 
ATOM      5  N   UNL     1       5.733  -5.841   5.772  0.00  0.00    +0.386 N 
ATOM      6  C   UNL     1       5.242  -5.669   4.399  0.00  0.00    -0.065 C 
ATOM      7  H   UNL     1       5.868  -4.934   6.195  0.00  0.00    -0.081 HD
ENDROOT
BRANCH   1   9
ATOM      8  N   UNL     1       2.312  -3.987   2.773  0.00  0.00    -0.315 N 
ATOM      9  C   UNL     1       3.446  -4.678   3.004  0.00  0.00    +0.214 C 
ATOM     10  O   UNL     1       4.061  -5.162   2.078  0.00  0.00    -0.276 OA
ATOM     11  H   UNL     1       1.821  -3.600   3.514  0.00  0.00    +0.149 HD
BRANCH   8  12
ATOM     12  C   UNL     1       1.823  -3.820   1.402  0.00  0.00    +0.104 C 
BRANCH  12  13
ATOM     13  C   UNL     1       0.530  -3.003   1.419  0.00  0.00    +0.023 C 
BRANCH  13  14
ATOM     14  C   UNL     1       0.018  -2.829  -0.013  0.00  0.00    +0.040 C 
BRANCH  14  20
ATOM     15  C   UNL     1      -1.200  -0.637   0.010  0.00  0.00    +0.123 A 
ATOM     16  C   UNL     1      -2.375   0.101   0.019  0.00  0.00    +0.046 A 
ATOM     17  C   UNL     1      -3.596  -0.545   0.027  0.00  0.00    +0.004 A 
ATOM     18  C   UNL     1      -3.648  -1.927   0.026  0.00  0.00    +0.000 A 
ATOM     19  C   UNL     1      -2.479  -2.665   0.017  0.00  0.00    +0.007 A 
ATOM     20  C   UNL     1      -1.255  -2.023   0.003  0.00  0.00    -0.006 A 
BRANCH  15  22
ATOM     21  C   UNL     1      -0.017   1.425   0.010  0.00  0.00    +0.277 C 
ATOM     22  O   UNL     1       0.002  -0.004   0.002  0.00  0.00    -0.495 OA
ENDBRANCH  15  22
ENDBRANCH  14  20
ENDBRANCH  13  14
ENDBRANCH  12  13
ENDBRANCH   8  12
ENDBRANCH   1   9
BRANCH   5  23
ATOM     23  C   UNL     1       7.013  -6.561   5.746  0.00  0.00    +0.022 C 
BRANCH  23  24
ATOM     24  C   UNL     1       7.583  -6.622   7.139  0.00  0.00    +0.211 A 
ATOM     25  N   UNL     1       7.366  -7.566   8.011  0.00  0.00    -0.193 NA
ATOM     26  C   UNL     1       8.031  -7.303   9.150  0.00  0.00    +0.202 A 
ATOM     27  N   UNL     1       8.682  -6.175   9.004  0.00  0.00    -0.056 NA
ATOM     28  O   UNL     1       8.404  -5.717   7.689  0.00  0.00    -0.340 OA
BRANCH  26  29
ATOM     29  C   UNL     1       8.028  -8.149  10.369  0.00  0.00    +0.023 A 
ATOM     30  C   UNL     1       7.295  -9.334  10.396  0.00  0.00    +0.013 A 
ATOM     31  C   UNL     1       7.296 -10.117  11.532  0.00  0.00    +0.016 A 
ATOM     32  C   UNL     1       8.021  -9.727  12.644  0.00  0.00    +0.018 A 
ATOM     33  C   UNL     1       8.750  -8.550  12.623  0.00  0.00    +0.016 A 
ATOM     34  C   UNL     1       8.762  -7.763  11.489  0.00  0.00    +0.013 A 
ATOM     35 BR   UNL     1       8.017 -10.804  14.198  0.00  0.00    -0.050 Br
ENDBRANCH  26  29
ENDBRANCH  23  24
ENDBRANCH   5  23
TORSDOF 9
