REMARK  Name = ZINC08267844
REMARK  6 active torsions:
REMARK  status: ('A' for Active; 'I' for Inactive)
REMARK    1  A    between atoms: C_1  and  O_2
REMARK    2  A    between atoms: O_2  and  C_3
REMARK    3  A    between atoms: C_6  and  C_9
REMARK    4  A    between atoms: C_11  and  C_14
REMARK    5  A    between atoms: C_14  and  C_15
REMARK    6  A    between atoms: C_21  and  C_24
REMARK                            x       y       z     vdW  Elec       q    Type
REMARK                         _______ _______ _______ _____ _____    ______ ____
ROOT
ATOM      1  C   UNL     1      -5.348  -2.646  -1.464  0.00  0.00    +0.151 C 
ENDROOT
BRANCH   1   2
ATOM      2  C   UNL     1      -3.987  -2.001  -1.416  0.00  0.00    +0.221 C 
ATOM      3  O   UNL     1      -2.989  -2.684  -1.493  0.00  0.00    -0.275 OA
ATOM      4  N   UNL     1      -3.880  -0.663  -1.287  0.00  0.00    -0.300 N 
ATOM      5  C   UNL     1      -5.080   0.179  -1.192  0.00  0.00    +0.108 C 
ATOM      6  C   UNL     1      -4.974   1.049   0.065  0.00  0.00    +0.020 C 
ATOM      7  C   UNL     1      -3.659   1.831   0.029  0.00  0.00    +0.016 C 
ATOM      8  C   UNL     1      -2.482   0.853   0.018  0.00  0.00    +0.092 C 
ATOM      9  C   UNL     1      -2.560  -0.019  -1.239  0.00  0.00    +0.120 C 
BRANCH   8  10
ATOM     10  C   UNL     1      -1.187   1.624   0.017  0.00  0.00    +0.215 C 
ATOM     11  O   UNL     1      -1.204   2.837   0.023  0.00  0.00    -0.276 OA
ATOM     12  N   UNL     1      -0.011   0.966   0.007  0.00  0.00    -0.329 N 
ATOM     13  H   UNL     1       0.002  -0.004   0.002  0.00  0.00    +0.145 HD
ATOM     14  H   UNL     1       0.822   1.462   0.002  0.00  0.00    +0.145 HD
ENDBRANCH   8  10
ENDBRANCH   1   2
BRANCH   1  17
ATOM     15  C   UNL     1      -4.332  -5.938  -2.753  0.00  0.00    +0.109 A 
ATOM     16  N   UNL     1      -4.485  -4.630  -2.601  0.00  0.00    -0.243 NA
ATOM     17  C   UNL     1      -5.192  -4.138  -1.610  0.00  0.00    +0.058 A 
ATOM     18  C   UNL     1      -5.778  -4.974  -0.714  0.00  0.00    +0.071 A 
ATOM     19  S   UNL     1      -5.273  -6.562  -1.366  0.00  0.00    -0.075 S 
BRANCH  15  23
ATOM     20  C   UNL     1      -2.182  -8.074  -5.731  0.00  0.00    +0.120 A 
ATOM     21  C   UNL     1      -2.853  -8.766  -4.731  0.00  0.00    +0.046 A 
ATOM     22  C   UNL     1      -3.551  -8.077  -3.763  0.00  0.00    +0.014 A 
ATOM     23  C   UNL     1      -3.584  -6.681  -3.789  0.00  0.00    +0.007 A 
ATOM     24  C   UNL     1      -2.913  -5.990  -4.799  0.00  0.00    +0.014 A 
ATOM     25  C   UNL     1      -2.212  -6.686  -5.760  0.00  0.00    +0.046 A 
BRANCH  20  27
ATOM     26  C   UNL     1      -0.827  -7.983  -7.681  0.00  0.00    +0.277 C 
ATOM     27  O   UNL     1      -1.494  -8.757  -6.683  0.00  0.00    -0.495 OA
ENDBRANCH  20  27
ENDBRANCH  15  23
ENDBRANCH   1  17
TORSDOF 5
