REMARK  Name = ZINC67630577
REMARK  3 active torsions:
REMARK  status: ('A' for Active; 'I' for Inactive)
REMARK    1  A    between atoms: C_1  and  C_2
REMARK    2  A    between atoms: C_8  and  C_13
REMARK    3  A    between atoms: N_15  and  C_16
REMARK                            x       y       z     vdW  Elec       q    Type
REMARK                         _______ _______ _______ _____ _____    ______ ____
ROOT
ATOM      1  C   UNL     1       0.133   1.413  -0.810  0.00  0.00    +0.008 C 
ATOM      2  C   UNL     1       0.053  -0.114  -0.873  0.00  0.00    -0.001 C 
ATOM      3  C   UNL     1      -1.233  -0.585  -0.201  0.00  0.00    +0.057 C 
ATOM      4  C   UNL     1      -1.293  -2.089  -0.125  0.00  0.00    +0.030 A 
ATOM      5  C   UNL     1      -0.144  -2.860  -0.167  0.00  0.00    +0.037 A 
ATOM      6  C   UNL     1      -0.218  -4.267  -0.083  0.00  0.00    +0.031 A 
ATOM      7  C   UNL     1      -1.464  -4.867   0.037  0.00  0.00    +0.102 A 
ATOM      8  C   UNL     1      -2.647  -4.004   0.069  0.00  0.00    +0.261 A 
ATOM      9  O   UNL     1      -3.758  -4.494   0.171  0.00  0.00    -0.267 OA
ATOM     10  N   UNL     1      -2.504  -2.671  -0.013  0.00  0.00    -0.325 N 
ATOM     11  H   UNL     1      -3.296  -2.111   0.010  0.00  0.00    +0.169 HD
ATOM     12  C   UNL     1       1.176  -2.223  -0.309  0.00  0.00    +0.165 C 
ATOM     13  O   UNL     1       2.166  -2.880  -0.554  0.00  0.00    -0.292 OA
ATOM     14  C   UNL     1       1.258  -0.720  -0.141  0.00  0.00    +0.083 C 
ENDROOT
BRANCH   7  15
ATOM     15  C   UNL     1      -1.592  -6.330   0.128  0.00  0.00    +0.254 C 
ATOM     16  O   UNL     1      -0.597  -7.024   0.224  0.00  0.00    -0.270 OA
ATOM     17  N   UNL     1      -2.813  -6.902   0.106  0.00  0.00    -0.281 N 
ATOM     18  H   UNL     1      -3.601  -6.357  -0.044  0.00  0.00    +0.155 HD
BRANCH  17  19
ATOM     19  C   UNL     1      -2.942  -8.278   0.299  0.00  0.00    +0.041 A 
ATOM     20  C   UNL     1      -1.949  -8.986   0.941  0.00  0.00    +0.024 A 
ATOM     21  C   UNL     1      -2.069 -10.359   1.139  0.00  0.00    +0.002 A 
ATOM     22  C   UNL     1      -3.166 -11.039   0.705  0.00  0.00    +0.008 A 
ATOM     23  C   UNL     1      -4.200 -10.354   0.046  0.00  0.00    -0.016 A 
ATOM     24  C   UNL     1      -4.093  -8.956  -0.157  0.00  0.00    +0.003 A 
ATOM     25  C   UNL     1      -5.130  -8.272  -0.811  0.00  0.00    +0.010 A 
ATOM     26  C   UNL     1      -6.226  -8.959  -1.237  0.00  0.00    +0.001 A 
ATOM     27  C   UNL     1      -6.335 -10.333  -1.034  0.00  0.00    +0.001 A 
ATOM     28  C   UNL     1      -5.344 -11.030  -0.414  0.00  0.00    +0.008 A 
ENDBRANCH  17  19
ENDBRANCH   7  15
TORSDOF 2
