REMARK  Name = ZINC21947139
REMARK  11 active torsions:
REMARK  status: ('A' for Active; 'I' for Inactive)
REMARK    1  A    between atoms: C_1  and  C_2
REMARK    2  A    between atoms: C_2  and  N_3
REMARK    3  A    between atoms: N_3  and  C_4
REMARK    4  A    between atoms: C_5  and  N_20
REMARK    5  A    between atoms: N_6  and  C_13
REMARK    6  A    between atoms: C_13  and  C_14
REMARK    7  A    between atoms: C_21  and  C_23
REMARK    8  A    between atoms: C_23  and  O_24
REMARK    9  A    between atoms: O_24  and  C_25
REMARK   10  A    between atoms: C_25  and  C_27
REMARK   11  A    between atoms: C_30  and  C_33
REMARK                            x       y       z     vdW  Elec       q    Type
REMARK                         _______ _______ _______ _____ _____    ______ ____
ROOT
ATOM      1  N   UNL     1       0.046   0.072   0.057  0.00  0.00    -0.262 N 
ATOM      2  C   UNL     1       0.097   1.405   0.262  0.00  0.00    +0.258 C 
ATOM      3  O   UNL     1       1.163   1.949   0.455  0.00  0.00    -0.272 OA
ENDROOT
BRANCH   1   4
ATOM      4  C   UNL     1       1.240  -0.674  -0.028  0.00  0.00    +0.140 A 
ATOM      5  C   UNL     1       2.143  -0.440  -1.044  0.00  0.00    +0.128 A 
ATOM      6  N   UNL     1       3.302  -1.180  -1.097  0.00  0.00    -0.276 N 
ATOM      7  C   UNL     1       3.546  -2.129  -0.176  0.00  0.00    +0.331 A 
ATOM      8  O   UNL     1       4.573  -2.777  -0.243  0.00  0.00    -0.246 OA
ATOM      9  N   UNL     1       2.675  -2.375   0.819  0.00  0.00    -0.273 N 
ATOM     10  H   UNL     1       2.895  -3.155   1.563  0.00  0.00    +0.173 HD
ATOM     11  C   UNL     1       1.528  -1.674   0.920  0.00  0.00    +0.277 A 
ATOM     12  O   UNL     1       0.746  -1.905   1.826  0.00  0.00    -0.266 OA
BRANCH   5  13
ATOM     13  N   UNL     1       1.891   0.524  -1.990  0.00  0.00    -0.343 N 
ATOM     14  H   UNL     1       2.615   0.706  -2.798  0.00  0.00    +0.144 HD
ATOM     15  H   UNL     1       0.965   1.115  -1.939  0.00  0.00    +0.144 HD
ENDBRANCH   5  13
BRANCH   6  16
ATOM     16  C   UNL     1       4.272  -0.938  -2.168  0.00  0.00    +0.163 C 
BRANCH  16  17
ATOM     17  C   UNL     1       3.946  -1.816  -3.349  0.00  0.00    -0.028 A 
ATOM     18  C   UNL     1       4.506  -3.076  -3.449  0.00  0.00    +0.005 A 
ATOM     19  C   UNL     1       4.203  -3.882  -4.530  0.00  0.00    +0.000 A 
ATOM     20  C   UNL     1       3.349  -3.425  -5.516  0.00  0.00    +0.000 A 
ATOM     21  C   UNL     1       2.793  -2.163  -5.419  0.00  0.00    +0.000 A 
ATOM     22  C   UNL     1       3.092  -1.358  -4.335  0.00  0.00    +0.005 A 
ENDBRANCH  16  17
ENDBRANCH   6  16
ENDBRANCH   1   4
BRANCH   1  24
ATOM     23  C   UNL     1      -1.644  -0.658  -1.553  0.00  0.00    +0.025 C 
ATOM     24  C   UNL     1      -1.249  -0.600  -0.076  0.00  0.00    +0.110 C 
ENDBRANCH   1  24
BRANCH   2  25
ATOM     25  C   UNL     1      -1.172   2.219   0.243  0.00  0.00    +0.328 C 
BRANCH  25  26
ATOM     26  O   UNL     1      -0.855   3.615   0.486  0.00  0.00    -0.452 OA
BRANCH  26  27
ATOM     27  C   UNL     1      -1.886   4.482   0.501  0.00  0.00    +0.340 C 
ATOM     28  O   UNL     1      -3.018   4.083   0.317  0.00  0.00    -0.245 OA
BRANCH  27  29
ATOM     29  C   UNL     1      -1.639   5.917   0.742  0.00  0.00    +0.059 A 
ATOM     30  C   UNL     1      -0.337   6.376   0.960  0.00  0.00    +0.015 A 
ATOM     31  C   UNL     1      -0.107   7.715   1.180  0.00  0.00    +0.009 A 
ATOM     32  C   UNL     1      -1.175   8.613   1.195  0.00  0.00    -0.018 A 
ATOM     33  C   UNL     1      -2.476   8.156   0.984  0.00  0.00    +0.009 A 
ATOM     34  C   UNL     1      -2.708   6.818   0.758  0.00  0.00    +0.015 A 
BRANCH  32  35
ATOM     35  C   UNL     1      -0.927  10.055   1.437  0.00  0.00    -0.018 A 
ATOM     36  C   UNL     1      -1.991  10.956   1.448  0.00  0.00    +0.008 A 
ATOM     37  C   UNL     1      -1.755  12.296   1.679  0.00  0.00    +0.001 A 
ATOM     38  C   UNL     1      -0.464  12.747   1.889  0.00  0.00    +0.000 A 
ATOM     39  C   UNL     1       0.596  11.858   1.874  0.00  0.00    +0.001 A 
ATOM     40  C   UNL     1       0.371  10.516   1.649  0.00  0.00    +0.008 A 
ENDBRANCH  32  35
ENDBRANCH  27  29
ENDBRANCH  26  27
ENDBRANCH  25  26
ENDBRANCH   2  25
TORSDOF 10
