REMARK  Name = ZINC39666487
REMARK  10 active torsions:
REMARK  status: ('A' for Active; 'I' for Inactive)
REMARK    1  A    between atoms: C_1  and  C_2
REMARK    2  A    between atoms: C_2  and  O_3
REMARK    3  A    between atoms: O_3  and  C_4
REMARK    4  A    between atoms: C_9  and  C_10
REMARK    5  A    between atoms: C_14  and  C_23
REMARK    6  A    between atoms: N_25  and  C_26
REMARK    7  A    between atoms: C_26  and  C_27
REMARK    8  A    between atoms: C_27  and  C_29
REMARK    9  A    between atoms: C_27  and  O_30
REMARK   10  A    between atoms: O_30  and  C_31
REMARK                            x       y       z     vdW  Elec       q    Type
REMARK                         _______ _______ _______ _____ _____    ______ ____
ROOT
ATOM      1  C   UNL     1       2.268  -1.130  -3.566  0.00  0.00    +0.250 C 
ATOM      2  O   UNL     1       2.174   0.080  -3.493  0.00  0.00    -0.270 OA
ATOM      3  N   UNL     1       2.943  -1.693  -4.588  0.00  0.00    -0.296 N 
ATOM      4  C   UNL     1       3.077  -3.135  -4.904  0.00  0.00    +0.121 C 
ATOM      5  C   UNL     1       2.987  -3.207  -6.445  0.00  0.00    +0.100 C 
ATOM      6  C   UNL     1       3.411  -1.810  -6.929  0.00  0.00    -0.004 C 
ATOM      7  C   UNL     1       3.714  -1.009  -5.654  0.00  0.00    +0.115 C 
ATOM      8  C   UNL     1       2.273  -1.150  -7.701  0.00  0.00    -0.010 C 
ATOM      9  C   UNL     1       2.738   0.214  -8.221  0.00  0.00    -0.082 C 
ATOM     10  N   UNL     1       3.908   0.035  -9.090  0.00  0.00    +0.379 N 
ATOM     11  C   UNL     1       5.027  -0.515  -8.316  0.00  0.00    -0.082 C 
ATOM     12  C   UNL     1       4.659  -1.909  -7.801  0.00  0.00    -0.010 C 
ATOM     13  H   UNL     1       3.674  -0.600  -9.839  0.00  0.00    -0.086 HD
ATOM     14  H   UNL     1       4.175   0.927  -9.479  0.00  0.00    -0.086 HD
ENDROOT
BRANCH   1  20
ATOM     15  C   UNL     1       0.433  -1.600  -1.944  0.00  0.00    +0.133 A 
ATOM     16  C   UNL     1      -0.147  -2.412  -0.981  0.00  0.00    +0.046 A 
ATOM     17  C   UNL     1       0.470  -3.588  -0.603  0.00  0.00    +0.004 A 
ATOM     18  C   UNL     1       1.671  -3.966  -1.182  0.00  0.00    +0.001 A 
ATOM     19  C   UNL     1       2.261  -3.172  -2.141  0.00  0.00    +0.017 A 
ATOM     20  C   UNL     1       1.645  -1.982  -2.536  0.00  0.00    +0.078 A 
BRANCH  15  21
ATOM     21  O   UNL     1      -0.172  -0.444  -2.315  0.00  0.00    -0.491 OA
BRANCH  21  23
ATOM     22  C   UNL     1      -1.932   1.208  -2.213  0.00  0.00    +0.048 C 
ATOM     23  C   UNL     1      -1.404  -0.120  -1.668  0.00  0.00    +0.226 C 
ENDBRANCH  21  23
ENDBRANCH  15  21
ENDBRANCH   1  20
BRANCH   5  24
ATOM     24  C   UNL     1       3.927  -4.257  -6.977  0.00  0.00    +0.218 C 
ATOM     25  O   UNL     1       4.919  -4.558  -6.348  0.00  0.00    -0.275 OA
ATOM     26  N   UNL     1       3.666  -4.862  -8.153  0.00  0.00    -0.312 N 
ATOM     27  H   UNL     1       2.873  -4.621  -8.657  0.00  0.00    +0.149 HD
BRANCH  26  28
ATOM     28  C   UNL     1       4.580  -5.883  -8.670  0.00  0.00    +0.148 C 
BRANCH  28  29
ATOM     29  C   UNL     1       4.056  -6.405 -10.010  0.00  0.00    +0.187 C 
ATOM     30  C   UNL     1       4.942  -7.557 -10.489  0.00  0.00    +0.053 C 
BRANCH  29  31
ATOM     31  O   UNL     1       4.081  -5.352 -10.975  0.00  0.00    -0.486 OA
BRANCH  31  32
ATOM     32  C   UNL     1       3.230  -5.460 -12.028  0.00  0.00    +0.139 A 
ATOM     33  C   UNL     1       2.356  -6.534 -12.108  0.00  0.00    +0.047 A 
ATOM     34  C   UNL     1       1.491  -6.641 -13.180  0.00  0.00    +0.004 A 
ATOM     35  C   UNL     1       1.495  -5.680 -14.174  0.00  0.00    +0.002 A 
ATOM     36  C   UNL     1       2.366  -4.608 -14.098  0.00  0.00    +0.023 A 
ATOM     37  C   UNL     1       3.229  -4.493 -13.024  0.00  0.00    +0.083 A 
ATOM     38 CL   UNL     1       4.317  -3.143 -12.925  0.00  0.00    -0.080 Cl
ENDBRANCH  31  32
ENDBRANCH  29  31
ENDBRANCH  28  29
ENDBRANCH  26  28
ENDBRANCH   5  24
TORSDOF 8
