REMARK  Name = ZINC36637450
REMARK  12 active torsions:
REMARK  status: ('A' for Active; 'I' for Inactive)
REMARK    1  A    between atoms: C_1  and  C_2
REMARK    2  A    between atoms: C_2  and  O_3
REMARK    3  A    between atoms: O_3  and  C_4
REMARK    4  A    between atoms: N_13  and  C_14
REMARK    5  A    between atoms: C_14  and  C_15
REMARK    6  A    between atoms: C_15  and  N_16
REMARK    7  A    between atoms: N_16  and  C_17
REMARK    8  A    between atoms: N_16  and  C_18
REMARK    9  A    between atoms: C_19  and  C_21
REMARK   10  A    between atoms: C_24  and  S_27
REMARK   11  A    between atoms: S_27  and  N_30
REMARK   12  A    between atoms: C_33  and  C_36
REMARK                            x       y       z     vdW  Elec       q    Type
REMARK                         _______ _______ _______ _____ _____    ______ ____
ROOT
ATOM      1  C   UNL     1       0.579  -2.284  -1.641  0.00  0.00    +0.147 A 
ATOM      2  C   UNL     1       0.178  -3.229  -0.726  0.00  0.00    +0.048 A 
ATOM      3  C   UNL     1       0.693  -4.517  -0.744  0.00  0.00    +0.005 A 
ATOM      4  C   UNL     1       1.629  -4.860  -1.702  0.00  0.00    +0.017 A 
ATOM      5  C   UNL     1       2.036  -3.924  -2.621  0.00  0.00    +0.044 A 
ATOM      6  C   UNL     1       1.533  -2.604  -2.640  0.00  0.00    +0.122 A 
ATOM      7  N   UNL     1       2.027  -1.803  -3.610  0.00  0.00    -0.221 NA
ATOM      8  C   UNL     1       2.914  -2.218  -4.483  0.00  0.00    +0.168 A 
ATOM      9  S   UNL     1       3.175  -3.914  -3.984  0.00  0.00    -0.052 S 
ATOM     10  N   UNL     1       3.505  -1.516  -5.521  0.00  0.00    -0.248 N 
ATOM     11  C   UNL     1       3.180  -0.226  -5.734  0.00  0.00    +0.252 C 
ATOM     12  O   UNL     1       2.415   0.340  -4.978  0.00  0.00    -0.270 OA
ENDROOT
BRANCH  11  13
ATOM     13  C   UNL     1       3.754   0.501  -6.885  0.00  0.00    +0.037 A 
ATOM     14  C   UNL     1       4.203  -0.202  -8.005  0.00  0.00    +0.015 A 
ATOM     15  C   UNL     1       4.737   0.483  -9.077  0.00  0.00    +0.029 A 
ATOM     16  C   UNL     1       4.830   1.863  -9.043  0.00  0.00    +0.106 A 
ATOM     17  C   UNL     1       4.388   2.566  -7.936  0.00  0.00    +0.029 A 
ATOM     18  C   UNL     1       3.846   1.894  -6.860  0.00  0.00    +0.015 A 
BRANCH  16  19
ATOM     19  S   UNL     1       5.515   2.730 -10.416  0.00  0.00    +0.061 S 
ATOM     20  O   UNL     1       5.993   3.971  -9.915  0.00  0.00    -0.153 OA
ATOM     21  O   UNL     1       6.356   1.810 -11.099  0.00  0.00    -0.153 OA
BRANCH  19  22
ATOM     22  N   UNL     1       4.266   3.083 -11.444  0.00  0.00    -0.177 NA
ATOM     23  C   UNL     1       3.882   2.143 -12.506  0.00  0.00    +0.110 C 
ATOM     24  C   UNL     1       3.880   2.886 -13.845  0.00  0.00    +0.020 C 
ATOM     25  C   UNL     1       2.977   4.118 -13.740  0.00  0.00    -0.012 C 
ATOM     26  C   UNL     1       3.523   5.061 -12.665  0.00  0.00    +0.020 C 
ATOM     27  C   UNL     1       3.517   4.340 -11.309  0.00  0.00    +0.110 C 
ATOM     28  C   UNL     1       2.945   4.843 -15.086  0.00  0.00    +0.007 C 
ENDBRANCH  19  22
ENDBRANCH  16  19
ENDBRANCH  11  13
BRANCH   1  29
ATOM     29  O   UNL     1       0.051  -1.032  -1.592  0.00  0.00    -0.490 OA
BRANCH  29  31
ATOM     30  C   UNL     1      -1.384   0.677  -0.665  0.00  0.00    +0.048 C 
ATOM     31  C   UNL     1      -0.905  -0.772  -0.562  0.00  0.00    +0.226 C 
ENDBRANCH  29  31
ENDBRANCH   1  29
BRANCH  10  32
ATOM     32  C   UNL     1       4.483  -2.178  -6.389  0.00  0.00    +0.097 C 
BRANCH  32  33
ATOM     33  C   UNL     1       3.761  -3.153  -7.321  0.00  0.00    -0.060 C 
BRANCH  33  34
ATOM     34  N   UNL     1       4.750  -3.911  -8.098  0.00  0.00    +0.377 N 
ATOM     35  C   UNL     1       4.066  -4.945  -8.886  0.00  0.00    -0.097 C 
ATOM     36  C   UNL     1       5.466  -3.001  -9.002  0.00  0.00    -0.097 C 
ATOM     37  H   UNL     1       5.408  -4.348  -7.470  0.00  0.00    -0.083 HD
ENDBRANCH  33  34
ENDBRANCH  32  33
ENDBRANCH  10  32
TORSDOF 8
