REMARK  Name = ZINC35291668
REMARK  7 active torsions:
REMARK  status: ('A' for Active; 'I' for Inactive)
REMARK    1  A    between atoms: C_1  and  C_2
REMARK    2  A    between atoms: C_9  and  N_14
REMARK    3  A    between atoms: C_10  and  C_11
REMARK    4  A    between atoms: C_15  and  C_17
REMARK    5  A    between atoms: C_17  and  N_18
REMARK    6  A    between atoms: N_18  and  C_19
REMARK    7  A    between atoms: C_25  and  C_27
REMARK                            x       y       z     vdW  Elec       q    Type
REMARK                         _______ _______ _______ _____ _____    ______ ____
ROOT
ATOM      1  N   UNL     1       0.808  -6.821   2.207  0.00  0.00    -0.278 N 
ATOM      2  C   UNL     1       1.774  -6.750   3.144  0.00  0.00    +0.235 C 
ATOM      3  O   UNL     1       2.316  -5.690   3.378  0.00  0.00    -0.274 OA
ATOM      4  H   UNL     1       0.375  -7.669   2.020  0.00  0.00    +0.155 HD
ENDROOT
BRANCH   1  12
ATOM      5  C   UNL     1      -0.901  -0.201  -1.535  0.00  0.00    +0.008 C 
ATOM      6  C   UNL     1      -0.648  -1.685  -1.263  0.00  0.00    -0.009 C 
ATOM      7  C   UNL     1      -1.986  -2.425  -1.175  0.00  0.00    +0.008 C 
ATOM      8  C   UNL     1      -1.745  -3.936  -1.151  0.00  0.00    +0.037 C 
ATOM      9  C   UNL     1      -0.734  -4.251  -0.059  0.00  0.00    -0.023 A 
ATOM     10  C   UNL     1       0.065  -3.292   0.456  0.00  0.00    -0.004 A 
ATOM     11  S   UNL     1       1.045  -4.127   1.669  0.00  0.00    -0.077 S 
ATOM     12  C   UNL     1       0.434  -5.683   1.510  0.00  0.00    +0.084 A 
ATOM     13  C   UNL     1      -0.530  -5.568   0.520  0.00  0.00    +0.068 A 
ATOM     14  C   UNL     1       0.100  -1.845   0.069  0.00  0.00    +0.046 C 
BRANCH  13  15
ATOM     15  C   UNL     1      -1.312  -6.726   0.078  0.00  0.00    +0.244 C 
ATOM     16  O   UNL     1      -0.909  -7.418  -0.840  0.00  0.00    -0.270 OA
ATOM     17  N   UNL     1      -2.477  -7.026   0.686  0.00  0.00    -0.325 N 
ATOM     18  H   UNL     1      -2.798  -6.475   1.417  0.00  0.00    +0.145 HD
ATOM     19  H   UNL     1      -2.994  -7.792   0.393  0.00  0.00    +0.145 HD
ENDBRANCH  13  15
ENDBRANCH   1  12
BRANCH   2  20
ATOM     20  C   UNL     1       2.181  -7.987   3.902  0.00  0.00    +0.204 C 
BRANCH  20  21
ATOM     21  N   UNL     1       3.240  -7.650   4.856  0.00  0.00    -0.283 N 
ATOM     22  C   UNL     1       4.528  -7.642   4.458  0.00  0.00    +0.283 C 
ATOM     23  O   UNL     1       5.415  -7.458   5.271  0.00  0.00    -0.267 OA
BRANCH  21  24
ATOM     24  C   UNL     1       2.900  -7.320   6.242  0.00  0.00    +0.077 C 
ATOM     25  C   UNL     1       3.457  -5.938   6.589  0.00  0.00    +0.022 C 
ATOM     26  C   UNL     1       3.101  -5.593   8.037  0.00  0.00    +0.002 C 
ATOM     27  C   UNL     1       3.711  -6.638   8.974  0.00  0.00    +0.000 C 
ATOM     28  C   UNL     1       3.155  -8.020   8.627  0.00  0.00    +0.002 C 
ATOM     29  C   UNL     1       3.510  -8.365   7.179  0.00  0.00    +0.022 C 
ENDBRANCH  21  24
BRANCH  22  30
ATOM     30  C   UNL     1       4.861  -7.856   3.046  0.00  0.00    +0.189 A 
ATOM     31  C   UNL     1       6.118  -7.899   2.515  0.00  0.00    +0.054 A 
ATOM     32  C   UNL     1       5.967  -8.124   1.138  0.00  0.00    +0.042 A 
ATOM     33  C   UNL     1       4.641  -8.207   0.891  0.00  0.00    +0.196 A 
ATOM     34  O   UNL     1       3.978  -8.050   2.044  0.00  0.00    -0.458 OA
ENDBRANCH  22  30
ENDBRANCH  20  21
ENDBRANCH   2  20
TORSDOF 6
