REMARK  Name = ZINC13804379
REMARK  8 active torsions:
REMARK  status: ('A' for Active; 'I' for Inactive)
REMARK    1  A    between atoms: C_1  and  C_2
REMARK    2  A    between atoms: C_2  and  C_3
REMARK    3  A    between atoms: C_6  and  C_9
REMARK    4  A    between atoms: N_10  and  N_11
REMARK    5  A    between atoms: C_12  and  C_14
REMARK    6  A    between atoms: C_15  and  C_25
REMARK    7  A    between atoms: C_25  and  S_26
REMARK    8  A    between atoms: S_26  and  C_27
REMARK                            x       y       z     vdW  Elec       q    Type
REMARK                         _______ _______ _______ _____ _____    ______ ____
ROOT
ATOM      1  C   UNL     1       1.918   4.540  -1.089  0.00  0.00    +0.173 A 
ATOM      2  C   UNL     1       1.855   3.722   0.004  0.00  0.00    +0.089 A 
ATOM      3  N   UNL     1       1.932   4.520   1.093  0.00  0.00    -0.191 N 
ATOM      4  N   UNL     1       2.035   5.837   0.623  0.00  0.00    -0.058 NA
ATOM      5  N   UNL     1       2.020   5.811  -0.664  0.00  0.00    -0.124 NA
ATOM      6  C   UNL     1       1.911   4.110   2.431  0.00  0.00    +0.240 A 
ATOM      7  C   UNL     1       1.996   4.991   3.599  0.00  0.00    +0.206 A 
ATOM      8  N   UNL     1       1.946   4.253   4.674  0.00  0.00    -0.032 NA
ATOM      9  O   UNL     1       1.831   2.901   4.267  0.00  0.00    -0.239 OA
ATOM     10  N   UNL     1       1.809   2.881   2.850  0.00  0.00    -0.027 NA
ATOM     11  N   UNL     1       2.110   6.377   3.567  0.00  0.00    -0.337 N 
ATOM     12  H   UNL     1       2.140   6.841   2.717  0.00  0.00    +0.144 HD
ATOM     13  H   UNL     1       2.159   6.878   4.396  0.00  0.00    +0.144 HD
ENDROOT
BRANCH   1  15
ATOM     14  N   UNL     1       1.946   5.012  -3.488  0.00  0.00    -0.202 N 
ATOM     15  C   UNL     1       1.876   4.102  -2.496  0.00  0.00    +0.285 C 
ATOM     16  O   UNL     1       1.778   2.919  -2.762  0.00  0.00    -0.267 OA
ATOM     17  H   UNL     1       2.024   5.955  -3.275  0.00  0.00    +0.178 HD
BRANCH  14  19
ATOM     18  C   UNL     1       1.974   5.472  -5.779  0.00  0.00    +0.138 C 
ATOM     19  N   UNL     1       1.907   4.596  -4.825  0.00  0.00    -0.187 NA
BRANCH  18  23
ATOM     20  C   UNL     1       1.856   4.211  -9.830  0.00  0.00    -0.048 A 
ATOM     21  C   UNL     1       1.966   5.557  -9.531  0.00  0.00    +0.004 A 
ATOM     22  C   UNL     1       2.005   5.974  -8.217  0.00  0.00    +0.010 A 
ATOM     23  C   UNL     1       1.932   5.034  -7.187  0.00  0.00    -0.005 A 
ATOM     24  C   UNL     1       1.826   3.676  -7.496  0.00  0.00    +0.010 A 
ATOM     25  C   UNL     1       1.784   3.273  -8.815  0.00  0.00    +0.004 A 
BRANCH  20  27
ATOM     26  C   UNL     1       3.238   3.495 -11.761  0.00  0.00    +0.009 C 
ATOM     27  C   UNL     1       1.814   3.763 -11.269  0.00  0.00    +0.032 C 
ENDBRANCH  20  27
ENDBRANCH  18  23
ENDBRANCH  14  19
ENDBRANCH   1  15
BRANCH   2  28
ATOM     28  C   UNL     1       1.732   2.220  -0.003  0.00  0.00    +0.132 C 
BRANCH  28  29
ATOM     29  S   UNL     1      -0.022   1.758   0.012  0.00  0.00    -0.119 S 
BRANCH  29  30
ATOM     30  C   UNL     1       0.002  -0.004   0.002  0.00  0.00    +0.008 A 
ATOM     31  C   UNL     1       1.214  -0.684  -0.019  0.00  0.00    +0.016 A 
ATOM     32  C   UNL     1       1.229  -2.065  -0.021  0.00  0.00    +0.021 A 
ATOM     33  C   UNL     1       0.040  -2.771  -0.014  0.00  0.00    +0.041 A 
ATOM     34  C   UNL     1      -1.169  -2.097   0.002  0.00  0.00    +0.021 A 
ATOM     35  C   UNL     1      -1.191  -0.717   0.010  0.00  0.00    +0.016 A 
ATOM     36 CL   UNL     1       0.063  -4.507  -0.023  0.00  0.00    -0.084 Cl
ENDBRANCH  29  30
ENDBRANCH  28  29
ENDBRANCH   2  28
TORSDOF 7
