REMARK  Name = ZINC09260890
REMARK  3 active torsions:
REMARK  status: ('A' for Active; 'I' for Inactive)
REMARK    1  A    between atoms: C_1  and  C_2
REMARK    2  A    between atoms: C_2  and  C_24
REMARK    3  A    between atoms: C_6  and  C_14
REMARK                            x       y       z     vdW  Elec       q    Type
REMARK                         _______ _______ _______ _____ _____    ______ ____
ROOT
ATOM      1  C   UNL     1      -0.919   9.321   2.912  0.00  0.00    +0.011 C 
ATOM      2  C   UNL     1      -1.677   8.132   3.507  0.00  0.00    -0.023 C 
ATOM      3  C   UNL     1      -2.720   7.633   2.505  0.00  0.00    +0.058 C 
ATOM      4  C   UNL     1      -2.032   7.173   1.241  0.00  0.00    +0.020 C 
ATOM      5  C   UNL     1      -0.791   6.644   1.281  0.00  0.00    +0.041 C 
ATOM      6  C   UNL     1      -0.082   6.158   0.036  0.00  0.00    +0.177 C 
ATOM      7  N   UNL     1      -0.774   6.638  -1.151  0.00  0.00    -0.201 N 
ATOM      8  C   UNL     1      -2.019   7.180  -1.125  0.00  0.00    +0.240 A 
ATOM      9  N   UNL     1      -2.332   7.489  -2.350  0.00  0.00    -0.092 NA
ATOM     10  N   UNL     1      -1.367   7.185  -3.148  0.00  0.00    -0.021 NA
ATOM     11  N   UNL     1      -0.384   6.663  -2.488  0.00  0.00    -0.042 NA
ATOM     12  N   UNL     1      -2.720   7.322   0.060  0.00  0.00    -0.286 N 
ATOM     13  C   UNL     1      -0.097   6.523   2.499  0.00  0.00    +0.164 C 
ATOM     14  O   UNL     1       1.014   6.030   2.503  0.00  0.00    -0.292 OA
ATOM     15  C   UNL     1      -0.699   6.989   3.795  0.00  0.00    +0.086 C 
ATOM     16  C   UNL     1      -2.370   8.559   4.803  0.00  0.00    +0.011 C 
ATOM     17  H   UNL     1      -3.670   7.521   0.058  0.00  0.00    +0.155 HD
ENDROOT
BRANCH   6  18
ATOM     18  C   UNL     1      -0.061   4.651   0.027  0.00  0.00    -0.018 A 
ATOM     19  C   UNL     1       1.145   3.977   0.013  0.00  0.00    +0.007 A 
ATOM     20  C   UNL     1       1.165   2.595   0.005  0.00  0.00    +0.015 A 
ATOM     21  C   UNL     1      -0.024   1.887   0.012  0.00  0.00    +0.018 A 
ATOM     22  C   UNL     1      -1.231   2.562   0.022  0.00  0.00    +0.015 A 
ATOM     23  C   UNL     1      -1.249   3.944   0.035  0.00  0.00    +0.007 A 
ATOM     24 BR   UNL     1       0.002  -0.004   0.002  0.00  0.00    -0.050 Br
ENDBRANCH   6  18
TORSDOF 1
