REMARK  Name = ZINC23053442
REMARK  11 active torsions:
REMARK  status: ('A' for Active; 'I' for Inactive)
REMARK    1  A    between atoms: C_1  and  C_2
REMARK    2  A    between atoms: C_5  and  S_8
REMARK    3  A    between atoms: S_8  and  N_11
REMARK    4  A    between atoms: N_11  and  C_12
REMARK    5  A    between atoms: N_11  and  C_18
REMARK    6  A    between atoms: C_12  and  C_13
REMARK    7  A    between atoms: C_18  and  C_19
REMARK    8  A    between atoms: N_21  and  C_22
REMARK    9  A    between atoms: C_22  and  C_23
REMARK   10  A    between atoms: C_26  and  C_29
REMARK   11  A    between atoms: C_29  and  N_30
REMARK                            x       y       z     vdW  Elec       q    Type
REMARK                         _______ _______ _______ _____ _____    ______ ____
ROOT
ATOM      1  C   UNL     1       1.147   1.655   0.000  0.00  0.00    +0.229 C 
ATOM      2  O   UNL     1       1.130   2.868   0.007  0.00  0.00    -0.274 OA
ATOM      3  N   UNL     1      -0.011   0.966   0.007  0.00  0.00    -0.310 N 
ATOM      4  H   UNL     1       0.004  -0.134   0.006  0.00  0.00    +0.149 HD
ENDROOT
BRANCH   1   5
ATOM      5  C   UNL     1       2.462   0.920  -0.017  0.00  0.00    +0.205 C 
BRANCH   5   6
ATOM      6  N   UNL     1       3.562   1.887  -0.022  0.00  0.00    -0.160 NA
BRANCH   6   7
ATOM      7  S   UNL     1       4.280   2.332   1.403  0.00  0.00    +0.062 S 
ATOM      8  O   UNL     1       4.863   3.609   1.182  0.00  0.00    -0.153 OA
ATOM      9  O   UNL     1       3.326   2.097   2.429  0.00  0.00    -0.153 OA
BRANCH   7  14
ATOM     10  C   UNL     1       8.839  -1.499   2.376  0.00  0.00    +0.044 C 
ATOM     11  C   UNL     1       7.701  -0.542   2.133  0.00  0.00    -0.050 A 
ATOM     12  C   UNL     1       7.917   0.623   1.421  0.00  0.00    +0.005 A 
ATOM     13  C   UNL     1       6.873   1.501   1.198  0.00  0.00    +0.029 A 
ATOM     14  C   UNL     1       5.612   1.213   1.687  0.00  0.00    +0.106 A 
ATOM     15  C   UNL     1       5.397   0.050   2.402  0.00  0.00    +0.029 A 
ATOM     16  C   UNL     1       6.440  -0.830   2.621  0.00  0.00    +0.005 A 
ENDBRANCH   7  14
ENDBRANCH   6   7
BRANCH   6  17
ATOM     17  C   UNL     1       4.028   2.460  -1.287  0.00  0.00    +0.184 C 
BRANCH  17  18
ATOM     18  C   UNL     1       3.173   3.649  -1.644  0.00  0.00    +0.120 A 
ATOM     19  C   UNL     1       3.408   4.923  -1.284  0.00  0.00    +0.046 A 
ATOM     20  C   UNL     1       2.363   5.703  -1.831  0.00  0.00    +0.041 A 
ATOM     21  C   UNL     1       1.552   4.858  -2.493  0.00  0.00    +0.195 A 
ATOM     22  O   UNL     1       2.050   3.616  -2.381  0.00  0.00    -0.466 OA
ENDBRANCH  17  18
ENDBRANCH   6  17
ENDBRANCH   5   6
ENDBRANCH   1   5
BRANCH   3  23
ATOM     23  C   UNL     1      -1.290   1.681   0.017  0.00  0.00    +0.139 C 
BRANCH  23  24
ATOM     24  C   UNL     1      -2.422   0.686   0.017  0.00  0.00    -0.030 A 
ATOM     25  C   UNL     1      -2.950   0.241  -1.180  0.00  0.00    +0.005 A 
ATOM     26  C   UNL     1      -3.986  -0.675  -1.180  0.00  0.00    +0.002 A 
ATOM     27  C   UNL     1      -4.499  -1.138   0.017  0.00  0.00    -0.064 A 
ATOM     28  C   UNL     1      -3.974  -0.689   1.214  0.00  0.00    +0.002 A 
ATOM     29  C   UNL     1      -2.935   0.224   1.214  0.00  0.00    +0.005 A 
BRANCH  27  30
ATOM     30  C   UNL     1      -5.630  -2.134   0.017  0.00  0.00    -0.043 C 
BRANCH  30  31
ATOM     31  N   UNL     1      -6.913  -1.418   0.028  0.00  0.00    +0.382 N 
ATOM     32  C   UNL     1      -7.091  -0.678   1.284  0.00  0.00    -0.078 C 
ATOM     33  C   UNL     1      -8.364   0.169   1.202  0.00  0.00    -0.019 C 
ATOM     34  C   UNL     1      -9.565  -0.747   0.952  0.00  0.00    -0.004 C 
ATOM     35  C   UNL     1      -9.332  -1.541  -0.336  0.00  0.00    -0.019 C 
ATOM     36  C   UNL     1      -8.031  -2.338  -0.210  0.00  0.00    -0.078 C 
ATOM     37  H   UNL     1      -6.900  -0.686  -0.793  0.00  0.00    -0.081 HD
ENDBRANCH  30  31
ENDBRANCH  27  30
ENDBRANCH  23  24
ENDBRANCH   3  23
TORSDOF 10
