REMARK  Name = ZINC02386103
REMARK  7 active torsions:
REMARK  status: ('A' for Active; 'I' for Inactive)
REMARK    1  A    between atoms: C_1  and  C_2
REMARK    2  A    between atoms: C_5  and  N_8
REMARK    3  A    between atoms: C_14  and  C_16
REMARK    4  A    between atoms: C_14  and  C_17
REMARK    5  A    between atoms: C_18  and  C_21
REMARK    6  A    between atoms: C_18  and  N_25
REMARK    7  A    between atoms: C_26  and  C_28
REMARK                            x       y       z     vdW  Elec       q    Type
REMARK                         _______ _______ _______ _____ _____    ______ ____
ROOT
ATOM      1  N   UNL     1      -1.925   1.646   0.823  0.00  0.00    -0.241 N 
ATOM      2  C   UNL     1      -0.572   1.515   0.839  0.00  0.00    +0.028 C 
ATOM      3  C   UNL     1      -0.188   0.298   0.369  0.00  0.00    +0.054 C 
ATOM      4  C   UNL     1       1.151  -0.108   0.270  0.00  0.00    +0.164 C 
ATOM      5  O   UNL     1       1.442  -1.218  -0.130  0.00  0.00    -0.292 OA
ATOM      6  C   UNL     1       2.222   0.881   0.677  0.00  0.00    +0.086 C 
ATOM      7  C   UNL     1       1.690   1.789   1.787  0.00  0.00    -0.023 C 
ATOM      8  C   UNL     1       0.442   2.539   1.308  0.00  0.00    +0.058 C 
ATOM      9  C   UNL     1       1.333   0.940   3.009  0.00  0.00    +0.011 C 
ATOM     10  C   UNL     1       2.769   2.803   2.172  0.00  0.00    +0.011 C 
ATOM     11  C   UNL     1      -1.445  -0.445   0.010  0.00  0.00    +0.237 C 
ATOM     12  C   UNL     1      -2.544   0.546   0.348  0.00  0.00    +0.261 C 
ATOM     13  O   UNL     1      -3.738   0.381   0.220  0.00  0.00    -0.272 OA
ENDROOT
BRANCH   1  18
ATOM     14  C   UNL     1      -4.664   6.310   2.539  0.00  0.00    +0.044 C 
ATOM     15  C   UNL     1      -3.937   5.072   2.083  0.00  0.00    -0.050 A 
ATOM     16  C   UNL     1      -3.170   5.106   0.933  0.00  0.00    +0.005 A 
ATOM     17  C   UNL     1      -2.502   3.972   0.513  0.00  0.00    +0.024 A 
ATOM     18  C   UNL     1      -2.602   2.797   1.246  0.00  0.00    +0.041 A 
ATOM     19  C   UNL     1      -3.377   2.765   2.397  0.00  0.00    +0.024 A 
ATOM     20  C   UNL     1      -4.038   3.903   2.815  0.00  0.00    +0.005 A 
ENDBRANCH   1  18
BRANCH  11  21
ATOM     21  C   UNL     1      -1.583  -1.713   0.855  0.00  0.00    +0.424 C 
ATOM     22  F   UNL     1      -1.506  -1.380   2.211  0.00  0.00    -0.167 F 
ATOM     23  F   UNL     1      -2.817  -2.317   0.592  0.00  0.00    -0.167 F 
ATOM     24  F   UNL     1      -0.551  -2.602   0.533  0.00  0.00    -0.167 F 
ENDBRANCH  11  21
BRANCH  11  25
ATOM     25  N   UNL     1      -1.463  -0.769  -1.419  0.00  0.00    -0.284 N 
ATOM     26  C   UNL     1      -1.308   0.208  -2.334  0.00  0.00    +0.281 C 
ATOM     27  O   UNL     1      -1.245   1.370  -1.978  0.00  0.00    -0.267 OA
ATOM     28  H   UNL     1      -1.586  -1.688  -1.706  0.00  0.00    +0.151 HD
BRANCH  26  29
ATOM     29  C   UNL     1      -1.216  -0.129  -3.758  0.00  0.00    +0.189 A 
ATOM     30  C   UNL     1      -1.059   0.758  -4.784  0.00  0.00    +0.054 A 
ATOM     31  C   UNL     1      -1.020   0.004  -5.968  0.00  0.00    +0.042 A 
ATOM     32  C   UNL     1      -1.153  -1.294  -5.617  0.00  0.00    +0.196 A 
ATOM     33  O   UNL     1      -1.265  -1.371  -4.284  0.00  0.00    -0.458 OA
ENDBRANCH  26  29
ENDBRANCH  11  25
TORSDOF 4
