REMARK  Name = ZINC35919139
REMARK  7 active torsions:
REMARK  status: ('A' for Active; 'I' for Inactive)
REMARK    1  A    between atoms: C_1  and  C_2
REMARK    2  A    between atoms: C_2  and  N_3
REMARK    3  A    between atoms: N_3  and  C_4
REMARK    4  A    between atoms: N_14  and  C_17
REMARK    5  A    between atoms: N_26  and  C_28
REMARK    6  A    between atoms: C_28  and  C_29
REMARK    7  A    between atoms: C_32  and  N_35
REMARK                            x       y       z     vdW  Elec       q    Type
REMARK                         _______ _______ _______ _____ _____    ______ ____
ROOT
ATOM      1  N   UNL     1       0.691  -0.516   1.168  0.00  0.00    -0.318 N 
ATOM      2  C   UNL     1       0.148   0.787   1.562  0.00  0.00    +0.130 C 
ATOM      3  C   UNL     1       2.061  -0.712   1.126  0.00  0.00    +0.128 A 
ATOM      4  C   UNL     1       2.733  -1.262   2.223  0.00  0.00    -0.003 A 
ATOM      5  C   UNL     1       4.094  -1.440   2.139  0.00  0.00    +0.048 A 
ATOM      6  N   UNL     1       4.727  -1.085   1.027  0.00  0.00    -0.219 NA
ATOM      7  C   UNL     1       4.068  -0.566   0.003  0.00  0.00    +0.220 A 
ATOM      8  N   UNL     1       2.756  -0.385   0.042  0.00  0.00    -0.199 NA
ATOM      9  N   UNL     1       4.765  -0.209  -1.138  0.00  0.00    -0.297 N 
ATOM     10  C   UNL     1       6.219  -0.407  -1.219  0.00  0.00    +0.127 C 
ATOM     11  C   UNL     1       6.530  -1.252  -2.461  0.00  0.00    +0.124 C 
ATOM     12  N   UNL     1       5.829  -0.668  -3.613  0.00  0.00    -0.327 N 
ATOM     13  C   UNL     1       4.375  -0.469  -3.532  0.00  0.00    +0.124 C 
ATOM     14  C   UNL     1       4.063   0.370  -2.293  0.00  0.00    +0.127 C 
ATOM     15  C   UNL     1       4.880  -2.033   3.278  0.00  0.00    +0.037 C 
ATOM     16  C   UNL     1       4.047  -1.984   4.560  0.00  0.00    -0.072 C 
ATOM     17  N   UNL     1       2.725  -2.567   4.285  0.00  0.00    +0.385 N 
ATOM     18  C   UNL     1       1.955  -1.637   3.453  0.00  0.00    -0.037 C 
ATOM     19  H   UNL     1       2.837  -3.443   3.796  0.00  0.00    -0.081 HD
ENDROOT
BRANCH  12  20
ATOM     20  C   UNL     1       6.534  -0.307  -4.766  0.00  0.00    +0.030 A 
ATOM     21  C   UNL     1       5.885   0.359  -5.798  0.00  0.00    +0.026 A 
ATOM     22  C   UNL     1       6.582   0.715  -6.935  0.00  0.00    +0.040 A 
ATOM     23  C   UNL     1       7.928   0.408  -7.048  0.00  0.00    +0.124 A 
ATOM     24  C   UNL     1       8.577  -0.256  -6.021  0.00  0.00    +0.040 A 
ATOM     25  C   UNL     1       7.884  -0.609  -4.879  0.00  0.00    +0.026 A 
ATOM     26  F   UNL     1       8.608   0.757  -8.162  0.00  0.00    -0.205 F 
ENDBRANCH  12  20
BRANCH   1  28
ATOM     27  C   UNL     1      -0.514  -1.569  -0.682  0.00  0.00    +0.024 C 
ATOM     28  C   UNL     1      -0.217  -1.612   0.818  0.00  0.00    +0.103 C 
ENDBRANCH   1  28
BRANCH  17  29
ATOM     29  C   UNL     1       2.016  -2.796   5.551  0.00  0.00    -0.043 C 
BRANCH  29  30
ATOM     30  C   UNL     1       2.750  -3.837   6.356  0.00  0.00    -0.064 A 
ATOM     31  C   UNL     1       2.440  -5.176   6.202  0.00  0.00    +0.004 A 
ATOM     32  C   UNL     1       3.114  -6.130   6.941  0.00  0.00    +0.033 A 
ATOM     33  C   UNL     1       4.097  -5.747   7.833  0.00  0.00    +0.126 A 
ATOM     34  C   UNL     1       4.407  -4.409   7.987  0.00  0.00    +0.033 A 
ATOM     35  C   UNL     1       3.737  -3.454   7.245  0.00  0.00    +0.004 A 
BRANCH  33  36
ATOM     36  N   UNL     1       4.817  -6.769   8.625  0.00  0.00    +0.056 N 
ATOM     37  O   UNL     1       4.546  -7.940   8.491  0.00  0.00    -0.126 OA
ATOM     38  O   UNL     1       5.677  -6.434   9.406  0.00  0.00    -0.126 OA
ENDBRANCH  33  36
ENDBRANCH  29  30
ENDBRANCH  17  29
TORSDOF 5
