REMARK  Name = ZINC40853087
REMARK  9 active torsions:
REMARK  status: ('A' for Active; 'I' for Inactive)
REMARK    1  A    between atoms: C_1  and  C_2
REMARK    2  A    between atoms: C_9  and  N_13
REMARK    3  A    between atoms: C_10  and  C_11
REMARK    4  A    between atoms: C_14  and  C_16
REMARK    5  A    between atoms: C_16  and  C_18
REMARK    6  A    between atoms: C_16  and  N_22
REMARK    7  A    between atoms: C_18  and  C_19
REMARK    8  A    between atoms: C_19  and  S_20
REMARK    9  A    between atoms: S_20  and  C_21
REMARK                            x       y       z     vdW  Elec       q    Type
REMARK                         _______ _______ _______ _____ _____    ______ ____
ROOT
ATOM      1  N   UNL     1       0.696  -5.849   2.431  0.00  0.00    -0.280 N 
ATOM      2  C   UNL     1       1.678  -6.098   3.319  0.00  0.00    +0.203 C 
ATOM      3  O   UNL     1       2.384  -5.194   3.713  0.00  0.00    -0.277 OA
ATOM      4  H   UNL     1       0.132  -6.573   2.116  0.00  0.00    +0.155 HD
ENDROOT
BRANCH   1  12
ATOM      5  C   UNL     1      -0.019   1.526   0.010  0.00  0.00    +0.008 C 
ATOM      6  C   UNL     1       0.002  -0.004   0.002  0.00  0.00    -0.009 C 
ATOM      7  C   UNL     1      -1.434  -0.537   0.019  0.00  0.00    +0.008 C 
ATOM      8  C   UNL     1      -1.433  -2.045  -0.237  0.00  0.00    +0.037 C 
ATOM      9  C   UNL     1      -0.464  -2.704   0.734  0.00  0.00    -0.018 A 
ATOM     10  C   UNL     1       0.485  -1.986   1.374  0.00  0.00    -0.004 A 
ATOM     11  S   UNL     1       1.344  -3.168   2.371  0.00  0.00    -0.077 S 
ATOM     12  C   UNL     1       0.493  -4.558   1.966  0.00  0.00    +0.090 A 
ATOM     13  C   UNL     1      -0.459  -4.119   1.059  0.00  0.00    +0.084 A 
ATOM     14  C   UNL     1       0.739  -0.515   1.248  0.00  0.00    +0.046 C 
BRANCH  13  15
ATOM     15  C   UNL     1      -1.399  -5.024   0.469  0.00  0.00    +0.102 C 
ATOM     16  N   UNL     1      -2.144  -5.741   0.000  0.00  0.00    -0.191 NA
ENDBRANCH  13  15
ENDBRANCH   1  12
BRANCH   2  17
ATOM     17  C   UNL     1       1.900  -7.501   3.824  0.00  0.00    +0.014 C 
BRANCH  17  18
ATOM     18  N   UNL     1       3.258  -7.616   4.372  0.00  0.00    +0.386 N 
ATOM     19  H   UNL     1       3.370  -6.963   5.132  0.00  0.00    -0.089 HD
ATOM     20  H   UNL     1       3.406  -8.555   4.710  0.00  0.00    -0.089 HD
ATOM     21  H   UNL     1       3.931  -7.409   3.648  0.00  0.00    -0.089 HD
ENDBRANCH  17  18
BRANCH  17  22
ATOM     22  C   UNL     1       0.880  -7.815   4.921  0.00  0.00    +0.003 C 
BRANCH  22  23
ATOM     23  C   UNL     1       1.022  -9.278   5.346  0.00  0.00    +0.068 C 
BRANCH  23  24
ATOM     24  S   UNL     1      -0.186  -9.650   6.646  0.00  0.00    -0.164 S 
ATOM     25  C   UNL     1       0.110 -11.397   7.034  0.00  0.00    +0.084 C 
ENDBRANCH  23  24
ENDBRANCH  22  23
ENDBRANCH  17  22
ENDBRANCH   2  17
TORSDOF 7
