REMARK  Name = ZINC00922685
REMARK  9 active torsions:
REMARK  status: ('A' for Active; 'I' for Inactive)
REMARK    1  A    between atoms: N_9  and  C_10
REMARK    2  A    between atoms: C_10  and  C_11
REMARK    3  A    between atoms: N_13  and  C_14
REMARK    4  A    between atoms: N_13  and  C_21
REMARK    5  A    between atoms: C_21  and  C_23
REMARK    6  A    between atoms: C_21  and  C_35
REMARK    7  A    between atoms: C_26  and  N_29
REMARK    8  A    between atoms: N_37  and  C_38
REMARK    9  A    between atoms: C_38  and  C_39
REMARK                            x       y       z     vdW  Elec       q    Type
REMARK                         _______ _______ _______ _____ _____    ______ ____
ROOT
ATOM      1  C   UNL     1       7.799  -0.366   2.823  0.00  0.00    +0.197 C 
ENDROOT
BRANCH   1   2
ATOM      2  C   UNL     1       8.788   0.770   2.873  0.00  0.00    -0.018 A 
ATOM      3  C   UNL     1       9.322   1.272   1.700  0.00  0.00    +0.008 A 
ATOM      4  C   UNL     1      10.228   2.314   1.743  0.00  0.00    +0.023 A 
ATOM      5  C   UNL     1      10.603   2.856   2.965  0.00  0.00    +0.030 A 
ATOM      6  C   UNL     1      10.065   2.349   4.141  0.00  0.00    +0.023 A 
ATOM      7  C   UNL     1       9.155   1.312   4.091  0.00  0.00    +0.008 A 
BRANCH   5   8
ATOM      8  N   UNL     1      11.520   3.909   3.012  0.00  0.00    -0.326 N 
ATOM      9  C   UNL     1      12.036   4.408   4.296  0.00  0.00    +0.133 C 
ATOM     10  C   UNL     1      13.566   4.461   4.215  0.00  0.00    +0.178 C 
ATOM     11  O   UNL     1      13.950   5.193   3.049  0.00  0.00    -0.377 OA
ATOM     12  C   UNL     1      13.530   4.598   1.819  0.00  0.00    +0.178 C 
ATOM     13  C   UNL     1      12.003   4.548   1.777  0.00  0.00    +0.133 C 
ENDBRANCH   5   8
ENDBRANCH   1   2
BRANCH   1  14
ATOM     14  C   UNL     1       8.463  -1.584   2.233  0.00  0.00    +0.239 C 
ATOM     15  O   UNL     1       8.024  -2.082   1.218  0.00  0.00    -0.273 OA
ATOM     16  N   UNL     1       9.544  -2.119   2.834  0.00  0.00    -0.311 N 
ATOM     17  H   UNL     1       9.895  -1.721   3.646  0.00  0.00    +0.149 HD
BRANCH  16  18
ATOM     18  C   UNL     1      10.190  -3.303   2.260  0.00  0.00    +0.135 C 
BRANCH  18  19
ATOM     19  C   UNL     1      11.384  -3.704   3.129  0.00  0.00    +0.135 C 
ATOM     20  C   UNL     1      12.102  -4.935   2.521  0.00  0.00    +0.035 C 
ATOM     21  C   UNL     1      13.530  -4.762   3.107  0.00  0.00    +0.031 C 
ATOM     22  C   UNL     1      13.684  -3.227   3.148  0.00  0.00    +0.160 C 
ATOM     23  O   UNL     1      12.368  -2.658   3.137  0.00  0.00    -0.375 OA
ENDBRANCH  18  19
ENDBRANCH  16  18
ENDBRANCH   1  14
BRANCH   1  26
ATOM     24  C   UNL     1       5.582  -0.792   1.907  0.00  0.00    +0.242 C 
ATOM     25  O   UNL     1       5.507  -1.776   2.612  0.00  0.00    -0.273 OA
ATOM     26  N   UNL     1       6.656   0.018   1.991  0.00  0.00    -0.254 N 
BRANCH  26  27
ATOM     27  C   UNL     1       6.679   1.226   1.284  0.00  0.00    +0.038 A 
ATOM     28  C   UNL     1       6.767   1.219  -0.102  0.00  0.00    +0.026 A 
ATOM     29  C   UNL     1       6.790   2.412  -0.797  0.00  0.00    +0.040 A 
ATOM     30  C   UNL     1       6.725   3.614  -0.114  0.00  0.00    +0.124 A 
ATOM     31  C   UNL     1       6.637   3.624   1.268  0.00  0.00    +0.040 A 
ATOM     32  C   UNL     1       6.608   2.433   1.967  0.00  0.00    +0.026 A 
ATOM     33  F   UNL     1       6.748   4.780  -0.796  0.00  0.00    -0.205 F 
ENDBRANCH  26  27
BRANCH  24  34
ATOM     34  C   UNL     1       4.474  -0.475   0.936  0.00  0.00    +0.242 C 
BRANCH  34  43
ATOM     35  C   UNL     1       0.032  -2.262   3.131  0.00  0.00    +0.002 A 
ATOM     36  C   UNL     1       0.695  -1.080   3.436  0.00  0.00    +0.002 A 
ATOM     37  C   UNL     1       1.846  -0.740   2.782  0.00  0.00    +0.029 A 
ATOM     38  C   UNL     1       2.360  -1.583   1.803  0.00  0.00    +0.090 A 
ATOM     39  C   UNL     1       1.695  -2.781   1.490  0.00  0.00    +0.113 A 
ATOM     40  C   UNL     1       0.516  -3.107   2.175  0.00  0.00    +0.032 A 
ATOM     41  N   UNL     1       2.398  -3.399   0.521  0.00  0.00    -0.129 NA
ATOM     42  N   UNL     1       3.432  -2.701   0.205  0.00  0.00    -0.064 NA
ATOM     43  N   UNL     1       3.464  -1.536   0.985  0.00  0.00    -0.235 N 
ENDBRANCH  34  43
ENDBRANCH  24  34
ENDBRANCH   1  26
TORSDOF 9
