REMARK  Name = ZINC20175709
REMARK  11 active torsions:
REMARK  status: ('A' for Active; 'I' for Inactive)
REMARK    1  A    between atoms: C_1  and  C_2
REMARK    2  A    between atoms: C_2  and  O_3
REMARK    3  A    between atoms: O_3  and  C_4
REMARK    4  A    between atoms: C_6  and  C_20
REMARK    5  A    between atoms: C_9  and  O_10
REMARK    6  A    between atoms: O_10  and  C_11
REMARK    7  A    between atoms: C_11  and  C_12
REMARK    8  A    between atoms: C_17  and  C_18
REMARK    9  A    between atoms: C_23  and  C_34
REMARK   10  A    between atoms: C_29  and  N_33
REMARK   11  A    between atoms: C_30  and  C_31
REMARK                            x       y       z     vdW  Elec       q    Type
REMARK                         _______ _______ _______ _____ _____    ______ ____
ROOT
ATOM      1  C   UNL     1      -0.056   3.845   0.023  0.00  0.00    +0.163 A 
ATOM      2  C   UNL     1      -1.244   3.131   0.031  0.00  0.00    +0.054 A 
ATOM      3  C   UNL     1      -1.220   1.749   0.017  0.00  0.00    -0.030 A 
ATOM      4  C   UNL     1      -0.013   1.076   0.008  0.00  0.00    +0.023 A 
ATOM      5  C   UNL     1       1.177   1.782   0.000  0.00  0.00    +0.063 A 
ATOM      6  C   UNL     1       1.159   3.168   0.008  0.00  0.00    +0.176 A 
ATOM      7 BR   UNL     1       2.826   0.857  -0.020  0.00  0.00    -0.046 Br
ENDROOT
BRANCH   3   8
ATOM      8  C   UNL     1      -2.513   0.975   0.019  0.00  0.00    +0.101 C 
ATOM      9  C   UNL     1      -2.583   0.101  -1.206  0.00  0.00    +0.049 A 
ATOM     10  C   UNL     1      -2.791   0.459  -2.531  0.00  0.00    +0.068 A 
ATOM     11  N   UNL     1      -2.774  -0.634  -3.256  0.00  0.00    -0.176 NA
ATOM     12  N   UNL     1      -2.554  -1.728  -2.405  0.00  0.00    -0.246 N 
ATOM     13  H   UNL     1      -2.504  -2.746  -2.819  0.00  0.00    +0.192 HD
ATOM     14  C   UNL     1      -2.441  -1.258  -1.152  0.00  0.00    +0.222 A 
ATOM     15  O   UNL     1      -2.227  -1.926   0.009  0.00  0.00    -0.423 OA
ATOM     16  C   UNL     1      -2.429  -1.256   1.161  0.00  0.00    +0.200 C 
ATOM     17  C   UNL     1      -2.572   0.086   1.237  0.00  0.00    +0.098 C 
ATOM     18  C   UNL     1      -2.999   1.860  -3.047  0.00  0.00    +0.068 C 
BRANCH  16  19
ATOM     19  N   UNL     1      -2.493  -1.979   2.326  0.00  0.00    -0.328 N 
ATOM     20  H   UNL     1      -2.657  -1.465   3.285  0.00  0.00    +0.145 HD
ATOM     21  H   UNL     1      -2.381  -3.073   2.302  0.00  0.00    +0.145 HD
ENDBRANCH  16  19
BRANCH  17  22
ATOM     22  C   UNL     1      -2.787   0.687   2.519  0.00  0.00    +0.101 C 
ATOM     23  N   UNL     1      -2.958   1.164   3.536  0.00  0.00    -0.191 NA
ENDBRANCH  17  22
ENDBRANCH   3   8
BRANCH   1  24
ATOM     24  O   UNL     1      -0.079   5.205   0.030  0.00  0.00    -0.489 OA
BRANCH  24  26
ATOM     25  C   UNL     1      -1.187   7.353   0.052  0.00  0.00    +0.048 C 
ATOM     26  C   UNL     1      -1.362   5.833   0.046  0.00  0.00    +0.226 C 
ENDBRANCH  24  26
ENDBRANCH   1  24
BRANCH   6  27
ATOM     27  O   UNL     1       2.327   3.865   0.000  0.00  0.00    -0.483 OA
BRANCH  27  28
ATOM     28  C   UNL     1       2.872   4.204  -1.277  0.00  0.00    +0.265 C 
BRANCH  28  29
ATOM     29  C   UNL     1       4.157   4.968  -1.088  0.00  0.00    -0.007 A 
ATOM     30  C   UNL     1       4.621   5.237   0.186  0.00  0.00    +0.007 A 
ATOM     31  C   UNL     1       5.802   5.933   0.360  0.00  0.00    +0.000 A 
ATOM     32  C   UNL     1       6.514   6.370  -0.742  0.00  0.00    +0.000 A 
ATOM     33  C   UNL     1       6.048   6.106  -2.016  0.00  0.00    +0.004 A 
ATOM     34  C   UNL     1       4.869   5.405  -2.189  0.00  0.00    -0.044 A 
ATOM     35  C   UNL     1       4.361   5.118  -3.578  0.00  0.00    +0.044 C 
ENDBRANCH  28  29
ENDBRANCH  27  28
ENDBRANCH   6  27
TORSDOF 8
