REMARK  Name = ZINC10041795
REMARK  10 active torsions:
REMARK  status: ('A' for Active; 'I' for Inactive)
REMARK    1  A    between atoms: C_1  and  C_2
REMARK    2  A    between atoms: C_2  and  C_3
REMARK    3  A    between atoms: C_2  and  C_4
REMARK    4  A    between atoms: C_4  and  C_6
REMARK    5  A    between atoms: C_4  and  N_20
REMARK    6  A    between atoms: N_8  and  N_9
REMARK    7  A    between atoms: C_10  and  C_11
REMARK    8  A    between atoms: C_16  and  O_17
REMARK    9  A    between atoms: O_17  and  C_18
REMARK   10  A    between atoms: C_21  and  C_23
REMARK                            x       y       z     vdW  Elec       q    Type
REMARK                         _______ _______ _______ _____ _____    ______ ____
ROOT
ATOM      1  C   UNL     1       2.172   5.749  -0.085  0.00  0.00    +0.163 C 
ENDROOT
BRANCH   1   2
ATOM      2  C   UNL     1       2.171   4.251   0.079  0.00  0.00    +0.253 C 
ATOM      3  O   UNL     1       3.068   3.588  -0.398  0.00  0.00    -0.272 OA
ATOM      4  N   UNL     1       1.174   3.648   0.757  0.00  0.00    -0.205 N 
ATOM      5  H   UNL     1       0.494   4.183   1.196  0.00  0.00    +0.177 HD
BRANCH   4   6
ATOM      6  N   UNL     1       1.120   2.250   0.826  0.00  0.00    -0.188 NA
ATOM      7  C   UNL     1       0.160   1.670   1.479  0.00  0.00    +0.142 C 
BRANCH   7   8
ATOM      8  C   UNL     1       0.103   0.199   1.552  0.00  0.00    +0.037 A 
ATOM      9  C   UNL     1      -0.926  -0.430   2.258  0.00  0.00    +0.028 A 
ATOM     10  C   UNL     1      -0.976  -1.807   2.318  0.00  0.00    +0.019 A 
ATOM     11  C   UNL     1      -0.004  -2.570   1.690  0.00  0.00    +0.019 A 
ATOM     12  C   UNL     1       1.021  -1.959   0.993  0.00  0.00    +0.047 A 
ATOM     13  C   UNL     1       1.083  -0.577   0.918  0.00  0.00    +0.129 A 
ATOM     14 BR   UNL     1      -2.372  -2.658   3.268  0.00  0.00    -0.050 Br
BRANCH  13  15
ATOM     15  O   UNL     1       2.090   0.024   0.233  0.00  0.00    -0.494 OA
ATOM     16  C   UNL     1       3.053  -0.831  -0.387  0.00  0.00    +0.277 C 
ENDBRANCH  13  15
ENDBRANCH   7   8
ENDBRANCH   4   6
ENDBRANCH   1   2
BRANCH   1  17
ATOM     17  N   UNL     1       3.551   6.224  -0.224  0.00  0.00    -0.300 N 
ATOM     18  C   UNL     1       3.865   7.490   0.114  0.00  0.00    +0.246 C 
ATOM     19  O   UNL     1       3.004   8.238   0.535  0.00  0.00    -0.270 OA
ATOM     20  H   UNL     1       4.238   5.627  -0.560  0.00  0.00    +0.150 HD
BRANCH  18  21
ATOM     21  C   UNL     1       5.255   7.969  -0.026  0.00  0.00    +0.055 A 
ATOM     22  C   UNL     1       6.247   7.112  -0.509  0.00  0.00    +0.016 A 
ATOM     23  C   UNL     1       7.543   7.565  -0.638  0.00  0.00    +0.021 A 
ATOM     24  C   UNL     1       7.863   8.867  -0.289  0.00  0.00    +0.042 A 
ATOM     25  C   UNL     1       6.886   9.722   0.191  0.00  0.00    +0.040 A 
ATOM     26  C   UNL     1       5.583   9.283   0.319  0.00  0.00    +0.054 A 
ATOM     27 CL   UNL     1       4.357  10.359   0.913  0.00  0.00    -0.083 Cl
ATOM     28 CL   UNL     1       9.498   9.429  -0.455  0.00  0.00    -0.083 Cl
ENDBRANCH  18  21
ENDBRANCH   1  17
BRANCH   1  30
ATOM     29  C   UNL     1      -0.078   5.675  -1.168  0.00  0.00    +0.009 C 
ATOM     30  C   UNL     1       1.375   6.126  -1.335  0.00  0.00    +0.012 C 
ATOM     31  C   UNL     1       1.419   7.643  -1.531  0.00  0.00    +0.009 C 
ENDBRANCH   1  30
TORSDOF 7
