REMARK  Name = ZINC22714692
REMARK  11 active torsions:
REMARK  status: ('A' for Active; 'I' for Inactive)
REMARK    1  A    between atoms: C_1  and  C_2
REMARK    2  A    between atoms: C_2  and  C_4
REMARK    3  A    between atoms: C_2  and  N_11
REMARK    4  A    between atoms: C_12  and  C_14
REMARK    5  A    between atoms: C_14  and  C_16
REMARK    6  A    between atoms: C_14  and  S_17
REMARK    7  A    between atoms: S_17  and  C_18
REMARK    8  A    between atoms: C_21  and  C_24
REMARK    9  A    between atoms: N_22  and  N_23
REMARK   10  A    between atoms: C_27  and  O_30
REMARK   11  A    between atoms: O_30  and  C_31
REMARK                            x       y       z     vdW  Elec       q    Type
REMARK                         _______ _______ _______ _____ _____    ______ ____
ROOT
ATOM      1  C   UNL     1       1.140  -2.304  -0.769  0.00  0.00    +0.209 A 
ATOM      2  N   UNL     1       0.098  -3.040  -0.455  0.00  0.00    -0.121 NA
ATOM      3  N   UNL     1       0.421  -4.284  -0.450  0.00  0.00    -0.127 NA
ATOM      4  C   UNL     1       1.692  -4.418  -0.752  0.00  0.00    +0.182 A 
ATOM      5  N   UNL     1       2.192  -3.154  -0.966  0.00  0.00    -0.224 N 
ENDROOT
BRANCH   4   6
ATOM      6  C   UNL     1       2.443  -5.688  -0.845  0.00  0.00    +0.021 A 
ATOM      7  C   UNL     1       1.759  -6.900  -0.951  0.00  0.00    +0.015 A 
ATOM      8  C   UNL     1       2.464  -8.081  -1.042  0.00  0.00    +0.046 A 
ATOM      9  C   UNL     1       3.852  -8.067  -1.018  0.00  0.00    +0.127 A 
ATOM     10  C   UNL     1       4.536  -6.864  -0.908  0.00  0.00    +0.046 A 
ATOM     11  C   UNL     1       3.839  -5.678  -0.822  0.00  0.00    +0.015 A 
BRANCH   9  12
ATOM     12  O   UNL     1       4.543  -9.234  -1.103  0.00  0.00    -0.434 OA
BRANCH  12  13
ATOM     13  C   UNL     1       3.777 -10.435  -1.214  0.00  0.00    +0.541 C 
ATOM     14  F   UNL     1       2.951 -10.567  -0.093  0.00  0.00    -0.166 F 
ATOM     15  F   UNL     1       2.989 -10.380  -2.369  0.00  0.00    -0.166 F 
ENDBRANCH  12  13
ENDBRANCH   9  12
ENDBRANCH   4   6
BRANCH   5  16
ATOM     16  N   UNL     1       3.472  -2.819  -1.304  0.00  0.00    -0.295 N 
ATOM     17  H   UNL     1       4.230  -3.606  -1.434  0.00  0.00    +0.163 HD
ATOM     18  H   UNL     1       3.745  -1.763  -1.447  0.00  0.00    +0.163 HD
ENDBRANCH   5  16
BRANCH   1  19
ATOM     19  S   UNL     1       1.177  -0.548  -0.903  0.00  0.00    -0.072 S 
BRANCH  19  20
ATOM     20  C   UNL     1      -0.547  -0.166  -0.507  0.00  0.00    +0.137 C 
ATOM     21  C   UNL     1      -0.838  -0.562   0.941  0.00  0.00    +0.029 C 
BRANCH  20  23
ATOM     22  N   UNL     1      -2.042   1.775  -0.848  0.00  0.00    -0.308 N 
ATOM     23  C   UNL     1      -0.788   1.312  -0.682  0.00  0.00    +0.227 C 
ATOM     24  O   UNL     1       0.148   2.083  -0.678  0.00  0.00    -0.275 OA
ATOM     25  H   UNL     1      -2.891   1.076  -0.856  0.00  0.00    +0.149 HD
BRANCH  22  27
ATOM     26  C   UNL     1      -2.099   3.587  -2.490  0.00  0.00    +0.033 C 
ATOM     27  C   UNL     1      -2.276   3.212  -1.017  0.00  0.00    +0.100 C 
BRANCH  27  28
ATOM     28  C   UNL     1      -3.677   3.548  -0.577  0.00  0.00    -0.027 A 
ATOM     29  C   UNL     1      -4.722   2.698  -0.889  0.00  0.00    +0.008 A 
ATOM     30  C   UNL     1      -6.007   3.002  -0.481  0.00  0.00    +0.038 A 
ATOM     31  C   UNL     1      -6.250   4.166   0.229  0.00  0.00    +0.123 A 
ATOM     32  C   UNL     1      -5.204   5.019   0.536  0.00  0.00    +0.038 A 
ATOM     33  C   UNL     1      -3.918   4.710   0.133  0.00  0.00    +0.008 A 
ATOM     34  F   UNL     1      -7.506   4.468   0.622  0.00  0.00    -0.205 F 
ENDBRANCH  27  28
ENDBRANCH  22  27
ENDBRANCH  20  23
ENDBRANCH  19  20
ENDBRANCH   1  19
TORSDOF 9
