REMARK  Name = ZINC20856683
REMARK  10 active torsions:
REMARK  status: ('A' for Active; 'I' for Inactive)
REMARK    1  A    between atoms: C_1  and  C_2
REMARK    2  A    between atoms: C_3  and  C_28
REMARK    3  A    between atoms: C_5  and  C_24
REMARK    4  A    between atoms: C_7  and  N_8
REMARK    5  A    between atoms: C_11  and  C_14
REMARK    6  A    between atoms: C_14  and  N_15
REMARK    7  A    between atoms: C_17  and  C_20
REMARK    8  A    between atoms: C_20  and  C_21
REMARK    9  A    between atoms: C_20  and  C_22
REMARK   10  A    between atoms: C_20  and  N_23
REMARK                            x       y       z     vdW  Elec       q    Type
REMARK                         _______ _______ _______ _____ _____    ______ ____
ROOT
ATOM      1  N   UNL     1      -2.533   3.976  -0.193  0.00  0.00    -0.315 N 
ATOM      2  C   UNL     1      -3.249   3.446  -1.361  0.00  0.00    +0.107 C 
ATOM      3  C   UNL     1      -4.685   3.975  -1.364  0.00  0.00    +0.024 C 
ATOM      4  C   UNL     1      -4.660   5.505  -1.409  0.00  0.00    +0.013 C 
ATOM      5  C   UNL     1      -3.868   6.030  -0.209  0.00  0.00    +0.024 C 
ATOM      6  C   UNL     1      -2.455   5.442  -0.239  0.00  0.00    +0.107 C 
ENDROOT
BRANCH   1  13
ATOM      7  C   UNL     1      -1.911   2.431   2.149  0.00  0.00    +0.049 C 
ATOM      8  C   UNL     1      -0.924   2.656   1.032  0.00  0.00    +0.010 A 
ATOM      9  C   UNL     1       0.348   2.122   1.094  0.00  0.00    +0.047 A 
ATOM     10  N   UNL     1       1.188   2.337   0.091  0.00  0.00    -0.229 NA
ATOM     11  C   UNL     1       0.828   3.053  -0.955  0.00  0.00    +0.236 A 
ATOM     12  N   UNL     1      -0.373   3.585  -1.053  0.00  0.00    -0.209 NA
ATOM     13  C   UNL     1      -1.271   3.415  -0.087  0.00  0.00    +0.128 A 
ATOM     14  C   UNL     1       0.774   1.301   2.283  0.00  0.00    +0.066 C 
BRANCH  11  15
ATOM     15  C   UNL     1       1.818   3.269  -2.071  0.00  0.00    +0.452 C 
ATOM     16  F   UNL     1       2.876   2.363  -1.938  0.00  0.00    -0.163 F 
ATOM     17  F   UNL     1       1.185   3.069  -3.302  0.00  0.00    -0.163 F 
ATOM     18  F   UNL     1       2.314   4.576  -2.008  0.00  0.00    -0.163 F 
ENDBRANCH  11  15
ENDBRANCH   1  13
BRANCH   4  19
ATOM     19  C   UNL     1      -6.091   6.043  -1.352  0.00  0.00    +0.148 C 
BRANCH  19  20
ATOM     20  N   UNL     1      -6.813   5.639  -2.561  0.00  0.00    -0.251 N 
ATOM     21  C   UNL     1      -7.985   4.963  -2.596  0.00  0.00    +0.132 A 
ATOM     22  C   UNL     1      -8.288   4.802  -3.905  0.00  0.00    +0.071 A 
ATOM     23  N   UNL     1      -7.300   5.379  -4.598  0.00  0.00    -0.136 NA
ATOM     24  N   UNL     1      -6.445   5.870  -3.773  0.00  0.00    -0.065 NA
BRANCH  22  25
ATOM     25  C   UNL     1      -9.501   4.108  -4.471  0.00  0.00    -0.030 C 
ATOM     26  C   UNL     1      -9.448   4.154  -5.999  0.00  0.00    -0.004 C 
ATOM     27  C   UNL     1      -9.519   2.651  -4.004  0.00  0.00    -0.004 C 
BRANCH  25  28
ATOM     28  N   UNL     1     -10.716   4.788  -4.002  0.00  0.00    +0.385 N 
ATOM     29  H   UNL     1     -11.601   4.282  -4.415  0.00  0.00    -0.089 HD
ATOM     30  H   UNL     1     -10.703   5.835  -4.338  0.00  0.00    -0.089 HD
ATOM     31  H   UNL     1     -10.754   4.755  -2.904  0.00  0.00    -0.089 HD
ENDBRANCH  25  28
ENDBRANCH  22  25
ENDBRANCH  19  20
ENDBRANCH   4  19
TORSDOF 6
