REMARK  Name = ZINC41078141
REMARK  7 active torsions:
REMARK  status: ('A' for Active; 'I' for Inactive)
REMARK    1  A    between atoms: C_1  and  C_2
REMARK    2  A    between atoms: C_9  and  C_13
REMARK    3  A    between atoms: C_13  and  S_14
REMARK    4  A    between atoms: S_14  and  C_15
REMARK    5  A    between atoms: C_20  and  N_21
REMARK    6  A    between atoms: C_22  and  C_24
REMARK    7  A    between atoms: C_24  and  N_25
REMARK                            x       y       z     vdW  Elec       q    Type
REMARK                         _______ _______ _______ _____ _____    ______ ____
ROOT
ATOM      1  C   UNL     1       1.597  -5.616   5.886  0.00  0.00    +0.029 A 
ATOM      2  C   UNL     1       0.389  -6.199   6.243  0.00  0.00    +0.016 A 
ATOM      3  C   UNL     1       0.283  -6.896   7.432  0.00  0.00    +0.001 A 
ATOM      4  C   UNL     1       1.378  -7.014   8.268  0.00  0.00    +0.002 A 
ATOM      5  C   UNL     1       2.585  -6.438   7.920  0.00  0.00    +0.024 A 
ATOM      6  C   UNL     1       2.703  -5.741   6.727  0.00  0.00    +0.047 A 
ENDROOT
BRANCH   6   7
ATOM      7  N   UNL     1       3.927  -5.160   6.370  0.00  0.00    -0.283 N 
ATOM      8  C   UNL     1       5.078  -5.655   6.867  0.00  0.00    +0.235 C 
ATOM      9  O   UNL     1       5.064  -6.662   7.542  0.00  0.00    -0.274 OA
ATOM     10  H   UNL     1       3.946  -4.402   5.765  0.00  0.00    +0.155 HD
BRANCH   8  11
ATOM     11  C   UNL     1       6.383  -4.956   6.584  0.00  0.00    +0.213 C 
BRANCH  11  12
ATOM     12  N   UNL     1       7.477  -5.684   7.231  0.00  0.00    -0.225 N 
ATOM     13  C   UNL     1       7.911  -5.452   8.482  0.00  0.00    +0.254 C 
ATOM     14  O   UNL     1       7.465  -4.618   9.244  0.00  0.00    -0.270 OA
ATOM     15  C   UNL     1       9.022  -6.382   8.776  0.00  0.00    +0.049 A 
ATOM     16  C   UNL     1       9.836  -6.601   9.876  0.00  0.00    +0.014 A 
ATOM     17  C   UNL     1      10.813  -7.582   9.823  0.00  0.00    +0.001 A 
ATOM     18  C   UNL     1      10.981  -8.343   8.681  0.00  0.00    +0.001 A 
ATOM     19  C   UNL     1      10.174  -8.136   7.574  0.00  0.00    +0.014 A 
ATOM     20  C   UNL     1       9.193  -7.158   7.612  0.00  0.00    +0.049 A 
ATOM     21  C   UNL     1       8.177  -6.677   6.652  0.00  0.00    +0.254 C 
ATOM     22  O   UNL     1       8.004  -7.105   5.529  0.00  0.00    -0.270 OA
ENDBRANCH  11  12
ENDBRANCH   8  11
ENDBRANCH   6   7
BRANCH   1  23
ATOM     23  S   UNL     1       1.735  -4.728   4.370  0.00  0.00    -0.117 S 
BRANCH  23  24
ATOM     24  C   UNL     1       0.077  -4.838   3.643  0.00  0.00    +0.130 C 
BRANCH  24  33
ATOM     25  C   UNL     1      -0.020   1.487  -0.005  0.00  0.00    +0.044 C 
ATOM     26  C   UNL     1      -0.006  -0.020  -0.006  0.00  0.00    -0.046 A 
ATOM     27  C   UNL     1      -0.011  -0.725  -1.217  0.00  0.00    +0.021 A 
ATOM     28  C   UNL     1       0.002  -2.077  -1.216  0.00  0.00    +0.096 A 
ATOM     29  N   UNL     1       0.020  -2.772  -0.046  0.00  0.00    -0.268 N 
ATOM     30  C   UNL     1       0.026  -2.113   1.152  0.00  0.00    +0.141 A 
ATOM     31  C   UNL     1       0.017  -0.706   1.172  0.00  0.00    +0.050 A 
ATOM     32  N   UNL     1       0.043  -2.785   2.301  0.00  0.00    -0.233 NA
ATOM     33  C   UNL     1       0.057  -4.109   2.325  0.00  0.00    +0.059 A 
ATOM     34  C   UNL     1       0.052  -4.822   1.142  0.00  0.00    +0.094 A 
ATOM     35  C   UNL     1       0.033  -4.122  -0.070  0.00  0.00    +0.259 A 
ATOM     36  O   UNL     1       0.028  -4.723  -1.133  0.00  0.00    -0.267 OA
ENDBRANCH  24  33
ENDBRANCH  23  24
ENDBRANCH   1  23
TORSDOF 6
