REMARK  Name = ZINC14470536
REMARK  7 active torsions:
REMARK  status: ('A' for Active; 'I' for Inactive)
REMARK    1  A    between atoms: C_1  and  C_2
REMARK    2  A    between atoms: C_5  and  N_9
REMARK    3  A    between atoms: C_7  and  C_8
REMARK    4  A    between atoms: N_9  and  S_10
REMARK    5  A    between atoms: S_10  and  C_13
REMARK    6  A    between atoms: C_26  and  C_29
REMARK    7  A    between atoms: C_33  and  N_35
REMARK                            x       y       z     vdW  Elec       q    Type
REMARK                         _______ _______ _______ _____ _____    ______ ____
ROOT
ATOM      1  C   UNL     1       2.743  -1.784  -2.858  0.00  0.00    +0.109 A 
ATOM      2  C   UNL     1       1.688  -2.260  -2.101  0.00  0.00    +0.030 A 
ATOM      3  C   UNL     1       1.108  -1.446  -1.148  0.00  0.00    +0.025 A 
ATOM      4  C   UNL     1       1.583  -0.156  -0.954  0.00  0.00    +0.031 A 
ATOM      5  C   UNL     1       2.643   0.325  -1.708  0.00  0.00    -0.018 A 
ATOM      6  C   UNL     1       3.217  -0.503  -2.664  0.00  0.00    +0.034 A 
ATOM      7  C   UNL     1       3.193   1.703  -1.528  0.00  0.00    +0.049 C 
ATOM      8  C   UNL     1       2.768   2.619  -2.651  0.00  0.00    -0.023 C 
ATOM      9  C   UNL     1       2.550   3.828  -2.194  0.00  0.00    -0.030 C 
ATOM     10  C   UNL     1       2.807   3.884  -0.700  0.00  0.00    +0.033 C 
ATOM     11  C   UNL     1       2.672   2.398  -0.255  0.00  0.00    +0.029 C 
ATOM     12  C   UNL     1       1.178   2.109  -0.078  0.00  0.00    +0.105 C 
ATOM     13  N   UNL     1       0.983   0.658   0.013  0.00  0.00    -0.336 N 
ATOM     14  H   UNL     1       0.450   0.272   0.726  0.00  0.00    +0.147 HD
ENDROOT
BRANCH  12  15
ATOM     15  C   UNL     1       0.683   2.765   1.185  0.00  0.00    -0.025 A 
ATOM     16  C   UNL     1       0.914   2.168   2.410  0.00  0.00    +0.007 A 
ATOM     17  C   UNL     1       0.466   2.772   3.569  0.00  0.00    +0.022 A 
ATOM     18  C   UNL     1      -0.225   3.970   3.502  0.00  0.00    +0.071 A 
ATOM     19  C   UNL     1      -0.460   4.564   2.276  0.00  0.00    +0.145 A 
ATOM     20  C   UNL     1      -0.006   3.961   1.117  0.00  0.00    +0.039 A 
ATOM     21 CL   UNL     1      -0.795   4.726   4.957  0.00  0.00    -0.081 Cl
BRANCH  19  22
ATOM     22  N   UNL     1      -1.198   5.845   2.203  0.00  0.00    +0.058 N 
ATOM     23  O   UNL     1      -1.405   6.368   1.123  0.00  0.00    -0.126 OA
ATOM     24  O   UNL     1      -1.598   6.376   3.224  0.00  0.00    -0.126 OA
ENDBRANCH  19  22
ENDBRANCH  12  15
BRANCH   1  25
ATOM     25  S   UNL     1       3.485  -2.818  -4.077  0.00  0.00    +0.072 S 
ATOM     26  O   UNL     1       4.758  -2.257  -4.365  0.00  0.00    -0.150 OA
ATOM     27  O   UNL     1       3.326  -4.156  -3.626  0.00  0.00    -0.150 OA
BRANCH  25  28
ATOM     28  N   UNL     1       2.581  -2.674  -5.457  0.00  0.00    -0.216 N 
ATOM     29  H   UNL     1       2.113  -3.445  -5.814  0.00  0.00    +0.174 HD
BRANCH  28  34
ATOM     30  C   UNL     1       2.219   2.329  -8.102  0.00  0.00    +0.044 C 
ATOM     31  C   UNL     1       2.316   1.000  -7.399  0.00  0.00    -0.047 A 
ATOM     32  C   UNL     1       1.240   0.525  -6.670  0.00  0.00    +0.005 A 
ATOM     33  C   UNL     1       1.323  -0.695  -6.029  0.00  0.00    +0.025 A 
ATOM     34  C   UNL     1       2.492  -1.441  -6.108  0.00  0.00    +0.048 A 
ATOM     35  C   UNL     1       3.570  -0.961  -6.840  0.00  0.00    +0.028 A 
ATOM     36  C   UNL     1       3.479   0.258  -7.483  0.00  0.00    -0.046 A 
ATOM     37  C   UNL     1       4.648   0.779  -8.278  0.00  0.00    +0.044 C 
ENDBRANCH  28  34
ENDBRANCH  25  28
ENDBRANCH   1  25
TORSDOF 5
