REMARK  Name = ZINC06198073
REMARK  7 active torsions:
REMARK  status: ('A' for Active; 'I' for Inactive)
REMARK    1  A    between atoms: C_1  and  C_2
REMARK    2  A    between atoms: C_2  and  C_3
REMARK    3  A    between atoms: C_10  and  C_15
REMARK    4  A    between atoms: C_15  and  C_17
REMARK    5  A    between atoms: C_15  and  N_60
REMARK    6  A    between atoms: N_21  and  C_22
REMARK    7  A    between atoms: C_22  and  C_23
REMARK                            x       y       z     vdW  Elec       q    Type
REMARK                         _______ _______ _______ _____ _____    ______ ____
ROOT
ATOM      1  C   UNL     1       5.207   1.603  -0.238  0.00  0.00    +0.039 C 
ENDROOT
BRANCH   1   9
ATOM      2  C   UNL     1       0.522   5.292  -1.890  0.00  0.00    -0.047 A 
ATOM      3  C   UNL     1      -0.092   5.331  -0.645  0.00  0.00    +0.005 A 
ATOM      4  C   UNL     1       0.442   4.646   0.425  0.00  0.00    +0.026 A 
ATOM      5  C   UNL     1       1.607   3.904   0.257  0.00  0.00    +0.049 A 
ATOM      6  C   UNL     1       2.224   3.863  -1.008  0.00  0.00    -0.001 A 
ATOM      7  C   UNL     1       1.663   4.566  -2.079  0.00  0.00    +0.013 A 
ATOM      8  C   UNL     1       3.449   3.079  -1.175  0.00  0.00    +0.017 A 
ATOM      9  C   UNL     1       3.947   2.418  -0.100  0.00  0.00    +0.011 A 
ATOM     10  C   UNL     1       3.289   2.492   1.146  0.00  0.00    +0.251 A 
ATOM     11  O   UNL     1       3.753   1.890   2.099  0.00  0.00    -0.268 OA
ATOM     12  N   UNL     1       2.164   3.209   1.309  0.00  0.00    -0.322 N 
ATOM     13  H   UNL     1       1.724   3.240   2.207  0.00  0.00    +0.169 HD
BRANCH   2  15
ATOM     14  C   UNL     1      -1.075   5.158  -3.783  0.00  0.00    +0.009 C 
ATOM     15  C   UNL     1      -0.079   6.054  -3.043  0.00  0.00    +0.032 C 
ENDBRANCH   2  15
ENDBRANCH   1   9
BRANCH   1  21
ATOM     16  C   UNL     1       6.509   3.538   0.411  0.00  0.00    -0.077 C 
ATOM     17  C   UNL     1       7.465   4.082   1.475  0.00  0.00    -0.019 C 
ATOM     18  C   UNL     1       8.764   3.271   1.449  0.00  0.00    -0.004 C 
ATOM     19  C   UNL     1       8.439   1.794   1.684  0.00  0.00    -0.019 C 
ATOM     20  C   UNL     1       7.454   1.316   0.615  0.00  0.00    -0.077 C 
ATOM     21  N   UNL     1       6.217   2.119   0.709  0.00  0.00    +0.389 N 
ATOM     22  H   UNL     1       5.846   2.049   1.664  0.00  0.00    -0.080 HD
ENDBRANCH   1  21
BRANCH   1  23
ATOM     23  C   UNL     1       5.712   1.694  -1.654  0.00  0.00    +0.143 A 
ATOM     24  N   UNL     1       6.236   2.748  -2.232  0.00  0.00    -0.115 NA
ATOM     25  N   UNL     1       6.543   2.427  -3.441  0.00  0.00    -0.023 NA
ATOM     26  N   UNL     1       6.229   1.196  -3.650  0.00  0.00    -0.044 NA
ATOM     27  N   UNL     1       5.719   0.708  -2.570  0.00  0.00    -0.226 N 
BRANCH  27  28
ATOM     28  C   UNL     1       5.235  -0.661  -2.378  0.00  0.00    +0.182 C 
BRANCH  28  29
ATOM     29  C   UNL     1       3.785  -0.743  -2.783  0.00  0.00    -0.026 A 
ATOM     30  C   UNL     1       2.793  -0.559  -1.838  0.00  0.00    +0.008 A 
ATOM     31  C   UNL     1       1.464  -0.629  -2.209  0.00  0.00    +0.038 A 
ATOM     32  C   UNL     1       1.126  -0.893  -3.526  0.00  0.00    +0.123 A 
ATOM     33  C   UNL     1       2.120  -1.082  -4.470  0.00  0.00    +0.038 A 
ATOM     34  C   UNL     1       3.449  -1.006  -4.098  0.00  0.00    +0.008 A 
ATOM     35  F   UNL     1      -0.174  -0.966  -3.889  0.00  0.00    -0.205 F 
ENDBRANCH  28  29
ENDBRANCH  27  28
ENDBRANCH   1  23
TORSDOF 6
