REMARK  Name = ZINC20301983
REMARK  4 active torsions:
REMARK  status: ('A' for Active; 'I' for Inactive)
REMARK    1  A    between atoms: C_1  and  C_2
REMARK    2  A    between atoms: C_7  and  N_8
REMARK    3  A    between atoms: N_8  and  S_9
REMARK    4  A    between atoms: S_9  and  C_12
REMARK                            x       y       z     vdW  Elec       q    Type
REMARK                         _______ _______ _______ _____ _____    ______ ____
ROOT
ATOM      1  S   UNL     1      -0.129   5.697   0.057  0.00  0.00    +0.092 S 
ATOM      2  O   UNL     1      -1.371   6.162   0.568  0.00  0.00    -0.148 OA
ATOM      3  O   UNL     1       1.119   6.101   0.604  0.00  0.00    -0.148 OA
ENDROOT
BRANCH   1   4
ATOM      4  C   UNL     1      -0.173   3.938   0.151  0.00  0.00    +0.113 A 
ATOM      5  C   UNL     1       1.007   3.219   0.205  0.00  0.00    +0.049 A 
ATOM      6  C   UNL     1       0.973   1.838   0.278  0.00  0.00    +0.044 A 
ATOM      7  C   UNL     1      -0.242   1.176   0.297  0.00  0.00    +0.040 A 
ATOM      8  C   UNL     1      -1.422   1.896   0.238  0.00  0.00    +0.044 A 
ATOM      9  C   UNL     1      -1.387   3.277   0.169  0.00  0.00    +0.049 A 
ATOM     10 CL   UNL     1      -2.946   1.066   0.255  0.00  0.00    -0.083 Cl
ATOM     11 CL   UNL     1       2.454   0.935   0.345  0.00  0.00    -0.083 Cl
ENDBRANCH   1   4
BRANCH   1  12
ATOM     12  N   UNL     1      -0.095   6.101  -1.548  0.00  0.00    -0.098 NA
BRANCH  12  19
ATOM     13  C   UNL     1       0.520   5.395  -4.234  0.00  0.00    +0.046 C 
ATOM     14  C   UNL     1      -0.891   5.367  -3.705  0.00  0.00    -0.025 A 
ATOM     15  C   UNL     1      -1.931   4.984  -4.530  0.00  0.00    +0.020 A 
ATOM     16  C   UNL     1      -3.227   4.964  -4.047  0.00  0.00    +0.018 A 
ATOM     17  C   UNL     1      -3.485   5.321  -2.735  0.00  0.00    +0.017 A 
ATOM     18  C   UNL     1      -2.449   5.698  -1.904  0.00  0.00    +0.028 A 
ATOM     19  C   UNL     1      -1.146   5.720  -2.386  0.00  0.00    +0.077 A 
ATOM     20 BR   UNL     1      -4.649   4.448  -5.182  0.00  0.00    -0.050 Br
ENDBRANCH  12  19
ENDBRANCH   1  12
TORSDOF 3
