REMARK  Name = ZINC43958318
REMARK  11 active torsions:
REMARK  status: ('A' for Active; 'I' for Inactive)
REMARK    1  A    between atoms: C_1  and  C_2
REMARK    2  A    between atoms: C_3  and  C_30
REMARK    3  A    between atoms: C_4  and  C_29
REMARK    4  A    between atoms: C_5  and  S_10
REMARK    5  A    between atoms: C_6  and  C_9
REMARK    6  A    between atoms: C_7  and  C_8
REMARK    7  A    between atoms: S_10  and  N_13
REMARK    8  A    between atoms: N_13  and  C_14
REMARK    9  A    between atoms: C_14  and  C_15
REMARK   10  A    between atoms: C_21  and  C_23
REMARK   11  A    between atoms: C_24  and  C_28
REMARK                            x       y       z     vdW  Elec       q    Type
REMARK                         _______ _______ _______ _____ _____    ______ ____
ROOT
ATOM      1  N   UNL     1       1.969  -6.444   0.315  0.00  0.00    -0.190 NA
ATOM      2  H   UNL     1       1.636  -7.241  -0.127  0.00  0.00    +0.148 HD
ENDROOT
BRANCH   1   3
ATOM      3  S   UNL     1       1.118  -5.027   0.218  0.00  0.00    +0.059 S 
ATOM      4  O   UNL     1       1.011  -4.526   1.543  0.00  0.00    -0.153 OA
ATOM      5  O   UNL     1      -0.020  -5.291  -0.591  0.00  0.00    -0.153 OA
BRANCH   3  10
ATOM      6  C   UNL     1       4.536  -1.104  -2.838  0.00  0.00    +0.044 C 
ATOM      7  C   UNL     1       3.682  -2.084  -2.075  0.00  0.00    -0.044 A 
ATOM      8  C   UNL     1       3.786  -2.166  -0.699  0.00  0.00    -0.043 A 
ATOM      9  C   UNL     1       3.003  -3.064   0.001  0.00  0.00    -0.021 A 
ATOM     10  C   UNL     1       2.116  -3.881  -0.674  0.00  0.00    +0.112 A 
ATOM     11  C   UNL     1       2.011  -3.799  -2.050  0.00  0.00    -0.021 A 
ATOM     12  C   UNL     1       2.791  -2.897  -2.750  0.00  0.00    -0.043 A 
ATOM     13  C   UNL     1       2.673  -2.804  -4.250  0.00  0.00    +0.044 C 
ATOM     14  C   UNL     1       1.044  -4.689  -2.787  0.00  0.00    +0.046 C 
ATOM     15  C   UNL     1       3.117  -3.154   1.501  0.00  0.00    +0.046 C 
ATOM     16  C   UNL     1       4.753  -1.275   0.038  0.00  0.00    +0.044 C 
ENDBRANCH   3  10
ENDBRANCH   1   3
BRANCH   1  17
ATOM     17  C   UNL     1       3.224  -6.495   1.069  0.00  0.00    +0.109 C 
BRANCH  17  18
ATOM     18  C   UNL     1       3.610  -7.955   1.320  0.00  0.00    +0.007 C 
ATOM     19  C   UNL     1       3.909  -8.640  -0.015  0.00  0.00    +0.024 C 
ATOM     20  C   UNL     1       4.261 -10.109   0.237  0.00  0.00    +0.108 C 
ATOM     21  N   UNL     1       5.362 -10.172   1.208  0.00  0.00    -0.297 N 
ATOM     22  C   UNL     1       5.214  -9.470   2.490  0.00  0.00    +0.108 C 
ATOM     23  C   UNL     1       4.852  -8.007   2.212  0.00  0.00    +0.024 C 
ATOM     24  C   UNL     1       6.486 -10.861   0.928  0.00  0.00    +0.257 C 
ATOM     25  O   UNL     1       6.606 -11.418  -0.146  0.00  0.00    -0.269 OA
BRANCH  24  26
ATOM     26  C   UNL     1       7.568 -10.940   1.923  0.00  0.00    +0.117 A 
ATOM     27  C   UNL     1       8.925 -11.183   1.748  0.00  0.00    +0.081 A 
ATOM     28  N   UNL     1       9.622 -11.186   2.858  0.00  0.00    -0.146 NA
ATOM     29  N   UNL     1       9.085 -10.980   4.007  0.00  0.00    -0.110 NA
ATOM     30  S   UNL     1       7.511 -10.742   3.696  0.00  0.00    +0.041 S 
ATOM     31  C   UNL     1       9.544 -11.424   0.396  0.00  0.00    +0.069 C 
ENDBRANCH  24  26
ENDBRANCH  17  18
ENDBRANCH   1  17
TORSDOF 5
