REMARK  Name = ZINC41163727
REMARK  6 active torsions:
REMARK  status: ('A' for Active; 'I' for Inactive)
REMARK    1  A    between atoms: C_1  and  C_2
REMARK    2  A    between atoms: C_2  and  C_3
REMARK    3  A    between atoms: C_3  and  C_4
REMARK    4  A    between atoms: C_3  and  C_5
REMARK    5  A    between atoms: C_3  and  N_20
REMARK    6  A    between atoms: C_7  and  C_10
REMARK                            x       y       z     vdW  Elec       q    Type
REMARK                         _______ _______ _______ _____ _____    ______ ____
ROOT
ATOM      1  C   UNL     1      -1.413  -2.041   0.005  0.00  0.00    +0.067 A 
ATOM      2  N   UNL     1      -2.425  -2.862  -0.085  0.00  0.00    -0.242 NA
ATOM      3  C   UNL     1      -2.249  -4.178  -0.079  0.00  0.00    +0.113 A 
ATOM      4  C   UNL     1      -0.955  -4.619   0.026  0.00  0.00    +0.078 A 
ATOM      5  S   UNL     1      -0.081  -3.064   0.101  0.00  0.00    -0.081 S 
ENDROOT
BRANCH   3   6
ATOM      6  C   UNL     1      -3.386  -5.116  -0.179  0.00  0.00    +0.155 A 
ATOM      7  C   UNL     1      -3.295  -6.464  -0.078  0.00  0.00    +0.060 A 
ATOM      8  C   UNL     1      -4.659  -6.976  -0.238  0.00  0.00    +0.022 A 
ATOM      9  C   UNL     1      -5.225  -8.252  -0.235  0.00  0.00    +0.027 A 
ATOM     10  C   UNL     1      -6.583  -8.393  -0.419  0.00  0.00    +0.019 A 
ATOM     11  C   UNL     1      -7.384  -7.275  -0.606  0.00  0.00    +0.019 A 
ATOM     12  C   UNL     1      -6.836  -6.010  -0.612  0.00  0.00    +0.048 A 
ATOM     13  C   UNL     1      -5.470  -5.843  -0.428  0.00  0.00    +0.136 A 
ATOM     14  O   UNL     1      -4.670  -4.758  -0.379  0.00  0.00    -0.453 OA
ATOM     15 BR   UNL     1      -7.359 -10.118  -0.417  0.00  0.00    -0.050 Br
ENDBRANCH   3   6
BRANCH   1  16
ATOM     16  C   UNL     1      -1.433  -0.534   0.013  0.00  0.00    -0.024 C 
ATOM     17  C   UNL     1      -2.149  -0.040   1.272  0.00  0.00    -0.004 C 
BRANCH  16  18
ATOM     18  N   UNL     1      -2.144  -0.047  -1.177  0.00  0.00    +0.386 N 
ATOM     19  H   UNL     1      -1.671  -0.372  -2.007  0.00  0.00    -0.089 HD
ATOM     20  H   UNL     1      -3.090  -0.396  -1.170  0.00  0.00    -0.089 HD
ATOM     21  H   UNL     1      -2.158   0.962  -1.172  0.00  0.00    -0.089 HD
ENDBRANCH  16  18
BRANCH  16  23
ATOM     22  C   UNL     1      -0.019   1.526   0.010  0.00  0.00    +0.003 C 
ATOM     23  C   UNL     1       0.002  -0.004   0.002  0.00  0.00    -0.010 C 
ENDBRANCH  16  23
ENDBRANCH   1  16
TORSDOF 4
