REMARK  Name = ZINC21248352
REMARK  10 active torsions:
REMARK  status: ('A' for Active; 'I' for Inactive)
REMARK    1  A    between atoms: C_1  and  C_2
REMARK    2  A    between atoms: C_2  and  O_3
REMARK    3  A    between atoms: O_3  and  C_4
REMARK    4  A    between atoms: C_7  and  C_10
REMARK    5  A    between atoms: C_15  and  C_21
REMARK    6  A    between atoms: C_23  and  O_31
REMARK    7  A    between atoms: C_24  and  O_28
REMARK    8  A    between atoms: O_28  and  C_29
REMARK    9  A    between atoms: C_29  and  C_30
REMARK   10  A    between atoms: O_31  and  C_32
REMARK                            x       y       z     vdW  Elec       q    Type
REMARK                         _______ _______ _______ _____ _____    ______ ____
ROOT
ATOM      1  C   UNL     1       1.078   3.320   0.694  0.00  0.00    +0.032 C 
ATOM      2  C   UNL     1      -0.052   4.066  -0.019  0.00  0.00    +0.059 C 
ATOM      3  C   UNL     1      -1.309   3.234   0.015  0.00  0.00    +0.018 C 
ATOM      4  C   UNL     1      -1.246   1.886   0.018  0.00  0.00    +0.020 C 
ATOM      5  C   UNL     1      -2.520   1.073   0.051  0.00  0.00    +0.063 C 
ATOM      6  C   UNL     1      -3.570   1.803   0.890  0.00  0.00    +0.109 C 
ATOM      7  C   UNL     1      -3.634   3.244   0.456  0.00  0.00    +0.218 C 
ATOM      8  O   UNL     1      -4.690   3.839   0.486  0.00  0.00    -0.275 OA
ATOM      9  N   UNL     1      -2.523   3.873   0.035  0.00  0.00    -0.289 N 
ATOM     10  C   UNL     1      -0.014   1.211   0.009  0.00  0.00    +0.162 C 
ATOM     11  O   UNL     1       0.002  -0.004   0.002  0.00  0.00    -0.292 OA
ATOM     12  C   UNL     1       1.286   1.970   0.000  0.00  0.00    +0.088 C 
ATOM     13  H   UNL     1      -2.599   4.919  -0.296  0.00  0.00    +0.155 HD
ENDROOT
BRANCH   5  14
ATOM     14  C   UNL     1      -3.034   0.896  -1.355  0.00  0.00    -0.035 A 
ATOM     15  C   UNL     1      -3.174  -0.374  -1.883  0.00  0.00    +0.053 A 
ATOM     16  C   UNL     1      -3.652  -0.539  -3.173  0.00  0.00    +0.163 A 
ATOM     17  C   UNL     1      -3.980   0.576  -3.938  0.00  0.00    +0.176 A 
ATOM     18  C   UNL     1      -3.832   1.846  -3.405  0.00  0.00    +0.063 A 
ATOM     19  C   UNL     1      -3.359   2.004  -2.114  0.00  0.00    +0.023 A 
ATOM     20 BR   UNL     1      -4.275   3.365  -4.441  0.00  0.00    -0.046 Br
BRANCH  16  21
ATOM     21  O   UNL     1      -3.796  -1.788  -3.692  0.00  0.00    -0.491 OA
ATOM     22  C   UNL     1      -3.441  -2.886  -2.849  0.00  0.00    +0.277 C 
ENDBRANCH  16  21
BRANCH  17  23
ATOM     23  O   UNL     1      -4.445   0.419  -5.207  0.00  0.00    -0.487 OA
BRANCH  23  24
ATOM     24  C   UNL     1      -3.474   0.391  -6.255  0.00  0.00    +0.226 C 
ATOM     25  C   UNL     1      -4.181   0.209  -7.600  0.00  0.00    +0.048 C 
ENDBRANCH  23  24
ENDBRANCH  17  23
ENDBRANCH   5  14
BRANCH   1  29
ATOM     26  C   UNL     1       4.676   5.614   0.475  0.00  0.00    +0.121 A 
ATOM     27  C   UNL     1       4.143   5.274   1.710  0.00  0.00    +0.046 A 
ATOM     28  C   UNL     1       2.979   4.533   1.778  0.00  0.00    +0.007 A 
ATOM     29  C   UNL     1       2.347   4.129   0.617  0.00  0.00    -0.043 A 
ATOM     30  C   UNL     1       2.879   4.461  -0.615  0.00  0.00    +0.007 A 
ATOM     31  C   UNL     1       4.039   5.208  -0.689  0.00  0.00    +0.046 A 
BRANCH  26  32
ATOM     32  O   UNL     1       5.821   6.343   0.405  0.00  0.00    -0.492 OA
BRANCH  32  34
ATOM     33  C   UNL     1       7.599   7.475  -0.777  0.00  0.00    +0.048 C 
ATOM     34  C   UNL     1       6.312   6.656  -0.899  0.00  0.00    +0.225 C 
ENDBRANCH  32  34
ENDBRANCH  26  32
ENDBRANCH   1  29
TORSDOF 7
