REMARK  Name = ZINC01812426
REMARK  6 active torsions:
REMARK  status: ('A' for Active; 'I' for Inactive)
REMARK    1  A    between atoms: C_1  and  C_2
REMARK    2  A    between atoms: C_2  and  C_3
REMARK    3  A    between atoms: C_2  and  C_4
REMARK    4  A    between atoms: C_11  and  C_23
REMARK    5  A    between atoms: C_14  and  C_17
REMARK    6  A    between atoms: N_31  and  N_32
REMARK                            x       y       z     vdW  Elec       q    Type
REMARK                         _______ _______ _______ _____ _____    ______ ____
ROOT
ATOM      1  C   UNL     1       4.366   7.164   0.210  0.00  0.00    +0.134 A 
ATOM      2  N   UNL     1       3.201   7.443  -0.333  0.00  0.00    -0.225 NA
ATOM      3  C   UNL     1       2.334   6.442  -0.462  0.00  0.00    +0.116 A 
ATOM      4  C   UNL     1       2.594   5.120  -0.055  0.00  0.00    +0.077 A 
ATOM      5  C   UNL     1       1.528   4.143  -0.274  0.00  0.00    -0.020 A 
ATOM      6  C   UNL     1       0.400   4.615  -0.838  0.00  0.00    +0.013 A 
ATOM      7  S   UNL     1       0.699   6.351  -1.113  0.00  0.00    -0.072 S 
ATOM      8  C   UNL     1      -0.880   3.908  -1.191  0.00  0.00    +0.114 C 
ATOM      9  S   UNL     1      -0.574   2.114  -1.152  0.00  0.00    -0.139 S 
ATOM     10  C   UNL     1       0.444   1.946   0.347  0.00  0.00    +0.082 C 
ATOM     11  C   UNL     1       1.753   2.692   0.134  0.00  0.00    +0.055 C 
ATOM     12  C   UNL     1       3.876   4.855   0.534  0.00  0.00    +0.279 A 
ATOM     13  O   UNL     1       4.198   3.744   0.919  0.00  0.00    -0.265 OA
ATOM     14  N   UNL     1       4.705   5.922   0.633  0.00  0.00    -0.218 N 
ENDROOT
BRANCH  10  15
ATOM     15  C   UNL     1       0.729   0.488   0.604  0.00  0.00    -0.034 A 
ATOM     16  C   UNL     1       1.384  -0.267  -0.351  0.00  0.00    +0.005 A 
ATOM     17  C   UNL     1       1.649  -1.602  -0.114  0.00  0.00    +0.000 A 
ATOM     18  C   UNL     1       1.251  -2.186   1.075  0.00  0.00    +0.000 A 
ATOM     19  C   UNL     1       0.591  -1.432   2.027  0.00  0.00    +0.000 A 
ATOM     20  C   UNL     1       0.330  -0.095   1.792  0.00  0.00    +0.005 A 
ENDBRANCH  10  15
BRANCH   8  21
ATOM     21  C   UNL     1      -1.949   4.263  -0.190  0.00  0.00    -0.030 A 
ATOM     22  C   UNL     1      -1.690   4.160   1.164  0.00  0.00    +0.005 A 
ATOM     23  C   UNL     1      -2.669   4.490   2.082  0.00  0.00    +0.000 A 
ATOM     24  C   UNL     1      -3.910   4.914   1.646  0.00  0.00    +0.000 A 
ATOM     25  C   UNL     1      -4.171   5.012   0.292  0.00  0.00    +0.000 A 
ATOM     26  C   UNL     1      -3.190   4.686  -0.626  0.00  0.00    +0.005 A 
ENDBRANCH   8  21
BRANCH   1  28
ATOM     27  C   UNL     1       5.091   9.367  -0.667  0.00  0.00    +0.015 C 
ATOM     28  C   UNL     1       5.370   8.276   0.370  0.00  0.00    +0.051 C 
ATOM     29  C   UNL     1       5.255   8.868   1.776  0.00  0.00    +0.015 C 
ENDBRANCH   1  28
BRANCH  14  30
ATOM     30  N   UNL     1       5.941   5.737   1.184  0.00  0.00    -0.294 N 
ATOM     31  H   UNL     1       6.075   4.775   1.458  0.00  0.00    +0.163 HD
ATOM     32  H   UNL     1       6.668   6.037   0.552  0.00  0.00    +0.163 HD
ENDBRANCH  14  30
TORSDOF 4
