REMARK  Name = ZINC06009723
REMARK  5 active torsions:
REMARK  status: ('A' for Active; 'I' for Inactive)
REMARK    1  A    between atoms: C_1  and  C_2
REMARK    2  A    between atoms: C_3  and  C_4
REMARK    3  A    between atoms: C_5  and  C_6
REMARK    4  A    between atoms: N_8  and  C_26
REMARK    5  A    between atoms: C_30  and  S_32
REMARK                            x       y       z     vdW  Elec       q    Type
REMARK                         _______ _______ _______ _____ _____    ______ ____
ROOT
ATOM      1  C   UNL     1      -0.964   7.311   0.044  0.00  0.00    +0.063 C 
ATOM      2  N   UNL     1      -1.213   6.039   0.037  0.00  0.00    -0.182 NA
ATOM      3  N   UNL     1      -0.069   5.237   0.028  0.00  0.00    -0.198 N 
ATOM      4  C   UNL     1       1.104   6.108   0.021  0.00  0.00    +0.160 C 
ATOM      5  C   UNL     1       0.535   7.530   0.030  0.00  0.00    +0.107 C 
ATOM      6  C   UNL     1       2.174   5.812   1.069  0.00  0.00    +0.211 C 
ATOM      7  C   UNL     1       3.104   5.557  -0.103  0.00  0.00    +0.245 C 
ATOM      8  O   UNL     1       4.269   5.236  -0.203  0.00  0.00    -0.273 OA
ATOM      9  N   UNL     1       2.116   5.830  -0.999  0.00  0.00    -0.223 N 
ATOM     10  C   UNL     1       2.081   5.841  -2.384  0.00  0.00    +0.170 A 
ATOM     11  N   UNL     1       3.045   5.576  -3.234  0.00  0.00    -0.224 NA
ATOM     12  C   UNL     1       2.867   5.626  -4.572  0.00  0.00    +0.080 A 
ATOM     13  C   UNL     1       3.815   5.365  -5.589  0.00  0.00    +0.029 A 
ATOM     14  C   UNL     1       3.467   5.461  -6.911  0.00  0.00    +0.002 A 
ATOM     15  C   UNL     1       2.183   5.815  -7.299  0.00  0.00    +0.001 A 
ATOM     16  C   UNL     1       1.231   6.077  -6.331  0.00  0.00    +0.017 A 
ATOM     17  C   UNL     1       1.570   5.983  -5.004  0.00  0.00    +0.041 A 
ATOM     18  S   UNL     1       0.709   6.212  -3.467  0.00  0.00    -0.052 S 
ATOM     19 CL   UNL     1       2.632   7.243   2.065  0.00  0.00    -0.108 Cl
ENDROOT
BRANCH   3  20
ATOM     20  C   UNL     1      -0.050   3.843   0.022  0.00  0.00    +0.056 A 
ATOM     21  C   UNL     1       1.162   3.162   0.007  0.00  0.00    +0.025 A 
ATOM     22  C   UNL     1       1.177   1.782   0.000  0.00  0.00    +0.004 A 
ATOM     23  C   UNL     1      -0.013   1.076   0.008  0.00  0.00    +0.030 A 
ATOM     24  C   UNL     1      -1.220   1.749   0.017  0.00  0.00    +0.121 A 
ATOM     25  C   UNL     1      -1.243   3.130   0.030  0.00  0.00    +0.054 A 
BRANCH  24  26
ATOM     26  S   UNL     1      -2.732   0.844   0.020  0.00  0.00    +0.140 S 
ATOM     27  O   UNL     1      -3.723   1.707  -0.522  0.00  0.00    -0.140 OA
ATOM     28  O   UNL     1      -2.444  -0.430  -0.540  0.00  0.00    -0.140 OA
ATOM     29  O   UNL     1      -3.111   0.605   1.474  0.00  0.00    -0.043 OA
ENDBRANCH  24  26
ENDBRANCH   3  20
BRANCH   1  31
ATOM     30  C   UNL     1      -3.255   8.018   0.069  0.00  0.00    +0.001 C 
ATOM     31  C   UNL     1      -1.940   8.336   0.057  0.00  0.00    +0.025 C 
BRANCH  30  34
ATOM     32  C   UNL     1      -6.600   9.854   0.109  0.00  0.00    +0.035 C 
ATOM     33  C   UNL     1      -5.561   8.763   0.095  0.00  0.00    -0.030 C 
ATOM     34  C   UNL     1      -4.264   9.077   0.083  0.00  0.00    -0.004 C 
ENDBRANCH  30  34
ENDBRANCH   1  31
TORSDOF 4
