REMARK  Name = ZINC42814494
REMARK  8 active torsions:
REMARK  status: ('A' for Active; 'I' for Inactive)
REMARK    1  A    between atoms: C_1  and  C_2
REMARK    2  A    between atoms: C_2  and  N_3
REMARK    3  A    between atoms: C_4  and  C_6
REMARK    4  A    between atoms: C_6  and  N_7
REMARK    5  A    between atoms: N_15  and  C_16
REMARK    6  A    between atoms: C_16  and  C_17
REMARK    7  A    between atoms: C_17  and  C_19
REMARK    8  A    between atoms: C_17  and  N_25
REMARK                            x       y       z     vdW  Elec       q    Type
REMARK                         _______ _______ _______ _____ _____    ______ ____
ROOT
ATOM      1  N   UNL     1       0.443  -4.724   2.459  0.00  0.00    -0.291 NA
ATOM      2  C   UNL     1       0.676  -5.463   3.707  0.00  0.00    +0.104 C 
ATOM      3  C   UNL     1       2.184  -5.599   3.942  0.00  0.00    +0.124 C 
ATOM      4  N   UNL     1       2.793  -6.195   2.743  0.00  0.00    -0.283 N 
ATOM      5  C   UNL     1       2.493  -5.590   1.437  0.00  0.00    +0.124 C 
ATOM      6  C   UNL     1       0.973  -5.454   1.300  0.00  0.00    +0.104 C 
ATOM      7  C   UNL     1       3.603  -7.268   2.839  0.00  0.00    +0.302 C 
ATOM      8  O   UNL     1       4.024  -7.804   1.832  0.00  0.00    -0.253 OA
ATOM      9  N   UNL     1       3.948  -7.746   4.051  0.00  0.00    -0.300 N 
ATOM     10  H   UNL     1       3.556  -7.364   4.852  0.00  0.00    +0.150 HD
ENDROOT
BRANCH   1  11
ATOM     11  C   UNL     1      -0.984  -4.423   2.284  0.00  0.00    +0.180 C 
BRANCH  11  13
ATOM     12  N   UNL     1      -2.712  -3.051   3.403  0.00  0.00    -0.315 N 
ATOM     13  C   UNL     1      -1.432  -3.470   3.363  0.00  0.00    +0.227 C 
ATOM     14  O   UNL     1      -0.640  -3.081   4.196  0.00  0.00    -0.274 OA
ATOM     15  H   UNL     1      -3.345  -3.363   2.737  0.00  0.00    +0.149 HD
BRANCH  12  17
ATOM     16  C   UNL     1      -4.634  -1.812   4.270  0.00  0.00    +0.024 C 
ATOM     17  C   UNL     1      -3.148  -2.126   4.452  0.00  0.00    +0.101 C 
ENDBRANCH  12  17
ENDBRANCH  11  13
ENDBRANCH   1  11
BRANCH   9  18
ATOM     18  C   UNL     1       4.914  -8.842   4.159  0.00  0.00    +0.095 C 
BRANCH  18  19
ATOM     19  C   UNL     1       5.035  -9.273   5.622  0.00  0.00    -0.020 C 
BRANCH  19  20
ATOM     20  C   UNL     1       5.628  -8.148   6.430  0.00  0.00    -0.059 A 
ATOM     21  C   UNL     1       6.993  -7.929   6.412  0.00  0.00    +0.002 A 
ATOM     22  C   UNL     1       7.537  -6.897   7.154  0.00  0.00    +0.000 A 
ATOM     23  C   UNL     1       6.716  -6.084   7.912  0.00  0.00    +0.000 A 
ATOM     24  C   UNL     1       5.352  -6.302   7.929  0.00  0.00    +0.000 A 
ATOM     25  C   UNL     1       4.807  -7.331   7.185  0.00  0.00    +0.002 A 
ENDBRANCH  19  20
BRANCH  19  26
ATOM     26  N   UNL     1       5.904 -10.454   5.714  0.00  0.00    +0.385 N 
ATOM     27  C   UNL     1       5.888 -10.995   7.097  0.00  0.00    -0.078 C 
ATOM     28  C   UNL     1       6.342 -12.464   6.908  0.00  0.00    -0.020 C 
ATOM     29  C   UNL     1       5.666 -12.866   5.577  0.00  0.00    -0.020 C 
ATOM     30  C   UNL     1       5.386 -11.537   4.851  0.00  0.00    -0.078 C 
ATOM     31  H   UNL     1       6.846 -10.214   5.444  0.00  0.00    -0.081 HD
ENDBRANCH  19  26
ENDBRANCH  18  19
ENDBRANCH   9  18
TORSDOF 7
