REMARK  Name = ZINC40687931
REMARK  5 active torsions:
REMARK  status: ('A' for Active; 'I' for Inactive)
REMARK    1  A    between atoms: C_1  and  C_2
REMARK    2  A    between atoms: C_4  and  C_25
REMARK    3  A    between atoms: C_8  and  N_24
REMARK    4  A    between atoms: C_9  and  O_13
REMARK    5  A    between atoms: O_13  and  C_14
REMARK                            x       y       z     vdW  Elec       q    Type
REMARK                         _______ _______ _______ _____ _____    ______ ____
ROOT
ATOM      1  C   UNL     1       0.588   1.153  -0.635  0.00  0.00    +0.067 C 
ATOM      2  C   UNL     1      -0.065  -0.156  -0.272  0.00  0.00    +0.061 A 
ATOM      3  C   UNL     1      -1.250  -0.659  -0.820  0.00  0.00    +0.048 A 
ATOM      4  C   UNL     1      -1.505  -1.854  -0.238  0.00  0.00    +0.044 A 
ATOM      5  N   UNL     1      -0.509  -2.097   0.653  0.00  0.00    -0.217 N 
ATOM      6  N   UNL     1       0.382  -1.017   0.605  0.00  0.00    -0.170 NA
ATOM      7  C   UNL     1      -0.391  -3.226   1.468  0.00  0.00    +0.182 A 
ATOM      8  C   UNL     1      -0.145  -3.091   2.836  0.00  0.00    +0.132 A 
ATOM      9  C   UNL     1      -0.036  -4.252   3.604  0.00  0.00    +0.247 A 
ATOM     10  N   UNL     1      -0.170  -5.432   3.009  0.00  0.00    -0.199 NA
ATOM     11  C   UNL     1      -0.401  -5.516   1.714  0.00  0.00    +0.227 A 
ATOM     12  N   UNL     1      -0.516  -4.446   0.955  0.00  0.00    -0.214 NA
ATOM     13  C   UNL     1      -2.681  -2.751  -0.525  0.00  0.00    +0.066 C 
ENDROOT
BRANCH   8  14
ATOM     14  N   UNL     1      -0.011  -1.825   3.421  0.00  0.00    -0.351 N 
ATOM     15  H   UNL     1      -0.180  -1.027   2.895  0.00  0.00    +0.143 HD
ATOM     16  H   UNL     1       0.251  -1.746   4.351  0.00  0.00    +0.143 HD
ENDBRANCH   8  14
BRANCH   9  17
ATOM     17  O   UNL     1       0.202  -4.176   4.937  0.00  0.00    -0.436 OA
BRANCH  17  18
ATOM     18  C   UNL     1       0.289  -5.337   5.637  0.00  0.00    +0.131 A 
ATOM     19  C   UNL     1       1.425  -6.143   5.499  0.00  0.00    +0.047 A 
ATOM     20  C   UNL     1       1.541  -7.310   6.186  0.00  0.00    +0.012 A 
ATOM     21  C   UNL     1       0.508  -7.717   7.050  0.00  0.00    -0.018 A 
ATOM     22  C   UNL     1       0.596  -8.917   7.775  0.00  0.00    +0.008 A 
ATOM     23  C   UNL     1      -0.422  -9.280   8.602  0.00  0.00    +0.001 A 
ATOM     24  C   UNL     1      -1.554  -8.479   8.741  0.00  0.00    +0.001 A 
ATOM     25  C   UNL     1      -1.675  -7.311   8.054  0.00  0.00    +0.008 A 
ATOM     26  C   UNL     1      -0.643  -6.902   7.191  0.00  0.00    -0.014 A 
ATOM     27  C   UNL     1      -0.730  -5.700   6.471  0.00  0.00    +0.054 A 
ENDBRANCH  17  18
ENDBRANCH   9  17
TORSDOF 3
