REMARK  Name = ZINC22347757
REMARK  11 active torsions:
REMARK  status: ('A' for Active; 'I' for Inactive)
REMARK    1  A    between atoms: C_1  and  C_2
REMARK    2  A    between atoms: C_2  and  C_3
REMARK    3  A    between atoms: N_9  and  C_10
REMARK    4  A    between atoms: C_10  and  C_11
REMARK    5  A    between atoms: C_11  and  C_12
REMARK    6  A    between atoms: C_12  and  N_13
REMARK    7  A    between atoms: C_14  and  C_16
REMARK    8  A    between atoms: C_16  and  N_17
REMARK    9  A    between atoms: N_17  and  C_18
REMARK   10  A    between atoms: N_17  and  S_25
REMARK   11  A    between atoms: S_25  and  C_28
REMARK                            x       y       z     vdW  Elec       q    Type
REMARK                         _______ _______ _______ _____ _____    ______ ____
ROOT
ATOM      1  N   UNL     1      -4.978   1.178   2.792  0.00  0.00    -0.314 N 
ATOM      2  C   UNL     1      -6.298   0.906   2.752  0.00  0.00    +0.232 C 
ATOM      3  O   UNL     1      -6.784   0.404   1.760  0.00  0.00    -0.274 OA
ATOM      4  H   UNL     1      -4.538   1.634   3.691  0.00  0.00    +0.149 HD
ENDROOT
BRANCH   1   5
ATOM      5  C   UNL     1      -4.131   0.865   1.639  0.00  0.00    +0.102 C 
BRANCH   5   6
ATOM      6  C   UNL     1      -2.687   1.269   1.943  0.00  0.00    +0.000 C 
BRANCH   6   7
ATOM      7  C   UNL     1      -1.801   0.942   0.739  0.00  0.00    -0.077 C 
BRANCH   7  13
ATOM      8  C   UNL     1       0.483   0.936  -0.063  0.00  0.00    -0.069 C 
ATOM      9  C   UNL     1       1.887   1.482   0.207  0.00  0.00    -0.015 C 
ATOM     10  C   UNL     1       2.399   0.925   1.538  0.00  0.00    -0.003 C 
ATOM     11  C   UNL     1       1.421   1.308   2.652  0.00  0.00    -0.019 C 
ATOM     12  C   UNL     1       0.030   0.768   2.312  0.00  0.00    -0.078 C 
ATOM     13  N   UNL     1      -0.415   1.330   1.031  0.00  0.00    +0.382 N 
ATOM     14  H   UNL     1      -0.379   2.426   1.115  0.00  0.00    -0.081 HD
BRANCH   8  16
ATOM     15  C   UNL     1       0.832   1.007  -2.536  0.00  0.00    +0.002 C 
ATOM     16  C   UNL     1      -0.041   1.506  -1.383  0.00  0.00    -0.019 C 
ENDBRANCH   8  16
ENDBRANCH   7  13
ENDBRANCH   6   7
ENDBRANCH   5   6
ENDBRANCH   1   5
BRANCH   2  17
ATOM     17  C   UNL     1      -7.170   1.228   3.938  0.00  0.00    +0.226 C 
BRANCH  17  18
ATOM     18  N   UNL     1      -8.553   0.841   3.647  0.00  0.00    -0.199 N 
BRANCH  18  19
ATOM     19  C   UNL     1      -9.394   1.720   2.960  0.00  0.00    +0.051 A 
ATOM     20  C   UNL     1      -9.938   1.349   1.737  0.00  0.00    +0.026 A 
ATOM     21  C   UNL     1     -10.775   2.217   1.063  0.00  0.00    +0.016 A 
ATOM     22  C   UNL     1     -11.060   3.460   1.599  0.00  0.00    +0.013 A 
ATOM     23  C   UNL     1     -10.514   3.835   2.814  0.00  0.00    +0.016 A 
ATOM     24  C   UNL     1      -9.682   2.969   3.495  0.00  0.00    +0.026 A 
ATOM     25  I   UNL     1     -12.322   4.778   0.569  0.00  0.00    -0.044 I 
ENDBRANCH  18  19
BRANCH  18  26
ATOM     26  S   UNL     1      -9.118  -0.637   4.132  0.00  0.00    +0.043 S 
ATOM     27  O   UNL     1     -10.088  -0.993   3.155  0.00  0.00    -0.155 OA
ATOM     28  O   UNL     1      -7.953  -1.429   4.317  0.00  0.00    -0.155 OA
ATOM     29  C   UNL     1      -9.924  -0.328   5.728  0.00  0.00    +0.218 C 
ENDBRANCH  18  26
ENDBRANCH  17  18
ENDBRANCH   2  17
TORSDOF 9
