REMARK  Name = ZINC21845049
REMARK  6 active torsions:
REMARK  status: ('A' for Active; 'I' for Inactive)
REMARK    1  A    between atoms: C_3  and  C_6
REMARK    2  A    between atoms: C_12  and  C_14
REMARK    3  A    between atoms: C_14  and  S_15
REMARK    4  A    between atoms: S_15  and  C_16
REMARK    5  A    between atoms: C_19  and  C_22
REMARK    6  A    between atoms: N_20  and  N_21
REMARK                            x       y       z     vdW  Elec       q    Type
REMARK                         _______ _______ _______ _____ _____    ______ ____
ROOT
ATOM      1  C   UNL     1      -0.022   1.806   0.012  0.00  0.00    +0.173 C 
ENDROOT
BRANCH   1   7
ATOM      2  C   UNL     1      -1.530   4.223   2.636  0.00  0.00    +0.113 C 
ATOM      3  C   UNL     1      -1.423   5.754   2.475  0.00  0.00    +0.029 C 
ATOM      4  C   UNL     1      -0.212   5.918   1.519  0.00  0.00    +0.021 C 
ATOM      5  C   UNL     1      -0.374   4.689   0.594  0.00  0.00    +0.108 C 
ATOM      6  N   UNL     1      -0.867   3.614   1.474  0.00  0.00    -0.293 N 
ATOM      7  C   UNL     1      -0.728   2.292   1.252  0.00  0.00    +0.226 C 
ATOM      8  O   UNL     1      -1.170   1.493   2.050  0.00  0.00    -0.275 OA
BRANCH   2  11
ATOM      9  C   UNL     1      -5.072   3.147   3.537  0.00  0.00    +0.008 A 
ATOM     10  C   UNL     1      -3.751   3.500   3.743  0.00  0.00    +0.013 A 
ATOM     11  C   UNL     1      -2.979   3.812   2.673  0.00  0.00    +0.010 A 
ATOM     12  S   UNL     1      -4.127   3.617   1.320  0.00  0.00    -0.100 S 
ATOM     13  C   UNL     1      -5.556   3.124   2.271  0.00  0.00    +0.045 A 
ENDBRANCH   2  11
ENDBRANCH   1   7
BRANCH   1  14
ATOM     14  S   UNL     1       0.002  -0.004   0.002  0.00  0.00    -0.075 S 
BRANCH  14  15
ATOM     15  C   UNL     1       0.859  -0.290  -1.510  0.00  0.00    +0.209 A 
ATOM     16  N   UNL     1       1.310   0.625  -2.337  0.00  0.00    -0.121 NA
ATOM     17  N   UNL     1       1.887   0.062  -3.339  0.00  0.00    -0.123 NA
ATOM     18  C   UNL     1       1.832  -1.234  -3.216  0.00  0.00    +0.255 A 
ATOM     19  N   UNL     1       1.175  -1.505  -2.047  0.00  0.00    -0.220 N 
BRANCH  18  20
ATOM     20  C   UNL     1       2.388  -2.247  -4.184  0.00  0.00    +0.454 C 
ATOM     21  F   UNL     1       3.271  -1.614  -5.065  0.00  0.00    -0.163 F 
ATOM     22  F   UNL     1       3.070  -3.242  -3.475  0.00  0.00    -0.163 F 
ATOM     23  F   UNL     1       1.340  -2.825  -4.908  0.00  0.00    -0.163 F 
ENDBRANCH  18  20
BRANCH  19  24
ATOM     24  N   UNL     1       0.894  -2.736  -1.526  0.00  0.00    -0.295 N 
ATOM     25  H   UNL     1       1.206  -3.645  -2.061  0.00  0.00    +0.163 HD
ATOM     26  H   UNL     1       0.356  -2.818  -0.570  0.00  0.00    +0.163 HD
ENDBRANCH  19  24
ENDBRANCH  14  15
ENDBRANCH   1  14
TORSDOF 6
