REMARK  Name = ZINC67332876
REMARK  5 active torsions:
REMARK  status: ('A' for Active; 'I' for Inactive)
REMARK    1  A    between atoms: C_6  and  C_7
REMARK    2  A    between atoms: N_9  and  C_10
REMARK    3  A    between atoms: C_10  and  C_11
REMARK    4  A    between atoms: N_16  and  C_17
REMARK    5  A    between atoms: C_17  and  C_18
REMARK                            x       y       z     vdW  Elec       q    Type
REMARK                         _______ _______ _______ _____ _____    ______ ____
ROOT
ATOM      1  C   UNL     1      -0.961  -0.432   0.154  0.00  0.00    +0.244 C 
ATOM      2  O   UNL     1      -0.832  -1.641   0.144  0.00  0.00    -0.270 OA
ATOM      3  N   UNL     1      -2.192   0.115   0.119  0.00  0.00    -0.313 N 
ATOM      4  H   UNL     1      -2.295   1.080   0.127  0.00  0.00    +0.149 HD
ENDROOT
BRANCH   1  10
ATOM      5  C   UNL     1       0.085   1.825   0.213  0.00  0.00    +0.015 A 
ATOM      6  C   UNL     1       1.198   2.637   0.260  0.00  0.00    +0.028 A 
ATOM      7  C   UNL     1       2.466   2.075   0.296  0.00  0.00    +0.076 A 
ATOM      8  C   UNL     1       2.620   0.686   0.285  0.00  0.00    +0.143 A 
ATOM      9  C   UNL     1       1.509  -0.131   0.239  0.00  0.00    +0.060 A 
ATOM     10  C   UNL     1       0.232   0.436   0.203  0.00  0.00    +0.040 A 
ATOM     11  O   UNL     1       3.870   0.152   0.318  0.00  0.00    -0.481 OA
ATOM     12  C   UNL     1       4.904   0.895  -0.333  0.00  0.00    +0.325 C 
ATOM     13  C   UNL     1       4.808   2.347   0.062  0.00  0.00    +0.255 C 
ATOM     14  O   UNL     1       5.810   3.027   0.127  0.00  0.00    -0.272 OA
ATOM     15  N   UNL     1       3.603   2.887   0.344  0.00  0.00    -0.280 N 
ATOM     16  H   UNL     1       3.527   3.826   0.577  0.00  0.00    +0.155 HD
ENDBRANCH   1  10
BRANCH   3  17
ATOM     17  C   UNL     1      -3.376  -0.747   0.071  0.00  0.00    +0.089 C 
BRANCH  17  18
ATOM     18  C   UNL     1      -4.636   0.119   0.039  0.00  0.00    -0.051 C 
ATOM     19  C   UNL     1      -5.890  -0.773   0.159  0.00  0.00    -0.016 C 
ATOM     20  C   UNL     1      -6.232  -0.695   1.670  0.00  0.00    -0.020 C 
ATOM     21  C   UNL     1      -5.851   0.769   2.001  0.00  0.00    -0.078 C 
ATOM     22  N   UNL     1      -4.641   1.040   1.190  0.00  0.00    +0.383 N 
ATOM     23  H   UNL     1      -3.816   0.889   1.750  0.00  0.00    -0.081 HD
BRANCH  22  24
ATOM     24  C   UNL     1      -4.664   2.429   0.712  0.00  0.00    -0.075 C 
BRANCH  24  25
ATOM     25  C   UNL     1      -4.529   3.381   1.902  0.00  0.00    -0.028 C 
ATOM     26  C   UNL     1      -4.692   4.824   1.422  0.00  0.00    +0.002 C 
ATOM     27  C   UNL     1      -4.557   5.776   2.612  0.00  0.00    +0.000 C 
ATOM     28  C   UNL     1      -3.177   5.604   3.249  0.00  0.00    +0.000 C 
ATOM     29  C   UNL     1      -3.013   4.160   3.729  0.00  0.00    +0.000 C 
ATOM     30  C   UNL     1      -3.148   3.209   2.539  0.00  0.00    +0.002 C 
ENDBRANCH  24  25
ENDBRANCH  22  24
ENDBRANCH  17  18
ENDBRANCH   3  17
TORSDOF 5
