REMARK  Name = ZINC13640703
REMARK  9 active torsions:
REMARK  status: ('A' for Active; 'I' for Inactive)
REMARK    1  A    between atoms: C_1  and  O_2
REMARK    2  A    between atoms: O_2  and  C_3
REMARK    3  A    between atoms: C_5  and  C_13
REMARK    4  A    between atoms: C_7  and  O_11
REMARK    5  A    between atoms: C_8  and  O_9
REMARK    6  A    between atoms: O_9  and  C_10
REMARK    7  A    between atoms: O_11  and  C_12
REMARK    8  A    between atoms: C_24  and  N_29
REMARK    9  A    between atoms: N_29  and  C_30
REMARK                            x       y       z     vdW  Elec       q    Type
REMARK                         _______ _______ _______ _____ _____    ______ ____
ROOT
ATOM      1  C   UNL     1      -0.879   0.289  -3.272  0.00  0.00    +0.105 C 
ATOM      2  C   UNL     1      -0.960   1.722  -2.776  0.00  0.00    +0.029 C 
ATOM      3  C   UNL     1      -1.944   2.011  -1.634  0.00  0.00    +0.033 C 
ATOM      4  C   UNL     1      -1.266   3.189  -0.933  0.00  0.00    -0.030 C 
ATOM      5  C   UNL     1       0.043   3.157  -1.154  0.00  0.00    -0.023 C 
ATOM      6  C   UNL     1       0.355   1.960  -1.977  0.00  0.00    +0.049 C 
ATOM      7  C   UNL     1       1.481   1.940  -2.935  0.00  0.00    -0.018 A 
ATOM      8  C   UNL     1       2.598   2.732  -2.780  0.00  0.00    +0.029 A 
ATOM      9  C   UNL     1       3.647   2.648  -3.686  0.00  0.00    +0.032 A 
ATOM     10  C   UNL     1       3.568   1.763  -4.754  0.00  0.00    +0.025 A 
ATOM     11  C   UNL     1       2.448   0.976  -4.918  0.00  0.00    +0.025 A 
ATOM     12  C   UNL     1       1.392   1.059  -4.019  0.00  0.00    +0.031 A 
ATOM     13  N   UNL     1       0.257   0.259  -4.219  0.00  0.00    -0.336 N 
ATOM     14  H   UNL     1       0.216  -0.325  -4.993  0.00  0.00    +0.147 HD
ENDROOT
BRANCH   1  17
ATOM     15  C   UNL     1      -1.451  -2.051  -0.360  0.00  0.00    +0.165 A 
ATOM     16  C   UNL     1      -1.684  -1.189  -1.422  0.00  0.00    +0.055 A 
ATOM     17  C   UNL     1      -0.622  -0.647  -2.120  0.00  0.00    -0.020 A 
ATOM     18  C   UNL     1       0.676  -0.965  -1.767  0.00  0.00    +0.055 A 
ATOM     19  C   UNL     1       0.918  -1.821  -0.704  0.00  0.00    +0.165 A 
ATOM     20  C   UNL     1      -0.147  -2.369   0.001  0.00  0.00    +0.204 A 
BRANCH  15  22
ATOM     21  C   UNL     1      -3.810  -2.214  -0.101  0.00  0.00    +0.277 C 
ATOM     22  O   UNL     1      -2.497  -2.584   0.326  0.00  0.00    -0.491 OA
ENDBRANCH  15  22
BRANCH  20  23
ATOM     23  O   UNL     1       0.085  -3.214   1.042  0.00  0.00    -0.488 OA
ATOM     24  C   UNL     1       0.176  -4.607   0.739  0.00  0.00    +0.277 C 
ENDBRANCH  20  23
BRANCH  19  25
ATOM     25  O   UNL     1       2.196  -2.130  -0.355  0.00  0.00    -0.491 OA
ATOM     26  C   UNL     1       3.241  -1.531  -1.123  0.00  0.00    +0.277 C 
ENDBRANCH  19  25
ENDBRANCH   1  17
BRANCH   9  27
ATOM     27  N   UNL     1       4.781   3.454  -3.524  0.00  0.00    -0.314 N 
ATOM     28  H   UNL     1       4.701   4.325  -3.105  0.00  0.00    +0.152 HD
BRANCH  27  29
ATOM     29  C   UNL     1       6.027   3.004  -3.967  0.00  0.00    +0.031 A 
ATOM     30  C   UNL     1       6.311   1.644  -3.982  0.00  0.00    +0.023 A 
ATOM     31  C   UNL     1       7.542   1.202  -4.425  0.00  0.00    +0.002 A 
ATOM     32  C   UNL     1       8.495   2.112  -4.843  0.00  0.00    +0.000 A 
ATOM     33  C   UNL     1       8.218   3.467  -4.825  0.00  0.00    +0.002 A 
ATOM     34  C   UNL     1       6.987   3.916  -4.388  0.00  0.00    +0.023 A 
ENDBRANCH  27  29
ENDBRANCH   9  27
TORSDOF 6
