REMARK  Name = ZINC38791115
REMARK  7 active torsions:
REMARK  status: ('A' for Active; 'I' for Inactive)
REMARK    1  A    between atoms: C_4  and  C_7
REMARK    2  A    between atoms: C_7  and  N_8
REMARK    3  A    between atoms: C_11  and  N_14
REMARK    4  A    between atoms: C_15  and  C_17
REMARK    5  A    between atoms: C_17  and  S_18
REMARK    6  A    between atoms: S_18  and  C_19
REMARK    7  A    between atoms: C_23  and  C_25
REMARK                            x       y       z     vdW  Elec       q    Type
REMARK                         _______ _______ _______ _____ _____    ______ ____
ROOT
ATOM      1  N   UNL     1       5.449  -2.776   4.914  0.00  0.00    -0.312 N 
ATOM      2  C   UNL     1       6.370  -3.698   5.258  0.00  0.00    +0.223 C 
ATOM      3  O   UNL     1       6.842  -4.429   4.414  0.00  0.00    -0.275 OA
ATOM      4  H   UNL     1       5.071  -2.192   5.589  0.00  0.00    +0.149 HD
ENDROOT
BRANCH   1   8
ATOM      5  N   UNL     1       4.153  -0.953   1.342  0.00  0.00    +0.382 N 
ATOM      6  C   UNL     1       3.203  -1.854   2.005  0.00  0.00    -0.077 C 
ATOM      7  C   UNL     1       3.614  -2.050   3.466  0.00  0.00    +0.003 C 
ATOM      8  C   UNL     1       5.019  -2.657   3.518  0.00  0.00    +0.069 C 
ATOM      9  C   UNL     1       5.987  -1.746   2.760  0.00  0.00    +0.003 C 
ATOM     10  C   UNL     1       5.489  -1.562   1.325  0.00  0.00    -0.077 C 
ATOM     11  H   UNL     1       4.190  -0.078   1.843  0.00  0.00    -0.081 HD
BRANCH   5  12
ATOM     12  C   UNL     1       3.711  -0.707  -0.038  0.00  0.00    -0.043 C 
BRANCH  12  16
ATOM     13  C   UNL     1      -0.017   1.378   0.010  0.00  0.00    +0.000 A 
ATOM     14  C   UNL     1       1.171   2.086   0.002  0.00  0.00    +0.000 A 
ATOM     15  C   UNL     1       2.377   1.411  -0.013  0.00  0.00    +0.002 A 
ATOM     16  C   UNL     1       2.396   0.029  -0.020  0.00  0.00    -0.064 A 
ATOM     17  C   UNL     1       1.208  -0.679  -0.012  0.00  0.00    +0.002 A 
ATOM     18  C   UNL     1       0.002  -0.004   0.002  0.00  0.00    +0.000 A 
ENDBRANCH  12  16
ENDBRANCH   5  12
ENDBRANCH   1   8
BRANCH   2  19
ATOM     19  C   UNL     1       6.813  -3.821   6.694  0.00  0.00    +0.170 C 
BRANCH  19  20
ATOM     20  S   UNL     1       8.050  -5.140   6.835  0.00  0.00    -0.087 S 
BRANCH  20  21
ATOM     21  C   UNL     1       8.473  -5.159   8.598  0.00  0.00    +0.339 C 
ATOM     22  N   UNL     1       8.980  -3.842   9.019  0.00  0.00    -0.219 N 
ATOM     23  N   UNL     1       8.086  -3.390  10.000  0.00  0.00    -0.145 NA
ATOM     24  C   UNL     1       7.142  -4.274  10.189  0.00  0.00    +0.238 C 
ATOM     25  O   UNL     1       7.297  -5.364   9.393  0.00  0.00    -0.443 OA
ATOM     26  H   UNL     1       9.768  -3.383   8.687  0.00  0.00    +0.173 HD
BRANCH  24  27
ATOM     27  C   UNL     1       6.094  -4.117  11.107  0.00  0.00    +0.043 C 
ATOM     28  C   UNL     1       5.867  -3.029  11.951  0.00  0.00    +0.008 A 
ATOM     29  C   UNL     1       6.562  -1.817  12.150  0.00  0.00    +0.010 A 
ATOM     30  C   UNL     1       6.102  -0.919  13.060  0.00  0.00    +0.001 A 
ATOM     31  C   UNL     1       4.951  -1.164  13.812  0.00  0.00    +0.002 A 
ATOM     32  C   UNL     1       4.235  -2.307  13.671  0.00  0.00    +0.026 A 
ATOM     33  C   UNL     1       4.653  -3.292  12.740  0.00  0.00    +0.043 A 
ATOM     34  N   UNL     1       4.141  -4.465  12.422  0.00  0.00    -0.380 N 
ATOM     35  C   UNL     1       4.968  -5.088  11.384  0.00  0.00    +0.154 C 
ATOM     36  H   UNL     1       3.342  -4.852  12.811  0.00  0.00    +0.160 HD
ENDBRANCH  24  27
ENDBRANCH  20  21
ENDBRANCH  19  20
ENDBRANCH   2  19
TORSDOF 7
