REMARK  Name = ZINC20858254
REMARK  8 active torsions:
REMARK  status: ('A' for Active; 'I' for Inactive)
REMARK    1  A    between atoms: C_1  and  O_2
REMARK    2  A    between atoms: O_2  and  C_3
REMARK    3  A    between atoms: C_3  and  C_5
REMARK    4  A    between atoms: C_6  and  C_20
REMARK    5  A    between atoms: C_11  and  C_13
REMARK    6  A    between atoms: C_16  and  O_19
REMARK    7  A    between atoms: C_20  and  S_21
REMARK    8  A    between atoms: S_21  and  C_24
REMARK                            x       y       z     vdW  Elec       q    Type
REMARK                         _______ _______ _______ _____ _____    ______ ____
ROOT
ATOM      1  C   UNL     1       6.723   2.662  -2.160  0.00  0.00    +0.080 C 
ATOM      2  C   UNL     1       5.562   3.338  -2.023  0.00  0.00    +0.045 C 
ATOM      3  N   UNL     1       5.550   4.695  -1.869  0.00  0.00    -0.271 N 
ATOM      4  C   UNL     1       6.656   5.449  -1.847  0.00  0.00    +0.304 C 
ATOM      5  O   UNL     1       6.545   6.652  -1.705  0.00  0.00    -0.252 OA
ATOM      6  N   UNL     1       7.888   4.920  -1.978  0.00  0.00    -0.288 N 
ATOM      7  C   UNL     1       8.010   3.462  -2.150  0.00  0.00    +0.144 C 
ATOM      8  H   UNL     1       4.595   5.227  -1.754  0.00  0.00    +0.156 HD
ATOM      9  H   UNL     1       8.791   5.549  -1.958  0.00  0.00    +0.151 HD
ENDROOT
BRANCH   7  10
ATOM     10  C   UNL     1       8.733   3.206  -3.447  0.00  0.00    -0.022 A 
ATOM     11  C   UNL     1       8.449   3.978  -4.559  0.00  0.00    +0.009 A 
ATOM     12  C   UNL     1       9.114   3.748  -5.748  0.00  0.00    +0.046 A 
ATOM     13  C   UNL     1      10.059   2.736  -5.829  0.00  0.00    +0.117 A 
ATOM     14  C   UNL     1      10.338   1.960  -4.714  0.00  0.00    +0.046 A 
ATOM     15  C   UNL     1       9.675   2.197  -3.525  0.00  0.00    +0.009 A 
BRANCH  13  16
ATOM     16  O   UNL     1      10.710   2.505  -6.999  0.00  0.00    -0.507 OA
ATOM     17  H   UNL     1      11.459   1.702  -7.063  0.00  0.00    +0.292 HD
ENDBRANCH  13  16
ENDBRANCH   7  10
BRANCH   1  18
ATOM     18  C   UNL     1       6.737   1.256  -2.314  0.00  0.00    +0.339 C 
ATOM     19  O   UNL     1       7.003   0.543  -1.365  0.00  0.00    -0.245 OA
BRANCH  18  21
ATOM     20  C   UNL     1       6.489  -0.721  -3.596  0.00  0.00    +0.280 C 
ATOM     21  O   UNL     1       6.456   0.706  -3.513  0.00  0.00    -0.465 OA
ENDBRANCH  18  21
ENDBRANCH   1  18
BRANCH   2  22
ATOM     22  C   UNL     1       4.259   2.582  -2.033  0.00  0.00    +0.223 C 
BRANCH  22  23
ATOM     23  S   UNL     1       3.610   2.471  -0.343  0.00  0.00    +0.002 S 
ATOM     24  O   UNL     1       3.222   3.759   0.118  0.00  0.00    -0.169 OA
ATOM     25  O   UNL     1       4.448   1.641   0.450  0.00  0.00    -0.169 OA
BRANCH  23  26
ATOM     26  C   UNL     1       2.102   1.574  -0.494  0.00  0.00    +0.089 A 
ATOM     27  C   UNL     1       2.101   0.195  -0.393  0.00  0.00    +0.027 A 
ATOM     28  C   UNL     1       0.917  -0.500  -0.515  0.00  0.00    +0.006 A 
ATOM     29  C   UNL     1      -0.277   0.173  -0.740  0.00  0.00    -0.044 A 
ATOM     30  C   UNL     1      -0.278   1.546  -0.834  0.00  0.00    -0.042 A 
ATOM     31  C   UNL     1       0.916   2.245  -0.714  0.00  0.00    +0.030 A 
ATOM     32  C   UNL     1      -1.537   2.343  -1.058  0.00  0.00    +0.035 C 
ATOM     33  C   UNL     1      -2.652   1.446  -1.593  0.00  0.00    +0.005 C 
ATOM     34  C   UNL     1      -2.770   0.222  -0.677  0.00  0.00    +0.005 C 
ATOM     35  C   UNL     1      -1.532  -0.650  -0.877  0.00  0.00    +0.035 C 
ENDBRANCH  23  26
ENDBRANCH  22  23
ENDBRANCH   2  22
TORSDOF 7
