REMARK  Name = ZINC20757451
REMARK  8 active torsions:
REMARK  status: ('A' for Active; 'I' for Inactive)
REMARK    1  A    between atoms: C_1  and  C_2
REMARK    2  A    between atoms: C_7  and  C_8
REMARK    3  A    between atoms: C_17  and  C_20
REMARK    4  A    between atoms: C_20  and  C_21
REMARK    5  A    between atoms: N_33  and  C_36
REMARK    6  A    between atoms: C_36  and  C_37
REMARK    7  A    between atoms: C_37  and  O_38
REMARK    8  A    between atoms: O_38  and  C_39
REMARK                            x       y       z     vdW  Elec       q    Type
REMARK                         _______ _______ _______ _____ _____    ______ ____
ROOT
ATOM      1  C   UNL     1      -0.018   1.503   0.010  0.00  0.00    +0.044 C 
ATOM      2  C   UNL     1       0.002  -0.004   0.002  0.00  0.00    -0.046 A 
ATOM      3  C   UNL     1       0.006  -0.685  -1.202  0.00  0.00    +0.004 A 
ATOM      4  C   UNL     1       0.024  -2.069  -1.209  0.00  0.00    +0.008 A 
ATOM      5  C   UNL     1       0.039  -2.765  -0.021  0.00  0.00    +0.004 A 
ATOM      6  C   UNL     1       0.035  -2.090   1.196  0.00  0.00    +0.042 A 
ATOM      7  C   UNL     1       0.023  -0.697   1.195  0.00  0.00    -0.026 A 
ATOM      8  C   UNL     1       0.026   0.056   2.500  0.00  0.00    +0.046 C 
ATOM      9  N   UNL     1       0.051  -3.001   2.254  0.00  0.00    -0.283 N 
ATOM     10  C   UNL     1       0.063  -4.278   1.824  0.00  0.00    +0.243 C 
ATOM     11  O   UNL     1       0.076  -5.275   2.515  0.00  0.00    -0.273 OA
ATOM     12  C   UNL     1       0.058  -4.228   0.321  0.00  0.00    +0.136 C 
ATOM     13  C   UNL     1      -1.159  -4.956  -0.261  0.00  0.00    +0.122 C 
ATOM     14  C   UNL     1      -0.621  -6.359  -0.659  0.00  0.00    +0.107 C 
ATOM     15  C   UNL     1       0.866  -6.346  -0.245  0.00  0.00    +0.072 C 
ATOM     16  N   UNL     1       1.242  -4.900  -0.245  0.00  0.00    -0.295 NA
ATOM     17  C   UNL     1      -0.735  -6.363  -2.166  0.00  0.00    +0.227 C 
ATOM     18  O   UNL     1      -0.410  -7.279  -2.891  0.00  0.00    -0.275 OA
ATOM     19  N   UNL     1      -1.252  -5.199  -2.576  0.00  0.00    -0.239 N 
ATOM     20  C   UNL     1      -1.542  -4.327  -1.582  0.00  0.00    +0.228 C 
ATOM     21  O   UNL     1      -2.024  -3.223  -1.718  0.00  0.00    -0.275 OA
ATOM     22  H   UNL     1       0.053  -2.745   3.189  0.00  0.00    +0.155 HD
ATOM     23  H   UNL     1       1.436  -4.567  -1.177  0.00  0.00    +0.124 HD
ENDROOT
BRANCH  15  24
ATOM     24  C   UNL     1       1.711  -7.102  -1.272  0.00  0.00    +0.056 C 
BRANCH  24  25
ATOM     25  C   UNL     1       3.136  -7.183  -0.788  0.00  0.00    -0.021 A 
ATOM     26  C   UNL     1       4.135  -6.344  -1.105  0.00  0.00    +0.087 A 
ATOM     27  N   UNL     1       5.287  -6.732  -0.477  0.00  0.00    -0.360 N 
ATOM     28  H   UNL     1       6.142  -6.281  -0.552  0.00  0.00    +0.165 HD
ATOM     29  C   UNL     1       5.051  -7.859   0.278  0.00  0.00    +0.047 A 
ATOM     30  C   UNL     1       3.692  -8.187   0.121  0.00  0.00    +0.003 A 
ATOM     31  C   UNL     1       3.162  -9.296   0.784  0.00  0.00    +0.010 A 
ATOM     32  C   UNL     1       3.966 -10.056   1.586  0.00  0.00    +0.001 A 
ATOM     33  C   UNL     1       5.307  -9.734   1.747  0.00  0.00    +0.002 A 
ATOM     34  C   UNL     1       5.853  -8.650   1.095  0.00  0.00    +0.026 A 
ENDBRANCH  24  25
ENDBRANCH  15  24
BRANCH  19  35
ATOM     35  C   UNL     1      -1.492  -4.892  -3.988  0.00  0.00    +0.144 C 
BRANCH  35  36
ATOM     36  C   UNL     1      -2.905  -5.336  -4.373  0.00  0.00    +0.179 C 
BRANCH  36  37
ATOM     37  O   UNL     1      -3.862  -4.561  -3.650  0.00  0.00    -0.381 OA
ATOM     38  C   UNL     1      -5.220  -4.898  -3.938  0.00  0.00    +0.194 C 
ENDBRANCH  36  37
ENDBRANCH  35  36
ENDBRANCH  19  35
TORSDOF 5
