REMARK  Name = ZINC16610485
REMARK  13 active torsions:
REMARK  status: ('A' for Active; 'I' for Inactive)
REMARK    1  A    between atoms: C_1  and  C_2
REMARK    2  A    between atoms: C_2  and  N_3
REMARK    3  A    between atoms: C_4  and  C_37
REMARK    4  A    between atoms: C_5  and  C_30
REMARK    5  A    between atoms: C_6  and  C_11
REMARK    6  A    between atoms: C_14  and  N_17
REMARK    7  A    between atoms: N_20  and  C_21
REMARK    8  A    between atoms: C_24  and  N_27
REMARK    9  A    between atoms: C_30  and  O_32
REMARK   10  A    between atoms: O_32  and  C_33
REMARK   11  A    between atoms: C_33  and  C_34
REMARK   12  A    between atoms: C_34  and  C_35
REMARK   13  A    between atoms: C_34  and  C_36
REMARK                            x       y       z     vdW  Elec       q    Type
REMARK                         _______ _______ _______ _____ _____    ______ ____
ROOT
ATOM      1  C   UNL     1       1.438   1.706  -0.464  0.00  0.00    -0.022 A 
ATOM      2  C   UNL     1       1.246   3.047  -0.745  0.00  0.00    +0.007 A 
ATOM      3  C   UNL     1       1.530   3.537  -2.005  0.00  0.00    +0.024 A 
ATOM      4  C   UNL     1       1.996   2.680  -2.993  0.00  0.00    +0.035 A 
ATOM      5  C   UNL     1       2.183   1.333  -2.709  0.00  0.00    +0.024 A 
ATOM      6  C   UNL     1       1.903   0.851  -1.445  0.00  0.00    +0.007 A 
ENDROOT
BRANCH   1  10
ATOM      7  N   UNL     1      -0.077   2.577   2.968  0.00  0.00    -0.286 N 
ATOM      8  C   UNL     1      -0.886   1.881   2.118  0.00  0.00    +0.021 C 
ATOM      9  C   UNL     1      -0.371   1.171   1.090  0.00  0.00    +0.078 C 
ATOM     10  C   UNL     1       1.134   1.176   0.914  0.00  0.00    +0.141 C 
ATOM     11  N   UNL     1       1.916   1.960   1.885  0.00  0.00    -0.315 N 
ATOM     12  C   UNL     1       1.257   2.617   2.859  0.00  0.00    +0.138 C 
ATOM     13  S   UNL     1       2.153   3.532   3.995  0.00  0.00    -0.018 S 
ATOM     14  C   UNL     1      -2.378   1.902   2.330  0.00  0.00    +0.061 C 
ATOM     15  H   UNL     1       2.884   2.002   1.824  0.00  0.00    +0.149 HD
BRANCH   7  17
ATOM     16  C   UNL     1      -0.962   2.383   5.240  0.00  0.00    +0.025 C 
ATOM     17  C   UNL     1      -0.704   3.324   4.062  0.00  0.00    +0.109 C 
ENDBRANCH   7  17
BRANCH   9  18
ATOM     18  C   UNL     1      -1.208   0.449   0.208  0.00  0.00    +0.339 C 
ATOM     19  O   UNL     1      -2.417   0.550   0.297  0.00  0.00    -0.245 OA
BRANCH  18  20
ATOM     20  O   UNL     1      -0.665  -0.354  -0.731  0.00  0.00    -0.461 OA
BRANCH  20  21
ATOM     21  C   UNL     1      -1.567  -1.149  -1.504  0.00  0.00    +0.235 C 
BRANCH  21  22
ATOM     22  C   UNL     1      -0.771  -2.017  -2.482  0.00  0.00    +0.020 C 
ATOM     23  C   UNL     1      -1.725  -2.957  -3.222  0.00  0.00    +0.010 C 
ATOM     24  C   UNL     1      -0.053  -1.120  -3.492  0.00  0.00    +0.010 C 
ENDBRANCH  21  22
ENDBRANCH  20  21
ENDBRANCH  18  20
ENDBRANCH   9  18
ENDBRANCH   1  10
BRANCH   4  25
ATOM     25  N   UNL     1       2.279   3.172  -4.272  0.00  0.00    -0.269 N 
ATOM     26  C   UNL     1       2.751   4.426  -4.422  0.00  0.00    +0.308 C 
ATOM     27  O   UNL     1       3.021   5.095  -3.444  0.00  0.00    -0.252 OA
ATOM     28  N   UNL     1       2.922   4.938  -5.657  0.00  0.00    -0.269 N 
ATOM     29  H   UNL     1       2.136   2.611  -5.050  0.00  0.00    +0.156 HD
ATOM     30  H   UNL     1       2.641   4.431  -6.435  0.00  0.00    +0.156 HD
BRANCH  28  31
ATOM     31  C   UNL     1       3.506   6.199  -5.817  0.00  0.00    +0.035 A 
ATOM     32  C   UNL     1       3.112   7.021  -6.865  0.00  0.00    +0.025 A 
ATOM     33  C   UNL     1       3.688   8.267  -7.017  0.00  0.00    +0.034 A 
ATOM     34  C   UNL     1       4.662   8.693  -6.134  0.00  0.00    +0.126 A 
ATOM     35  C   UNL     1       5.061   7.875  -5.092  0.00  0.00    +0.034 A 
ATOM     36  C   UNL     1       4.486   6.630  -4.931  0.00  0.00    +0.025 A 
BRANCH  34  37
ATOM     37  N   UNL     1       5.281  10.027  -6.303  0.00  0.00    +0.056 N 
ATOM     38  O   UNL     1       6.140  10.403  -5.526  0.00  0.00    -0.126 OA
ATOM     39  O   UNL     1       4.931  10.748  -7.220  0.00  0.00    -0.126 OA
ENDBRANCH  34  37
ENDBRANCH  28  31
ENDBRANCH   4  25
TORSDOF 9
