REMARK  Name = ZINC52910026
REMARK  11 active torsions:
REMARK  status: ('A' for Active; 'I' for Inactive)
REMARK    1  A    between atoms: C_1  and  C_2
REMARK    2  A    between atoms: C_2  and  C_4
REMARK    3  A    between atoms: C_2  and  N_15
REMARK    4  A    between atoms: N_9  and  C_10
REMARK    5  A    between atoms: C_10  and  C_11
REMARK    6  A    between atoms: C_18  and  N_21
REMARK    7  A    between atoms: C_22  and  O_24
REMARK    8  A    between atoms: O_24  and  C_25
REMARK    9  A    between atoms: C_25  and  C_26
REMARK   10  A    between atoms: C_25  and  C_27
REMARK   11  A    between atoms: C_25  and  C_28
REMARK                            x       y       z     vdW  Elec       q    Type
REMARK                         _______ _______ _______ _____ _____    ______ ____
ROOT
ATOM      1  C   UNL     1       1.012  -0.325   1.106  0.00  0.00    +0.034 C 
ATOM      2  C   UNL     1       0.002  -0.004   0.002  0.00  0.00    +0.140 C 
ENDROOT
BRANCH   2   3
ATOM      3  C   UNL     1      -0.141   1.490  -0.128  0.00  0.00    +0.237 C 
ATOM      4  O   UNL     1       0.366   2.069  -1.065  0.00  0.00    -0.274 OA
ATOM      5  N   UNL     1      -0.833   2.184   0.797  0.00  0.00    -0.239 N 
ATOM      6  C   UNL     1      -0.961   3.521   0.681  0.00  0.00    +0.306 C 
ATOM      7  O   UNL     1      -0.453   4.101  -0.259  0.00  0.00    -0.252 OA
ATOM      8  N   UNL     1      -1.653   4.215   1.606  0.00  0.00    -0.291 N 
ATOM      9  H   UNL     1      -1.239   1.722   1.547  0.00  0.00    +0.159 HD
ATOM     10  H   UNL     1      -2.059   3.752   2.356  0.00  0.00    +0.151 HD
BRANCH   8  11
ATOM     11  C   UNL     1      -1.793   5.668   1.480  0.00  0.00    +0.219 C 
BRANCH  11  12
ATOM     12  C   UNL     1      -2.617   6.205   2.651  0.00  0.00    +0.405 C 
ATOM     13  F   UNL     1      -1.970   5.901   3.854  0.00  0.00    -0.169 F 
ATOM     14  F   UNL     1      -2.750   7.592   2.530  0.00  0.00    -0.169 F 
ATOM     15  F   UNL     1      -3.884   5.612   2.640  0.00  0.00    -0.169 F 
ENDBRANCH  11  12
ENDBRANCH   8  11
ENDBRANCH   2   3
BRANCH   2  16
ATOM     16  N   UNL     1       0.474  -0.564  -1.272  0.00  0.00    -0.292 NA
ATOM     17  C   UNL     1       0.259  -2.015  -1.321  0.00  0.00    +0.087 C 
ATOM     18  C   UNL     1       0.626  -2.540  -2.710  0.00  0.00    +0.038 C 
ATOM     19  C   UNL     1       2.093  -2.212  -3.003  0.00  0.00    +0.079 C 
ATOM     20  C   UNL     1       2.300  -0.699  -2.899  0.00  0.00    +0.038 C 
ATOM     21  C   UNL     1       1.885  -0.228  -1.503  0.00  0.00    +0.087 C 
BRANCH  19  22
ATOM     22  N   UNL     1       2.434  -2.661  -4.356  0.00  0.00    -0.278 N 
ATOM     23  C   UNL     1       3.713  -2.951  -4.667  0.00  0.00    +0.401 C 
ATOM     24  O   UNL     1       4.583  -2.842  -3.826  0.00  0.00    -0.226 OA
ATOM     25  H   UNL     1       1.740  -2.748  -5.027  0.00  0.00    +0.152 HD
BRANCH  23  26
ATOM     26  O   UNL     1       4.026  -3.364  -5.910  0.00  0.00    -0.445 OA
BRANCH  26  27
ATOM     27  C   UNL     1       5.401  -3.654  -6.170  0.00  0.00    +0.107 C 
ATOM     28  C   UNL     1       5.872  -4.771  -5.235  0.00  0.00    +0.055 C 
ATOM     29  C   UNL     1       5.561  -4.104  -7.623  0.00  0.00    +0.055 C 
ATOM     30  C   UNL     1       6.242  -2.399  -5.928  0.00  0.00    +0.055 C 
ENDBRANCH  26  27
ENDBRANCH  23  26
ENDBRANCH  19  22
ENDBRANCH   2  16
TORSDOF 7
