REMARK  Name = ZINC08443498
REMARK  7 active torsions:
REMARK  status: ('A' for Active; 'I' for Inactive)
REMARK    1  A    between atoms: C_1  and  C_2
REMARK    2  A    between atoms: C_2  and  C_38
REMARK    3  A    between atoms: C_3  and  N_10
REMARK    4  A    between atoms: N_8  and  C_9
REMARK    5  A    between atoms: C_11  and  C_29
REMARK    6  A    between atoms: N_20  and  C_23
REMARK    7  A    between atoms: C_33  and  N_35
REMARK                            x       y       z     vdW  Elec       q    Type
REMARK                         _______ _______ _______ _____ _____    ______ ____
ROOT
ATOM      1  N   UNL     1       2.576   0.163   1.363  0.00  0.00    -0.164 NA
ATOM      2  C   UNL     1       2.727   1.564   0.858  0.00  0.00    +0.131 C 
ATOM      3  C   UNL     1       3.022   1.382  -0.624  0.00  0.00    +0.139 C 
ATOM      4  C   UNL     1       3.780   0.004  -0.532  0.00  0.00    +0.242 C 
ATOM      5  O   UNL     1       2.941  -0.755   0.239  0.00  0.00    -0.282 OA
ATOM      6  C   UNL     1       4.455  -0.024  -1.816  0.00  0.00    +0.258 C 
ATOM      7  O   UNL     1       4.690  -0.996  -2.502  0.00  0.00    -0.272 OA
ATOM      8  N   UNL     1       4.774   1.273  -2.092  0.00  0.00    -0.208 N 
ATOM      9  C   UNL     1       4.119   2.158  -1.285  0.00  0.00    +0.234 C 
ATOM     10  O   UNL     1       4.373   3.333  -1.134  0.00  0.00    -0.274 OA
ENDROOT
BRANCH   1  13
ATOM     11  C   UNL     1       2.465  -2.124   2.521  0.00  0.00    +0.034 C 
ATOM     12  C   UNL     1       1.080  -1.473   2.484  0.00  0.00    +0.057 C 
ATOM     13  C   UNL     1       1.203  -0.086   1.821  0.00  0.00    +0.171 C 
ATOM     14  S   UNL     1       0.056  -0.278   0.404  0.00  0.00    -0.079 S 
ATOM     15  C   UNL     1      -0.476  -1.953   0.689  0.00  0.00    +0.111 C 
ATOM     16  S   UNL     1      -1.583  -2.860  -0.250  0.00  0.00    -0.028 S 
ATOM     17  N   UNL     1       0.170  -2.357   1.792  0.00  0.00    -0.314 N 
ATOM     18  C   UNL     1      -0.051  -3.712   2.304  0.00  0.00    +0.131 C 
ATOM     19  C   UNL     1       0.591  -1.289   3.922  0.00  0.00    +0.034 C 
ENDBRANCH   1  13
BRANCH   8  20
ATOM     20  C   UNL     1       5.664   1.659  -3.104  0.00  0.00    +0.044 A 
ATOM     21  C   UNL     1       5.916   3.005  -3.333  0.00  0.00    +0.024 A 
ATOM     22  C   UNL     1       6.797   3.382  -4.327  0.00  0.00    +0.002 A 
ATOM     23  C   UNL     1       7.420   2.421  -5.102  0.00  0.00    +0.000 A 
ATOM     24  C   UNL     1       7.168   1.080  -4.880  0.00  0.00    +0.002 A 
ATOM     25  C   UNL     1       6.292   0.697  -3.883  0.00  0.00    +0.024 A 
ENDBRANCH   8  20
BRANCH   2  26
ATOM     26  C   UNL     1       1.449   2.338   1.053  0.00  0.00    -0.025 A 
ATOM     27  C   UNL     1       0.596   2.544  -0.015  0.00  0.00    +0.005 A 
ATOM     28  C   UNL     1      -0.573   3.260   0.163  0.00  0.00    +0.003 A 
ATOM     29  C   UNL     1      -0.895   3.760   1.411  0.00  0.00    +0.033 A 
ATOM     30  C   UNL     1      -0.042   3.554   2.479  0.00  0.00    +0.127 A 
ATOM     31  C   UNL     1       1.130   2.843   2.300  0.00  0.00    +0.038 A 
BRANCH  30  32
ATOM     32  N   UNL     1      -0.384   4.094   3.814  0.00  0.00    +0.056 N 
ATOM     33  O   UNL     1       0.368   3.913   4.755  0.00  0.00    -0.126 OA
ATOM     34  O   UNL     1      -1.416   4.721   3.971  0.00  0.00    -0.126 OA
ENDBRANCH  30  32
ENDBRANCH   2  26
TORSDOF 4
