REMARK  Name = ZINC36670707
REMARK  8 active torsions:
REMARK  status: ('A' for Active; 'I' for Inactive)
REMARK    1  A    between atoms: C_1  and  O_2
REMARK    2  A    between atoms: O_2  and  C_3
REMARK    3  A    between atoms: C_7  and  O_19
REMARK    4  A    between atoms: C_8  and  O_9
REMARK    5  A    between atoms: O_9  and  C_10
REMARK    6  A    between atoms: C_15  and  C_16
REMARK    7  A    between atoms: C_16  and  N_17
REMARK    8  A    between atoms: O_19  and  C_20
REMARK                            x       y       z     vdW  Elec       q    Type
REMARK                         _______ _______ _______ _____ _____    ______ ____
ROOT
ATOM      1  C   UNL     1       0.443  -3.103   1.182  0.00  0.00    +0.131 A 
ATOM      2  C   UNL     1      -0.170  -2.721   2.367  0.00  0.00    +0.061 A 
ATOM      3  C   UNL     1       0.392  -3.077   3.579  0.00  0.00    +0.021 A 
ATOM      4  C   UNL     1       1.563  -3.813   3.610  0.00  0.00    +0.016 A 
ATOM      5  C   UNL     1       2.175  -4.194   2.431  0.00  0.00    +0.006 A 
ATOM      6  C   UNL     1       1.615  -3.845   1.217  0.00  0.00    -0.022 A 
ATOM      7 BR   UNL     1      -0.442  -2.557   5.195  0.00  0.00    -0.050 Br
ENDROOT
BRANCH   1   8
ATOM      8  O   UNL     1      -0.107  -2.755  -0.011  0.00  0.00    -0.448 OA
BRANCH   8  14
ATOM      9  C   UNL     1      -1.201  -0.638   0.010  0.00  0.00    +0.166 A 
ATOM     10  C   UNL     1      -2.375   0.101   0.019  0.00  0.00    +0.049 A 
ATOM     11  C   UNL     1      -3.598  -0.543   0.028  0.00  0.00    +0.007 A 
ATOM     12  C   UNL     1      -3.657  -1.924   0.027  0.00  0.00    +0.049 A 
ATOM     13  C   UNL     1      -2.489  -2.670   0.017  0.00  0.00    +0.166 A 
ATOM     14  C   UNL     1      -1.256  -2.027   0.003  0.00  0.00    +0.211 A 
BRANCH   9  16
ATOM     15  C   UNL     1      -0.017   1.425   0.010  0.00  0.00    +0.277 C 
ATOM     16  O   UNL     1       0.002  -0.004   0.002  0.00  0.00    -0.491 OA
ENDBRANCH   9  16
BRANCH  13  17
ATOM     17  O   UNL     1      -2.548  -4.028   0.017  0.00  0.00    -0.491 OA
ATOM     18  C   UNL     1      -3.848  -4.621   0.026  0.00  0.00    +0.277 C 
ENDBRANCH  13  17
ENDBRANCH   8  14
ENDBRANCH   1   8
BRANCH   6  19
ATOM     19  C   UNL     1       2.279  -4.267  -0.069  0.00  0.00    -0.047 C 
BRANCH  19  20
ATOM     20  N   UNL     1       3.051  -3.142  -0.612  0.00  0.00    +0.381 N 
ATOM     21  H   UNL     1       2.433  -2.365  -0.792  0.00  0.00    -0.090 HD
ATOM     22  H   UNL     1       3.756  -2.864   0.055  0.00  0.00    -0.090 HD
ATOM     23  H   UNL     1       3.496  -3.424  -1.473  0.00  0.00    -0.090 HD
ENDBRANCH  19  20
ENDBRANCH   6  19
TORSDOF 6
