REMARK  Name = ZINC61440418
REMARK  7 active torsions:
REMARK  status: ('A' for Active; 'I' for Inactive)
REMARK    1  A    between atoms: C_1  and  C_2
REMARK    2  A    between atoms: C_9  and  S_12
REMARK    3  A    between atoms: S_12  and  C_13
REMARK    4  A    between atoms: C_16  and  C_19
REMARK    5  A    between atoms: C_19  and  C_21
REMARK    6  A    between atoms: C_19  and  N_22
REMARK    7  A    between atoms: N_22  and  C_23
REMARK                            x       y       z     vdW  Elec       q    Type
REMARK                         _______ _______ _______ _____ _____    ______ ____
ROOT
ATOM      1  S   UNL     1       0.092  -5.737   2.540  0.00  0.00    -0.052 S 
ENDROOT
BRANCH   1  10
ATOM      2  C   UNL     1       7.754  -5.694   2.195  0.00  0.00    +0.044 C 
ATOM      3  C   UNL     1       6.315  -5.850   1.777  0.00  0.00    -0.048 A 
ATOM      4  C   UNL     1       6.014  -6.251   0.484  0.00  0.00    +0.005 A 
ATOM      5  C   UNL     1       4.701  -6.399   0.086  0.00  0.00    +0.028 A 
ATOM      6  C   UNL     1       3.675  -6.144   0.983  0.00  0.00    +0.067 A 
ATOM      7  C   UNL     1       3.974  -5.737   2.293  0.00  0.00    +0.090 A 
ATOM      8  C   UNL     1       5.309  -5.598   2.683  0.00  0.00    +0.033 A 
ATOM      9  N   UNL     1       2.791  -5.563   2.938  0.00  0.00    -0.222 NA
ATOM     10  C   UNL     1       1.801  -5.832   2.123  0.00  0.00    +0.172 A 
ATOM     11  N   UNL     1       2.293  -6.196   0.901  0.00  0.00    -0.333 N 
ATOM     12  H   UNL     1       1.772  -6.445   0.122  0.00  0.00    +0.168 HD
ENDBRANCH   1  10
BRANCH   1  13
ATOM     13  C   UNL     1       0.093  -5.370   4.263  0.00  0.00    +0.016 A 
ATOM     14  C   UNL     1      -0.009  -4.053   4.694  0.00  0.00    +0.015 A 
ATOM     15  C   UNL     1      -0.009  -3.769   6.046  0.00  0.00    +0.003 A 
ATOM     16  C   UNL     1       0.093  -4.793   6.969  0.00  0.00    -0.062 A 
ATOM     17  C   UNL     1       0.196  -6.105   6.543  0.00  0.00    +0.003 A 
ATOM     18  C   UNL     1       0.190  -6.397   5.194  0.00  0.00    +0.015 A 
BRANCH  16  19
ATOM     19  C   UNL     1       0.093  -4.479   8.443  0.00  0.00    -0.044 C 
ATOM     20  C   UNL     1      -1.300  -4.736   9.019  0.00  0.00    -0.009 C 
BRANCH  19  21
ATOM     21  N   UNL     1       1.071  -5.337   9.127  0.00  0.00    +0.382 N 
ATOM     22  C   UNL     1       1.158  -4.950  10.541  0.00  0.00    -0.100 C 
ATOM     23  H   UNL     1       0.778  -6.301   9.059  0.00  0.00    -0.085 HD
ATOM     24  H   UNL     1       1.975  -5.229   8.692  0.00  0.00    -0.085 HD
ENDBRANCH  19  21
ENDBRANCH  16  19
ENDBRANCH   1  13
TORSDOF 4
