REMARK  Name = ZINC09775244
REMARK  4 active torsions:
REMARK  status: ('A' for Active; 'I' for Inactive)
REMARK    1  A    between atoms: N_6  and  C_7
REMARK    2  A    between atoms: C_7  and  C_9
REMARK    3  A    between atoms: C_7  and  C_16
REMARK    4  A    between atoms: C_25  and  O_26
REMARK                            x       y       z     vdW  Elec       q    Type
REMARK                         _______ _______ _______ _____ _____    ______ ____
ROOT
ATOM      1  C   UNL     1      -0.049  -2.979   0.040  0.00  0.00    +0.136 C 
ENDROOT
BRANCH   1   2
ATOM      2  C   UNL     1       1.292  -2.317   0.223  0.00  0.00    +0.028 A 
ATOM      3  C   UNL     1       1.373  -0.931   0.427  0.00  0.00    +0.009 A 
ATOM      4  C   UNL     1       0.217  -0.128   0.466  0.00  0.00    +0.012 A 
ATOM      5  C   UNL     1       0.371   1.214   0.668  0.00  0.00    +0.020 A 
ATOM      6  C   UNL     1       1.647   1.751   0.829  0.00  0.00    +0.111 A 
ATOM      7  N   UNL     1       2.721   1.000   0.792  0.00  0.00    -0.255 NA
ATOM      8  C   UNL     1       2.640  -0.320   0.598  0.00  0.00    +0.072 A 
ATOM      9  C   UNL     1       3.797  -1.119   0.559  0.00  0.00    +0.032 A 
ATOM     10  C   UNL     1       3.687  -2.459   0.360  0.00  0.00    +0.048 A 
ATOM     11  C   UNL     1       2.436  -3.062   0.192  0.00  0.00    +0.123 A 
BRANCH  11  12
ATOM     12  O   UNL     1       2.359  -4.404  -0.005  0.00  0.00    -0.506 OA
ATOM     13  H   UNL     1       2.482  -4.674  -0.926  0.00  0.00    +0.292 HD
ENDBRANCH  11  12
ENDBRANCH   1   2
BRANCH   1  19
ATOM     14  C   UNL     1      -3.541  -4.321  -1.860  0.00  0.00    +0.005 A 
ATOM     15  C   UNL     1      -3.429  -5.201  -2.928  0.00  0.00    +0.018 A 
ATOM     16  C   UNL     1      -2.176  -5.612  -3.337  0.00  0.00    +0.084 A 
ATOM     17  C   UNL     1      -1.155  -4.339  -1.705  0.00  0.00    +0.097 A 
ATOM     18  C   UNL     1      -2.385  -3.889  -1.236  0.00  0.00    +0.041 A 
ATOM     19  N   UNL     1       0.016  -3.908  -1.091  0.00  0.00    -0.320 N 
ATOM     20  H   UNL     1       0.875  -4.223  -1.411  0.00  0.00    +0.148 HD
ATOM     21  N   UNL     1      -1.018  -5.204  -2.751  0.00  0.00    -0.350 N 
ATOM     22  H   UNL     1      -0.100  -5.526  -3.076  0.00  0.00    +0.166 HD
ENDBRANCH   1  19
BRANCH   1  23
ATOM     23  C   UNL     1      -0.412  -3.736   1.292  0.00  0.00    -0.023 A 
ATOM     24  C   UNL     1       0.130  -4.987   1.524  0.00  0.00    +0.007 A 
ATOM     25  C   UNL     1      -0.199  -5.679   2.674  0.00  0.00    +0.015 A 
ATOM     26  C   UNL     1      -1.077  -5.125   3.588  0.00  0.00    +0.018 A 
ATOM     27  C   UNL     1      -1.622  -3.875   3.353  0.00  0.00    +0.015 A 
ATOM     28  C   UNL     1      -1.289  -3.182   2.204  0.00  0.00    +0.007 A 
ATOM     29 BR   UNL     1      -1.532  -6.074   5.159  0.00  0.00    -0.050 Br
ENDBRANCH   1  23
TORSDOF 4
