REMARK  Name = ZINC20288830
REMARK  12 active torsions:
REMARK  status: ('A' for Active; 'I' for Inactive)
REMARK    1  A    between atoms: C_1  and  C_2
REMARK    2  A    between atoms: C_2  and  C_4
REMARK    3  A    between atoms: C_2  and  N_24
REMARK    4  A    between atoms: C_4  and  C_6
REMARK    5  A    between atoms: C_4  and  N_11
REMARK    6  A    between atoms: N_14  and  C_17
REMARK    7  A    between atoms: C_25  and  C_27
REMARK    8  A    between atoms: N_29  and  C_30
REMARK    9  A    between atoms: C_30  and  C_31
REMARK   10  A    between atoms: C_31  and  C_32
REMARK   11  A    between atoms: C_35  and  O_38
REMARK   12  A    between atoms: O_38  and  C_39
REMARK                            x       y       z     vdW  Elec       q    Type
REMARK                         _______ _______ _______ _____ _____    ______ ____
ROOT
ATOM      1  C   UNL     1       1.983   6.357   1.337  0.00  0.00    +0.030 C 
ATOM      2  C   UNL     1       2.172   5.897  -0.110  0.00  0.00    +0.092 C 
ENDROOT
BRANCH   2   3
ATOM      3  N   UNL     1       2.065   4.438  -0.176  0.00  0.00    -0.303 N 
ATOM      4  C   UNL     1       0.854   3.855  -0.284  0.00  0.00    +0.299 C 
ATOM      5  O   UNL     1      -0.147   4.539  -0.327  0.00  0.00    -0.265 OA
ATOM      6  H   UNL     1       2.972   3.817  -0.137  0.00  0.00    +0.149 HD
BRANCH   4   7
ATOM      7  C   UNL     1       0.745   2.366  -0.352  0.00  0.00    +0.299 C 
ATOM      8  O   UNL     1       1.746   1.681  -0.309  0.00  0.00    -0.265 OA
ATOM      9  N   UNL     1      -0.465   1.783  -0.460  0.00  0.00    -0.307 N 
ATOM     10  H   UNL     1      -1.373   2.403  -0.499  0.00  0.00    +0.149 HD
BRANCH   9  11
ATOM     11  C   UNL     1      -0.572   0.324  -0.526  0.00  0.00    +0.109 C 
BRANCH  11  12
ATOM     12  C   UNL     1      -2.045  -0.075  -0.645  0.00  0.00    +0.054 C 
BRANCH  12  13
ATOM     13  C   UNL     1      -2.155  -1.577  -0.713  0.00  0.00    -0.046 A 
ATOM     14  C   UNL     1      -2.127  -2.216  -1.939  0.00  0.00    +0.007 A 
ATOM     15  C   UNL     1      -2.222  -3.593  -2.003  0.00  0.00    +0.046 A 
ATOM     16  C   UNL     1      -2.357  -4.333  -0.838  0.00  0.00    +0.120 A 
ATOM     17  C   UNL     1      -2.390  -3.688   0.391  0.00  0.00    +0.046 A 
ATOM     18  C   UNL     1      -2.289  -2.312   0.450  0.00  0.00    +0.007 A 
BRANCH  16  19
ATOM     19  O   UNL     1      -2.455  -5.687  -0.899  0.00  0.00    -0.495 OA
ATOM     20  C   UNL     1      -2.414  -6.282  -2.197  0.00  0.00    +0.277 C 
ENDBRANCH  16  19
ENDBRANCH  12  13
ENDBRANCH  11  12
ENDBRANCH   9  11
ENDBRANCH   4   7
ENDBRANCH   2   3
BRANCH   2  21
ATOM     21  C   UNL     1       3.552   6.330  -0.608  0.00  0.00    +0.114 C 
BRANCH  21  22
ATOM     22  N   UNL     1       3.660   7.794  -0.541  0.00  0.00    -0.290 NA
ATOM     23  C   UNL     1       2.528   8.436  -1.225  0.00  0.00    +0.104 C 
ATOM     24  C   UNL     1       2.635   9.955  -1.065  0.00  0.00    +0.120 C 
ATOM     25  N   UNL     1       3.914  10.415  -1.624  0.00  0.00    -0.325 N 
ATOM     26  C   UNL     1       5.045   9.773  -0.940  0.00  0.00    +0.120 C 
ATOM     27  C   UNL     1       4.939   8.254  -1.100  0.00  0.00    +0.104 C 
BRANCH  25  28
ATOM     28  C   UNL     1       4.016  11.808  -1.561  0.00  0.00    +0.065 A 
ATOM     29  C   UNL     1       5.120  12.450  -2.105  0.00  0.00    +0.026 A 
ATOM     30  C   UNL     1       5.216  13.827  -2.045  0.00  0.00    +0.002 A 
ATOM     31  C   UNL     1       4.219  14.566  -1.435  0.00  0.00    +0.003 A 
ATOM     32  C   UNL     1       3.120  13.931  -0.887  0.00  0.00    +0.040 A 
ATOM     33  C   UNL     1       3.015  12.553  -0.948  0.00  0.00    +0.144 A 
ATOM     34  F   UNL     1       1.941  11.933  -0.412  0.00  0.00    -0.204 F 
ENDBRANCH  25  28
ENDBRANCH  21  22
BRANCH  21  35
ATOM     35  C   UNL     1       3.738   5.877  -2.033  0.00  0.00    +0.009 A 
ATOM     36  C   UNL     1       4.548   4.906  -2.521  0.00  0.00    +0.013 A 
ATOM     37  C   UNL     1       4.554   4.659  -3.881  0.00  0.00    +0.008 A 
ATOM     38  C   UNL     1       3.749   5.395  -4.686  0.00  0.00    +0.045 A 
ATOM     39  S   UNL     1       2.942   6.474  -3.515  0.00  0.00    -0.100 S 
ENDBRANCH  21  35
ENDBRANCH   2  21
TORSDOF 10
