REMARK  Name = ZINC01386173
REMARK  5 active torsions:
REMARK  status: ('A' for Active; 'I' for Inactive)
REMARK    1  A    between atoms: C_1  and  O_2
REMARK    2  A    between atoms: O_2  and  C_3
REMARK    3  A    between atoms: C_6  and  C_9
REMARK    4  A    between atoms: C_15  and  N_24
REMARK    5  A    between atoms: C_16  and  C_19
REMARK                            x       y       z     vdW  Elec       q    Type
REMARK                         _______ _______ _______ _____ _____    ______ ____
ROOT
ATOM      1  C   UNL     1       0.870  -2.139  -0.017  0.00  0.00    +0.080 A 
ATOM      2  C   UNL     1      -0.396  -2.656  -0.009  0.00  0.00    +0.077 A 
ATOM      3  S   UNL     1      -1.366  -1.154   0.016  0.00  0.00    -0.056 S 
ATOM      4  C   UNL     1       0.002  -0.004   0.002  0.00  0.00    +0.196 A 
ATOM      5  N   UNL     1       1.035  -0.825  -0.012  0.00  0.00    -0.221 NA
ATOM      6  N   UNL     1      -0.017   1.389   0.010  0.00  0.00    -0.194 N 
ATOM      7  C   UNL     1      -1.130   2.174   0.019  0.00  0.00    +0.130 A 
ATOM      8  C   UNL     1      -0.702   3.487   0.028  0.00  0.00    +0.042 A 
ATOM      9  C   UNL     1       0.706   3.470   0.014  0.00  0.00    +0.145 A 
ATOM     10  N   UNL     1       1.105   2.226   0.004  0.00  0.00    -0.171 NA
ENDROOT
BRANCH   1  14
ATOM     11  C   UNL     1       4.246  -4.726  -0.061  0.00  0.00    +0.120 A 
ATOM     12  C   UNL     1       4.428  -3.350  -0.056  0.00  0.00    +0.046 A 
ATOM     13  C   UNL     1       3.336  -2.509  -0.041  0.00  0.00    +0.013 A 
ATOM     14  C   UNL     1       2.047  -3.041  -0.033  0.00  0.00    +0.001 A 
ATOM     15  C   UNL     1       1.868  -4.423  -0.032  0.00  0.00    +0.013 A 
ATOM     16  C   UNL     1       2.964  -5.260  -0.052  0.00  0.00    +0.046 A 
BRANCH  11  18
ATOM     17  C   UNL     1       5.064  -6.958  -0.079  0.00  0.00    +0.277 C 
ATOM     18  O   UNL     1       5.324  -5.553  -0.074  0.00  0.00    -0.495 OA
ENDBRANCH  11  18
ENDBRANCH   1  14
BRANCH   8  19
ATOM     19  C   UNL     1      -1.567   4.695   0.042  0.00  0.00    -0.006 A 
ATOM     20  C   UNL     1      -1.348   5.715   0.961  0.00  0.00    +0.016 A 
ATOM     21  C   UNL     1      -2.157   6.800   0.942  0.00  0.00    +0.046 A 
ATOM     22  S   UNL     1      -3.276   6.413  -0.394  0.00  0.00    -0.104 S 
ATOM     23  C   UNL     1      -2.591   4.830  -0.851  0.00  0.00    +0.053 A 
ENDBRANCH   8  19
BRANCH   7  24
ATOM     24  N   UNL     1      -2.450   1.735   0.022  0.00  0.00    -0.343 N 
ATOM     25  H   UNL     1      -2.645   0.785   0.018  0.00  0.00    +0.144 HD
ATOM     26  H   UNL     1      -3.175   2.380   0.028  0.00  0.00    +0.144 HD
ENDBRANCH   7  24
TORSDOF 4
