REMARK  Name = ZINC38981140
REMARK  9 active torsions:
REMARK  status: ('A' for Active; 'I' for Inactive)
REMARK    1  A    between atoms: C_1  and  C_2
REMARK    2  A    between atoms: C_2  and  C_3
REMARK    3  A    between atoms: C_3  and  C_5
REMARK    4  A    between atoms: C_3  and  C_6
REMARK    5  A    between atoms: C_9  and  N_12
REMARK    6  A    between atoms: N_12  and  C_13
REMARK    7  A    between atoms: N_16  and  S_17
REMARK    8  A    between atoms: S_17  and  C_20
REMARK    9  A    between atoms: C_24  and  C_26
REMARK                            x       y       z     vdW  Elec       q    Type
REMARK                         _______ _______ _______ _____ _____    ______ ____
ROOT
ATOM      1  C   UNL     1      -0.349  -6.793  -2.612  0.00  0.00    +0.237 C 
ATOM      2  C   UNL     1      -1.361  -7.730  -1.992  0.00  0.00    +0.192 C 
ATOM      3  N   UNL     1      -2.252  -7.281  -1.157  0.00  0.00    -0.110 NA
ATOM      4  N   UNL     1      -1.327  -9.032  -2.316  0.00  0.00    -0.226 NA
ATOM      5  C   UNL     1      -0.436  -9.511  -3.158  0.00  0.00    +0.089 A 
ATOM      6  C   UNL     1      -0.430 -10.893  -3.478  0.00  0.00    +0.030 A 
ATOM      7  C   UNL     1       0.482 -11.390  -4.341  0.00  0.00    +0.002 A 
ATOM      8  C   UNL     1       1.457 -10.590  -4.961  0.00  0.00    +0.002 A 
ATOM      9  C   UNL     1       1.540  -9.262  -4.726  0.00  0.00    +0.027 A 
ATOM     10  C   UNL     1       0.582  -8.643  -3.798  0.00  0.00    +0.063 A 
ATOM     11  N   UNL     1       0.631  -7.365  -3.548  0.00  0.00    -0.359 N 
ATOM     12  H   UNL     1       1.300  -6.803  -3.971  0.00  0.00    +0.162 HD
ENDROOT
BRANCH   3  13
ATOM     13  S   UNL     1      -3.354  -8.317  -0.485  0.00  0.00    +0.100 S 
ATOM     14  O   UNL     1      -4.180  -8.775  -1.546  0.00  0.00    -0.146 OA
ATOM     15  O   UNL     1      -2.622  -9.205   0.348  0.00  0.00    -0.146 OA
BRANCH  13  16
ATOM     16  C   UNL     1      -4.385  -7.363   0.580  0.00  0.00    +0.113 A 
ATOM     17  C   UNL     1      -4.037  -7.191   1.906  0.00  0.00    +0.029 A 
ATOM     18  C   UNL     1      -4.845  -6.443   2.741  0.00  0.00    +0.002 A 
ATOM     19  C   UNL     1      -6.001  -5.866   2.249  0.00  0.00    +0.003 A 
ATOM     20  C   UNL     1      -6.349  -6.038   0.923  0.00  0.00    -0.049 A 
ATOM     21  C   UNL     1      -5.538  -6.783   0.086  0.00  0.00    +0.032 A 
ATOM     22  C   UNL     1      -7.609  -5.410   0.387  0.00  0.00    +0.044 C 
ENDBRANCH  13  16
ENDBRANCH   3  13
BRANCH   1  23
ATOM     23  N   UNL     1       0.393  -6.153  -1.523  0.00  0.00    -0.318 N 
ATOM     24  H   UNL     1       0.799  -6.694  -0.828  0.00  0.00    +0.148 HD
BRANCH  23  28
ATOM     25  C   UNL     1       0.760  -2.007  -1.411  0.00  0.00    -0.044 A 
ATOM     26  C   UNL     1       0.207  -2.621  -2.521  0.00  0.00    +0.006 A 
ATOM     27  C   UNL     1       0.084  -3.996  -2.561  0.00  0.00    +0.023 A 
ATOM     28  C   UNL     1       0.516  -4.762  -1.486  0.00  0.00    +0.029 A 
ATOM     29  C   UNL     1       1.071  -4.142  -0.373  0.00  0.00    +0.023 A 
ATOM     30  C   UNL     1       1.196  -2.767  -0.342  0.00  0.00    +0.006 A 
BRANCH  25  31
ATOM     31  C   UNL     1       0.893  -0.506  -1.371  0.00  0.00    +0.016 C 
ATOM     32  C   UNL     1      -0.493   0.132  -1.490  0.00  0.00    +0.012 C 
BRANCH  31  34
ATOM     33  C   UNL     1       2.007   1.467  -2.423  0.00  0.00    +0.004 C 
ATOM     34  C   UNL     1       1.770  -0.040  -2.535  0.00  0.00    +0.004 C 
ENDBRANCH  31  34
ENDBRANCH  25  31
ENDBRANCH  23  28
ENDBRANCH   1  23
TORSDOF 6
