REMARK  Name = ZINC20387078
REMARK  8 active torsions:
REMARK  status: ('A' for Active; 'I' for Inactive)
REMARK    1  A    between atoms: C_1  and  O_2
REMARK    2  A    between atoms: O_2  and  C_3
REMARK    3  A    between atoms: C_8  and  C_9
REMARK    4  A    between atoms: C_17  and  O_31
REMARK    5  A    between atoms: N_20  and  C_21
REMARK    6  A    between atoms: C_21  and  C_22
REMARK    7  A    between atoms: N_24  and  C_25
REMARK    8  A    between atoms: C_25  and  C_26
REMARK                            x       y       z     vdW  Elec       q    Type
REMARK                         _______ _______ _______ _____ _____    ______ ____
ROOT
ATOM      1  C   UNL     1       0.002  -0.004   0.002  0.00  0.00    -0.028 C 
ATOM      2  C   UNL     1      -0.019   1.528   0.010  0.00  0.00    +0.011 C 
ATOM      3  C   UNL     1      -0.726   2.012   1.278  0.00  0.00    +0.005 C 
ATOM      4  C   UNL     1      -0.727   3.542   1.312  0.00  0.00    +0.000 C 
ATOM      5  C   UNL     1       0.716   4.051   1.313  0.00  0.00    +0.003 C 
ATOM      6  C   UNL     1       1.423   3.573   0.043  0.00  0.00    +0.035 C 
ATOM      7  C   UNL     1       1.422   2.045  -0.001  0.00  0.00    +0.066 C 
ATOM      8  C   UNL     1       2.164   1.493   1.219  0.00  0.00    +0.016 C 
ATOM      9  C   UNL     1       2.118  -0.037   1.185  0.00  0.00    -0.075 C 
ATOM     10  N   UNL     1       0.721  -0.488   1.188  0.00  0.00    +0.390 N 
ATOM     11  H   UNL     1       0.232  -0.056   2.074  0.00  0.00    -0.080 HD
ENDROOT
BRANCH   1  17
ATOM     12  C   UNL     1      -2.121  -0.657  -1.162  0.00  0.00    +0.122 A 
ATOM     13  C   UNL     1      -3.420  -1.143  -1.140  0.00  0.00    +0.046 A 
ATOM     14  C   UNL     1      -4.008  -1.484   0.062  0.00  0.00    +0.004 A 
ATOM     15  C   UNL     1      -3.301  -1.348   1.243  0.00  0.00    +0.000 A 
ATOM     16  C   UNL     1      -2.004  -0.870   1.223  0.00  0.00    +0.005 A 
ATOM     17  C   UNL     1      -1.411  -0.526   0.023  0.00  0.00    -0.019 A 
BRANCH  12  19
ATOM     18  C   UNL     1      -2.332  -0.475  -3.523  0.00  0.00    +0.277 C 
ATOM     19  O   UNL     1      -1.542  -0.314  -2.343  0.00  0.00    -0.495 OA
ENDBRANCH  12  19
ENDBRANCH   1  17
BRANCH   7  20
ATOM     20  O   UNL     1       2.075   1.607  -1.193  0.00  0.00    -0.388 OA
ATOM     21  H   UNL     1       3.124   1.883  -1.379  0.00  0.00    +0.210 HD
ENDBRANCH   7  20
BRANCH  10  22
ATOM     22  C   UNL     1       0.640  -1.951   1.292  0.00  0.00    +0.019 C 
BRANCH  22  23
ATOM     23  C   UNL     1       1.169  -2.389   2.634  0.00  0.00    +0.197 C 
ATOM     24  O   UNL     1       1.573  -1.563   3.425  0.00  0.00    -0.278 OA
ATOM     25  N   UNL     1       1.192  -3.698   2.954  0.00  0.00    -0.310 N 
ATOM     26  H   UNL     1       0.826  -4.446   2.236  0.00  0.00    +0.149 HD
BRANCH  25  27
ATOM     27  C   UNL     1       1.706  -4.123   4.258  0.00  0.00    +0.178 C 
BRANCH  27  28
ATOM     28  C   UNL     1       1.623  -5.624   4.365  0.00  0.00    +0.122 A 
ATOM     29  C   UNL     1       2.582  -6.493   3.998  0.00  0.00    +0.046 A 
ATOM     30  C   UNL     1       2.087  -7.789   4.271  0.00  0.00    +0.041 A 
ATOM     31  C   UNL     1       0.855  -7.635   4.788  0.00  0.00    +0.195 A 
ATOM     32  O   UNL     1       0.582  -6.321   4.849  0.00  0.00    -0.466 OA
ENDBRANCH  27  28
ENDBRANCH  25  27
ENDBRANCH  22  23
ENDBRANCH  10  22
TORSDOF 7
