REMARK  Name = ZINC33172065
REMARK  7 active torsions:
REMARK  status: ('A' for Active; 'I' for Inactive)
REMARK    1  A    between atoms: C_4  and  N_10
REMARK    2  A    between atoms: C_13  and  C_16
REMARK    3  A    between atoms: N_18  and  C_19
REMARK    4  A    between atoms: C_19  and  C_20
REMARK    5  A    between atoms: C_20  and  C_21
REMARK    6  A    between atoms: C_21  and  N_22
REMARK    7  A    between atoms: C_25  and  N_28
REMARK                            x       y       z     vdW  Elec       q    Type
REMARK                         _______ _______ _______ _____ _____    ______ ____
ROOT
ATOM      1  C   UNL     1       0.007   1.247   0.036  0.00  0.00    +0.216 C 
ATOM      2  O   UNL     1       0.017   0.036  -0.029  0.00  0.00    -0.276 OA
ATOM      3  N   UNL     1       1.169   1.928   0.089  0.00  0.00    -0.315 N 
ATOM      4  H   UNL     1       1.161   3.026   0.148  0.00  0.00    +0.149 HD
ENDROOT
BRANCH   1   8
ATOM      5  N   UNL     1      -3.849   2.502   1.314  0.00  0.00    -0.316 N 
ATOM      6  C   UNL     1      -3.788   1.746   0.057  0.00  0.00    +0.107 C 
ATOM      7  C   UNL     1      -2.460   0.990  -0.021  0.00  0.00    +0.031 C 
ATOM      8  C   UNL     1      -1.303   1.990   0.052  0.00  0.00    +0.078 C 
ATOM      9  C   UNL     1      -1.417   2.799   1.347  0.00  0.00    +0.031 C 
ATOM     10  C   UNL     1      -2.776   3.502   1.385  0.00  0.00    +0.107 C 
BRANCH   5  14
ATOM     11  C   UNL     1      -7.536   4.317   1.723  0.00  0.00    +0.033 A 
ATOM     12  C   UNL     1      -6.681   4.598   0.692  0.00  0.00    +0.085 A 
ATOM     13  N   UNL     1      -5.506   3.993   0.608  0.00  0.00    -0.349 N 
ATOM     14  C   UNL     1      -5.093   3.095   1.478  0.00  0.00    +0.107 A 
ATOM     15  C   UNL     1      -5.905   2.732   2.585  0.00  0.00    +0.027 A 
ATOM     16  C   UNL     1      -7.154   3.386   2.671  0.00  0.00    +0.024 A 
ATOM     17  S   UNL     1      -7.883   2.705   4.135  0.00  0.00    -0.096 S 
ATOM     18  C   UNL     1      -6.569   1.595   4.607  0.00  0.00    +0.046 A 
ATOM     19  C   UNL     1      -5.645   1.780   3.652  0.00  0.00    +0.019 A 
ATOM     20  H   UNL     1      -4.822   4.233  -0.219  0.00  0.00    +0.167 HD
ENDBRANCH   5  14
ENDBRANCH   1   8
BRANCH   3  21
ATOM     21  C   UNL     1       2.443   1.206   0.067  0.00  0.00    +0.105 C 
BRANCH  21  22
ATOM     22  C   UNL     1       3.599   2.207   0.137  0.00  0.00    +0.034 C 
BRANCH  22  23
ATOM     23  C   UNL     1       4.929   1.452   0.115  0.00  0.00    +0.086 C 
BRANCH  23  24
ATOM     24  N   UNL     1       6.038   2.413   0.182  0.00  0.00    -0.302 NA
ATOM     25  C   UNL     1       5.795   3.426   1.218  0.00  0.00    +0.083 C 
ATOM     26  C   UNL     1       6.894   4.489   1.162  0.00  0.00    +0.000 C 
ATOM     27  C   UNL     1       8.255   3.822   1.383  0.00  0.00    -0.066 C 
ATOM     28  C   UNL     1       8.462   2.739   0.321  0.00  0.00    +0.000 C 
ATOM     29  C   UNL     1       7.317   1.726   0.401  0.00  0.00    +0.083 C 
BRANCH  27  30
ATOM     30  N   UNL     1       9.319   4.829   1.272  0.00  0.00    +0.382 N 
ATOM     31  C   UNL     1      10.645   4.206   1.372  0.00  0.00    -0.078 C 
ATOM     32  C   UNL     1      11.725   5.257   1.108  0.00  0.00    -0.019 C 
ATOM     33  C   UNL     1      11.592   6.387   2.133  0.00  0.00    -0.004 C 
ATOM     34  C   UNL     1      10.186   6.987   2.041  0.00  0.00    -0.019 C 
ATOM     35  C   UNL     1       9.151   5.885   2.278  0.00  0.00    -0.078 C 
ATOM     36  H   UNL     1       9.242   5.296   0.279  0.00  0.00    -0.081 HD
ENDBRANCH  27  30
ENDBRANCH  23  24
ENDBRANCH  22  23
ENDBRANCH  21  22
ENDBRANCH   3  21
TORSDOF 7
