REMARK  Name = ZINC22513974
REMARK  9 active torsions:
REMARK  status: ('A' for Active; 'I' for Inactive)
REMARK    1  A    between atoms: C_1  and  C_2
REMARK    2  A    between atoms: C_2  and  C_4
REMARK    3  A    between atoms: C_2  and  N_12
REMARK    4  A    between atoms: C_13  and  C_15
REMARK    5  A    between atoms: C_15  and  C_17
REMARK    6  A    between atoms: C_15  and  S_18
REMARK    7  A    between atoms: S_18  and  C_19
REMARK    8  A    between atoms: C_22  and  C_25
REMARK    9  A    between atoms: N_23  and  N_24
REMARK                            x       y       z     vdW  Elec       q    Type
REMARK                         _______ _______ _______ _____ _____    ______ ____
ROOT
ATOM      1  C   UNL     1       1.266   1.673  -0.717  0.00  0.00    +0.137 C 
ATOM      2  C   UNL     1       1.936   2.056   0.604  0.00  0.00    +0.029 C 
ENDROOT
BRANCH   1   4
ATOM      3  N   UNL     1      -1.161   1.761  -0.248  0.00  0.00    -0.308 N 
ATOM      4  C   UNL     1      -0.058   1.010  -0.435  0.00  0.00    +0.227 C 
ATOM      5  O   UNL     1      -0.131  -0.199  -0.382  0.00  0.00    -0.275 OA
ATOM      6  H   UNL     1      -1.095   2.858  -0.297  0.00  0.00    +0.149 HD
BRANCH   3   8
ATOM      7  C   UNL     1      -2.595   0.875   1.523  0.00  0.00    +0.033 C 
ATOM      8  C   UNL     1      -2.449   1.117   0.020  0.00  0.00    +0.102 C 
BRANCH   8   9
ATOM      9  C   UNL     1      -3.566   2.010  -0.456  0.00  0.00    -0.009 A 
ATOM     10  C   UNL     1      -3.381   3.378  -0.513  0.00  0.00    +0.008 A 
ATOM     11  C   UNL     1      -4.403   4.197  -0.955  0.00  0.00    +0.020 A 
ATOM     12  C   UNL     1      -5.616   3.648  -1.329  0.00  0.00    +0.042 A 
ATOM     13  C   UNL     1      -5.805   2.279  -1.267  0.00  0.00    +0.040 A 
ATOM     14  C   UNL     1      -4.779   1.460  -0.830  0.00  0.00    +0.047 A 
ATOM     15 CL   UNL     1      -5.015  -0.259  -0.752  0.00  0.00    -0.083 Cl
ATOM     16 CL   UNL     1      -6.902   4.677  -1.878  0.00  0.00    -0.083 Cl
ENDBRANCH   8   9
ENDBRANCH   3   8
ENDBRANCH   1   4
BRANCH   1  17
ATOM     17  S   UNL     1       2.333   0.527  -1.625  0.00  0.00    -0.072 S 
BRANCH  17  18
ATOM     18  C   UNL     1       3.709   1.580  -1.946  0.00  0.00    +0.209 A 
ATOM     19  N   UNL     1       3.830   2.838  -1.589  0.00  0.00    -0.121 NA
ATOM     20  N   UNL     1       4.963   3.297  -1.985  0.00  0.00    -0.123 NA
ATOM     21  C   UNL     1       5.624   2.371  -2.619  0.00  0.00    +0.255 A 
ATOM     22  N   UNL     1       4.849   1.244  -2.617  0.00  0.00    -0.220 N 
BRANCH  21  23
ATOM     23  C   UNL     1       6.990   2.515  -3.240  0.00  0.00    +0.454 C 
ATOM     24  F   UNL     1       7.603   3.675  -2.755  0.00  0.00    -0.163 F 
ATOM     25  F   UNL     1       7.771   1.402  -2.912  0.00  0.00    -0.163 F 
ATOM     26  F   UNL     1       6.863   2.601  -4.631  0.00  0.00    -0.163 F 
ENDBRANCH  21  23
BRANCH  22  27
ATOM     27  N   UNL     1       5.153   0.033  -3.172  0.00  0.00    -0.295 N 
ATOM     28  H   UNL     1       6.113  -0.109  -3.691  0.00  0.00    +0.163 HD
ATOM     29  H   UNL     1       4.438  -0.799  -3.101  0.00  0.00    +0.163 HD
ENDBRANCH  22  27
ENDBRANCH  17  18
ENDBRANCH   1  17
TORSDOF 7
