REMARK  Name = ZINC43265421
REMARK  8 active torsions:
REMARK  status: ('A' for Active; 'I' for Inactive)
REMARK    1  A    between atoms: C_1  and  C_2
REMARK    2  A    between atoms: C_2  and  C_4
REMARK    3  A    between atoms: C_2  and  N_23
REMARK    4  A    between atoms: C_4  and  C_6
REMARK    5  A    between atoms: C_4  and  O_12
REMARK    6  A    between atoms: O_12  and  C_13
REMARK    7  A    between atoms: C_17  and  S_19
REMARK    8  A    between atoms: S_19  and  C_22
REMARK                            x       y       z     vdW  Elec       q    Type
REMARK                         _______ _______ _______ _____ _____    ______ ____
ROOT
ATOM      1  C   UNL     1       0.758  -0.511   1.264  0.00  0.00    +0.196 C 
ENDROOT
BRANCH   1   2
ATOM      2  C   UNL     1       0.188  -0.038   2.576  0.00  0.00    +0.029 A 
ATOM      3  C   UNL     1       0.527   1.048   3.312  0.00  0.00    +0.016 A 
ATOM      4  C   UNL     1      -0.139   1.289   4.499  0.00  0.00    +0.023 A 
ATOM      5  C   UNL     1      -1.113   0.431   4.892  0.00  0.00    +0.055 A 
ATOM      6  S   UNL     1      -1.116  -0.758   3.560  0.00  0.00    -0.083 S 
ATOM      7 BR   UNL     1      -2.193   0.485   6.443  0.00  0.00    -0.043 Br
ENDBRANCH   1   2
BRANCH   1   9
ATOM      8  C   UNL     1      -0.103   1.551   0.146  0.00  0.00    -0.010 C 
ATOM      9  C   UNL     1      -0.099   0.021   0.114  0.00  0.00    -0.032 C 
BRANCH   9  10
ATOM     10  N   UNL     1       0.457  -0.440  -1.165  0.00  0.00    +0.382 N 
ATOM     11  H   UNL     1       1.401  -0.099  -1.264  0.00  0.00    -0.089 HD
ATOM     12  H   UNL     1       0.459  -1.449  -1.187  0.00  0.00    -0.089 HD
ATOM     13  H   UNL     1      -0.108  -0.089  -1.924  0.00  0.00    -0.089 HD
ENDBRANCH   9  10
ENDBRANCH   1   9
BRANCH   1  14
ATOM     14  O   UNL     1       0.761  -1.940   1.234  0.00  0.00    -0.485 OA
BRANCH  14  15
ATOM     15  C   UNL     1       1.755  -2.539   0.526  0.00  0.00    +0.123 A 
ATOM     16  C   UNL     1       2.754  -1.773  -0.055  0.00  0.00    +0.046 A 
ATOM     17  C   UNL     1       3.763  -2.385  -0.773  0.00  0.00    +0.005 A 
ATOM     18  C   UNL     1       3.778  -3.760  -0.913  0.00  0.00    +0.027 A 
ATOM     19  C   UNL     1       2.783  -4.527  -0.335  0.00  0.00    +0.091 A 
ATOM     20  C   UNL     1       1.775  -3.920   0.390  0.00  0.00    +0.072 A 
BRANCH  19  21
ATOM     21  S   UNL     1       2.805  -6.279  -0.515  0.00  0.00    -0.006 S 
ATOM     22  O   UNL     1       1.446  -6.674  -0.386  0.00  0.00    -0.170 OA
ATOM     23  O   UNL     1       3.515  -6.510  -1.724  0.00  0.00    -0.170 OA
ATOM     24  C   UNL     1       3.767  -6.881   0.900  0.00  0.00    +0.200 C 
ENDBRANCH  19  21
ENDBRANCH  14  15
ENDBRANCH   1  14
TORSDOF 6
