REMARK  Name = ZINC64648345
REMARK  9 active torsions:
REMARK  status: ('A' for Active; 'I' for Inactive)
REMARK    1  A    between atoms: C_1  and  C_2
REMARK    2  A    between atoms: C_7  and  C_12
REMARK    3  A    between atoms: C_12  and  N_13
REMARK    4  A    between atoms: C_14  and  C_16
REMARK    5  A    between atoms: C_16  and  N_17
REMARK    6  A    between atoms: N_17  and  C_18
REMARK    7  A    between atoms: N_17  and  S_19
REMARK    8  A    between atoms: S_19  and  C_22
REMARK    9  A    between atoms: C_27  and  C_28
REMARK                            x       y       z     vdW  Elec       q    Type
REMARK                         _______ _______ _______ _____ _____    ______ ____
ROOT
ATOM      1  C   UNL     1      -5.199  -4.151   1.044  0.00  0.00    +0.204 C 
ENDROOT
BRANCH   1   3
ATOM      2  N   UNL     1      -2.771  -4.183   1.514  0.00  0.00    -0.310 N 
ATOM      3  C   UNL     1      -3.988  -4.714   1.743  0.00  0.00    +0.229 C 
ATOM      4  O   UNL     1      -4.110  -5.644   2.511  0.00  0.00    -0.274 OA
ATOM      5  H   UNL     1      -2.673  -3.439   0.900  0.00  0.00    +0.149 HD
BRANCH   2   6
ATOM      6  C   UNL     1      -1.594  -4.730   2.194  0.00  0.00    +0.151 C 
BRANCH   6  13
ATOM      7  C   UNL     1      -0.519   1.430  -0.961  0.00  0.00    +0.044 C 
ATOM      8  C   UNL     1      -0.424  -0.041  -0.651  0.00  0.00    -0.048 A 
ATOM      9  C   UNL     1      -0.230  -0.944  -1.711  0.00  0.00    +0.005 A 
ATOM     10  C   UNL     1      -0.135  -2.276  -1.524  0.00  0.00    +0.027 A 
ATOM     11  C   UNL     1      -0.235  -2.826  -0.165  0.00  0.00    +0.060 A 
ATOM     12  N   UNL     1      -0.182  -4.038   0.305  0.00  0.00    -0.362 N 
ATOM     13  C   UNL     1      -0.348  -3.954   1.762  0.00  0.00    +0.191 C 
ATOM     14  N   UNL     1      -0.506  -2.529   2.078  0.00  0.00    -0.362 N 
ATOM     15  C   UNL     1      -0.441  -1.870   0.958  0.00  0.00    +0.060 A 
ATOM     16  C   UNL     1      -0.524  -0.439   0.633  0.00  0.00    +0.030 A 
ATOM     17  H   UNL     1      -0.056  -4.849  -0.212  0.00  0.00    +0.162 HD
ATOM     18  H   UNL     1      -0.635  -2.148   2.961  0.00  0.00    +0.162 HD
ENDBRANCH   6  13
ENDBRANCH   2   6
ENDBRANCH   1   3
BRANCH   1  19
ATOM     19  N   UNL     1      -6.370  -4.974   1.356  0.00  0.00    -0.171 NA
ATOM     20  C   UNL     1      -7.115  -4.747   2.597  0.00  0.00    +0.132 C 
BRANCH  19  21
ATOM     21  S   UNL     1      -6.851  -6.161   0.306  0.00  0.00    +0.061 S 
ATOM     22  O   UNL     1      -8.178  -6.514   0.673  0.00  0.00    -0.153 OA
ATOM     23  O   UNL     1      -6.516  -5.709  -0.999  0.00  0.00    -0.153 OA
BRANCH  21  24
ATOM     24  C   UNL     1      -5.848  -7.574   0.622  0.00  0.00    +0.112 A 
ATOM     25  C   UNL     1      -4.648  -7.732  -0.048  0.00  0.00    +0.076 A 
ATOM     26  C   UNL     1      -3.860  -8.842   0.200  0.00  0.00    +0.144 A 
ATOM     27  C   UNL     1      -4.279  -9.797   1.126  0.00  0.00    +0.076 A 
ATOM     28  C   UNL     1      -5.480  -9.633   1.794  0.00  0.00    +0.032 A 
ATOM     29  C   UNL     1      -6.260  -8.519   1.544  0.00  0.00    -0.022 A 
ATOM     30  C   UNL     1      -7.565  -8.336   2.275  0.00  0.00    +0.046 C 
ATOM     31  N   UNL     1      -3.471 -10.918   1.367  0.00  0.00    -0.280 N 
ATOM     32  C   UNL     1      -2.186 -10.900   0.952  0.00  0.00    +0.255 C 
ATOM     33  O   UNL     1      -1.477 -11.869   1.122  0.00  0.00    -0.272 OA
ATOM     34  C   UNL     1      -1.635  -9.670   0.276  0.00  0.00    +0.325 C 
ATOM     35  O   UNL     1      -2.678  -9.012  -0.449  0.00  0.00    -0.481 OA
ATOM     36  H   UNL     1      -3.830 -11.694   1.825  0.00  0.00    +0.155 HD
ENDBRANCH  21  24
ENDBRANCH  19  21
ENDBRANCH   1  19
TORSDOF 6
