REMARK  Name = ZINC64605266
REMARK  8 active torsions:
REMARK  status: ('A' for Active; 'I' for Inactive)
REMARK    1  A    between atoms: C_1  and  C_2
REMARK    2  A    between atoms: C_2  and  C_4
REMARK    3  A    between atoms: C_2  and  N_15
REMARK    4  A    between atoms: C_18  and  N_28
REMARK    5  A    between atoms: C_20  and  C_22
REMARK    6  A    between atoms: C_29  and  C_31
REMARK    7  A    between atoms: C_31  and  C_32
REMARK    8  A    between atoms: C_31  and  C_33
REMARK                            x       y       z     vdW  Elec       q    Type
REMARK                         _______ _______ _______ _____ _____    ______ ____
ROOT
ATOM      1  N   UNL     1      -1.324  -0.832  -0.177  0.00  0.00    -0.216 N 
ATOM      2  C   UNL     1      -1.446  -1.519  -1.331  0.00  0.00    +0.289 A 
ATOM      3  O   UNL     1      -0.719  -1.265  -2.277  0.00  0.00    -0.264 OA
ATOM      4  C   UNL     1      -2.425  -2.539  -1.436  0.00  0.00    +0.102 A 
ATOM      5  C   UNL     1      -3.226  -2.805  -0.364  0.00  0.00    +0.059 A 
ATOM      6  C   UNL     1      -3.069  -2.066   0.826  0.00  0.00    +0.093 A 
ATOM      7  N   UNL     1      -2.154  -1.127   0.911  0.00  0.00    -0.167 NA
ENDROOT
BRANCH   6   8
ATOM      8  C   UNL     1      -3.940  -2.353   1.992  0.00  0.00    +0.002 A 
ATOM      9  C   UNL     1      -4.905  -3.355   1.914  0.00  0.00    +0.010 A 
ATOM     10  C   UNL     1      -5.712  -3.619   3.002  0.00  0.00    +0.001 A 
ATOM     11  C   UNL     1      -5.564  -2.891   4.169  0.00  0.00    +0.000 A 
ATOM     12  C   UNL     1      -4.607  -1.895   4.252  0.00  0.00    +0.001 A 
ATOM     13  C   UNL     1      -3.791  -1.627   3.172  0.00  0.00    +0.010 A 
ENDBRANCH   6   8
BRANCH   4  14
ATOM     14  N   UNL     1      -2.567  -3.262  -2.623  0.00  0.00    -0.281 N 
ATOM     15  C   UNL     1      -1.529  -3.970  -3.110  0.00  0.00    +0.220 C 
ATOM     16  O   UNL     1      -0.499  -4.051  -2.474  0.00  0.00    -0.275 OA
ATOM     17  H   UNL     1      -3.413  -3.254  -3.097  0.00  0.00    +0.155 HD
BRANCH  15  18
ATOM     18  C   UNL     1      -1.647  -4.662  -4.443  0.00  0.00    +0.069 C 
ATOM     19  C   UNL     1      -0.339  -5.389  -4.759  0.00  0.00    +0.017 C 
ATOM     20  C   UNL     1      -2.794  -5.674  -4.392  0.00  0.00    +0.017 C 
ENDBRANCH  15  18
ENDBRANCH   4  14
BRANCH   1  22
ATOM     21  C   UNL     1      -1.002   1.554   0.255  0.00  0.00    +0.043 C 
ATOM     22  C   UNL     1      -0.315   0.223  -0.059  0.00  0.00    +0.194 C 
BRANCH  22  23
ATOM     23  C   UNL     1       0.645  -0.121   1.050  0.00  0.00    +0.244 C 
ATOM     24  O   UNL     1       0.345  -0.960   1.873  0.00  0.00    -0.273 OA
ATOM     25  N   UNL     1       1.837   0.503   1.128  0.00  0.00    -0.269 N 
ATOM     26  C   UNL     1       2.274   1.592   0.250  0.00  0.00    +0.118 C 
ATOM     27  C   UNL     1       3.686   1.959   0.735  0.00  0.00    +0.056 C 
ATOM     28  C   UNL     1       3.949   1.017   1.888  0.00  0.00    -0.024 A 
ATOM     29  C   UNL     1       2.836   0.210   2.062  0.00  0.00    +0.040 A 
ATOM     30  C   UNL     1       2.842  -0.744   3.081  0.00  0.00    +0.024 A 
ATOM     31  C   UNL     1       3.941  -0.875   3.904  0.00  0.00    +0.002 A 
ATOM     32  C   UNL     1       5.045  -0.062   3.725  0.00  0.00    +0.000 A 
ATOM     33  C   UNL     1       5.049   0.880   2.712  0.00  0.00    +0.005 A 
ENDBRANCH  22  23
ENDBRANCH   1  22
TORSDOF 5
