REMARK  Name = ZINC20994752
REMARK  8 active torsions:
REMARK  status: ('A' for Active; 'I' for Inactive)
REMARK    1  A    between atoms: C_1  and  N_2
REMARK    2  A    between atoms: N_2  and  C_3
REMARK    3  A    between atoms: C_3  and  C_4
REMARK    4  A    between atoms: C_4  and  C_5
REMARK    5  A    between atoms: C_11  and  C_13
REMARK    6  A    between atoms: C_13  and  C_14
REMARK    7  A    between atoms: N_21  and  C_22
REMARK    8  A    between atoms: C_22  and  C_23
REMARK                            x       y       z     vdW  Elec       q    Type
REMARK                         _______ _______ _______ _____ _____    ______ ____
ROOT
ATOM      1  C   UNL     1      -4.277   1.856   0.061  0.00  0.00    +0.028 C 
ATOM      2  C   UNL     1      -4.962   1.640  -1.259  0.00  0.00    +0.200 C 
ATOM      3  O   UNL     1      -4.391   1.982  -2.273  0.00  0.00    -0.278 OA
ATOM      4  N   UNL     1      -6.175   1.087  -1.363  0.00  0.00    -0.318 N 
ATOM      5  C   UNL     1      -6.930   0.609  -0.208  0.00  0.00    +0.085 C 
ATOM      6  C   UNL     1      -6.371   1.225   1.076  0.00  0.00    -0.058 C 
ATOM      7  N   UNL     1      -4.912   1.031   1.097  0.00  0.00    +0.391 N 
ATOM      8  H   UNL     1      -6.600   0.999  -2.373  0.00  0.00    +0.149 HD
ATOM      9  H   UNL     1      -4.696  -0.026   0.882  0.00  0.00    -0.080 HD
ENDROOT
BRANCH   1  10
ATOM     10  C   UNL     1      -2.802   1.467  -0.063  0.00  0.00    +0.090 C 
BRANCH  10  13
ATOM     11  C   UNL     1      -0.287   0.295  -0.640  0.00  0.00    +0.132 C 
ATOM     12  N   UNL     1      -1.491  -0.538  -0.677  0.00  0.00    -0.304 N 
ATOM     13  C   UNL     1      -2.695   0.004  -0.406  0.00  0.00    +0.214 C 
ATOM     14  O   UNL     1      -3.692  -0.686  -0.437  0.00  0.00    -0.276 OA
BRANCH  12  15
ATOM     15  C   UNL     1      -1.387  -1.961  -1.011  0.00  0.00    +0.112 C 
BRANCH  15  16
ATOM     16  C   UNL     1      -1.177  -2.771   0.271  0.00  0.00    +0.057 C 
BRANCH  16  17
ATOM     17  C   UNL     1      -1.070  -4.234  -0.072  0.00  0.00    -0.009 A 
ATOM     18  C   UNL     1      -2.096  -5.114  -0.137  0.00  0.00    +0.108 A 
ATOM     19  N   UNL     1      -1.586  -6.317  -0.476  0.00  0.00    -0.284 N 
ATOM     20  H   UNL     1      -2.253  -7.184  -0.591  0.00  0.00    +0.188 HD
ATOM     21  N   UNL     1      -0.200  -6.173  -0.616  0.00  0.00    -0.182 NA
ATOM     22  C   UNL     1       0.109  -4.925  -0.374  0.00  0.00    +0.137 A 
ENDBRANCH  16  17
ENDBRANCH  15  16
ENDBRANCH  12  15
ENDBRANCH  10  13
ENDBRANCH   1  10
BRANCH   7  23
ATOM     23  C   UNL     1      -4.360   1.335   2.424  0.00  0.00    -0.042 C 
BRANCH  23  24
ATOM     24  C   UNL     1      -5.102   0.544   3.470  0.00  0.00    -0.061 A 
ATOM     25  C   UNL     1      -4.656  -0.715   3.828  0.00  0.00    +0.003 A 
ATOM     26  C   UNL     1      -5.335  -1.443   4.787  0.00  0.00    +0.023 A 
ATOM     27  C   UNL     1      -6.460  -0.912   5.391  0.00  0.00    +0.076 A 
ATOM     28  C   UNL     1      -6.907   0.349   5.032  0.00  0.00    +0.142 A 
ATOM     29  C   UNL     1      -6.223   1.079   4.075  0.00  0.00    +0.041 A 
ATOM     30  F   UNL     1      -8.007   0.870   5.620  0.00  0.00    -0.204 F 
ATOM     31 CL   UNL     1      -7.312  -1.825   6.596  0.00  0.00    -0.081 Cl
ENDBRANCH  23  24
ENDBRANCH   7  23
TORSDOF 7
