REMARK  Name = ZINC39678224
REMARK  9 active torsions:
REMARK  status: ('A' for Active; 'I' for Inactive)
REMARK    1  A    between atoms: C_1  and  C_2
REMARK    2  A    between atoms: C_2  and  C_3
REMARK    3  A    between atoms: C_3  and  C_4
REMARK    4  A    between atoms: C_4  and  C_6
REMARK    5  A    between atoms: C_4  and  C_7
REMARK    6  A    between atoms: C_11  and  C_20
REMARK    7  A    between atoms: N_22  and  C_23
REMARK    8  A    between atoms: C_23  and  C_24
REMARK    9  A    between atoms: C_29  and  N_30
REMARK                            x       y       z     vdW  Elec       q    Type
REMARK                         _______ _______ _______ _____ _____    ______ ____
ROOT
ATOM      1  C   UNL     1       2.132  -2.691  -3.050  0.00  0.00    +0.218 C 
ATOM      2  O   UNL     1       2.513  -1.998  -3.969  0.00  0.00    -0.275 OA
ATOM      3  N   UNL     1       1.926  -4.010  -3.240  0.00  0.00    -0.300 N 
ATOM      4  C   UNL     1       1.362  -4.988  -2.280  0.00  0.00    +0.121 C 
ATOM      5  C   UNL     1       0.461  -5.903  -3.140  0.00  0.00    +0.100 C 
ATOM      6  C   UNL     1       1.026  -5.782  -4.565  0.00  0.00    -0.004 C 
ATOM      7  C   UNL     1       2.207  -4.807  -4.457  0.00  0.00    +0.115 C 
ATOM      8  C   UNL     1      -0.033  -5.216  -5.506  0.00  0.00    -0.010 C 
ATOM      9  C   UNL     1       0.532  -5.159  -6.928  0.00  0.00    -0.082 C 
ATOM     10  N   UNL     1       0.925  -6.507  -7.355  0.00  0.00    +0.379 N 
ATOM     11  C   UNL     1       2.009  -7.007  -6.501  0.00  0.00    -0.082 C 
ATOM     12  C   UNL     1       1.506  -7.143  -5.061  0.00  0.00    -0.010 C 
ATOM     13  H   UNL     1       0.131  -7.125  -7.285  0.00  0.00    -0.086 HD
ATOM     14  H   UNL     1       1.240  -6.476  -8.313  0.00  0.00    -0.086 HD
ENDROOT
BRANCH   5  15
ATOM     15  C   UNL     1       0.548  -7.328  -2.658  0.00  0.00    +0.218 C 
ATOM     16  O   UNL     1       1.622  -7.798  -2.344  0.00  0.00    -0.275 OA
ATOM     17  N   UNL     1      -0.566  -8.081  -2.575  0.00  0.00    -0.311 N 
ATOM     18  H   UNL     1      -1.425  -7.705  -2.826  0.00  0.00    +0.149 HD
BRANCH  17  19
ATOM     19  C   UNL     1      -0.482  -9.466  -2.107  0.00  0.00    +0.141 C 
BRANCH  19  20
ATOM     20  C   UNL     1      -1.857 -10.082  -2.108  0.00  0.00    -0.009 A 
ATOM     21  C   UNL     1      -2.575 -10.173  -0.932  0.00  0.00    +0.007 A 
ATOM     22  C   UNL     1      -3.837 -10.738  -0.932  0.00  0.00    +0.000 A 
ATOM     23  C   UNL     1      -4.385 -11.214  -2.110  0.00  0.00    +0.002 A 
ATOM     24  C   UNL     1      -3.673 -11.126  -3.289  0.00  0.00    +0.023 A 
ATOM     25  C   UNL     1      -2.407 -10.553  -3.293  0.00  0.00    +0.034 A 
BRANCH  25  26
ATOM     26  N   UNL     1      -1.686 -10.458  -4.486  0.00  0.00    -0.330 N 
ATOM     27  C   UNL     1      -0.795 -11.546  -4.911  0.00  0.00    +0.105 C 
ATOM     28  C   UNL     1      -1.174 -11.965  -6.335  0.00  0.00    +0.019 C 
ATOM     29  C   UNL     1      -1.146 -10.737  -7.248  0.00  0.00    +0.003 C 
ATOM     30  C   UNL     1      -2.171  -9.711  -6.758  0.00  0.00    +0.019 C 
ATOM     31  C   UNL     1      -1.808  -9.270  -5.341  0.00  0.00    +0.105 C 
ENDBRANCH  25  26
ENDBRANCH  19  20
ENDBRANCH  17  19
ENDBRANCH   5  15
BRANCH   1  32
ATOM     32  C   UNL     1       1.888  -2.078  -1.695  0.00  0.00    +0.072 C 
ATOM     33  C   UNL     1       0.418  -1.667  -1.579  0.00  0.00    +0.017 C 
BRANCH  32  34
ATOM     34  C   UNL     1       2.777  -0.844  -1.526  0.00  0.00    +0.012 C 
BRANCH  34  36
ATOM     35  C   UNL     1       3.511   0.940   0.062  0.00  0.00    +0.004 C 
ATOM     36  C   UNL     1       2.622  -0.294  -0.107  0.00  0.00    -0.003 C 
ENDBRANCH  34  36
ENDBRANCH  32  34
ENDBRANCH   1  32
TORSDOF 7
