REMARK  Name = ZINC63171468
REMARK  7 active torsions:
REMARK  status: ('A' for Active; 'I' for Inactive)
REMARK    1  A    between atoms: C_1  and  C_2
REMARK    2  A    between atoms: C_2  and  C_4
REMARK    3  A    between atoms: C_2  and  N_21
REMARK    4  A    between atoms: C_4  and  C_5
REMARK    5  A    between atoms: C_5  and  N_6
REMARK    6  A    between atoms: N_6  and  C_7
REMARK    7  A    between atoms: C_16  and  N_17
REMARK                            x       y       z     vdW  Elec       q    Type
REMARK                         _______ _______ _______ _____ _____    ______ ____
ROOT
ATOM      1  C   UNL     1       2.140  -3.832   2.405  0.00  0.00    +0.069 A 
ATOM      2  C   UNL     1       2.515  -4.394   3.649  0.00  0.00    +0.024 A 
ATOM      3  C   UNL     1       2.806  -3.586   4.756  0.00  0.00    +0.027 A 
ATOM      4  C   UNL     1       3.164  -4.164   5.938  0.00  0.00    +0.019 A 
ATOM      5  C   UNL     1       3.244  -5.550   6.058  0.00  0.00    +0.017 A 
ATOM      6  C   UNL     1       2.969  -6.363   5.002  0.00  0.00    +0.029 A 
ATOM      7  C   UNL     1       2.596  -5.802   3.768  0.00  0.00    +0.073 A 
ATOM      8  N   UNL     1       2.319  -6.578   2.714  0.00  0.00    -0.253 NA
ATOM      9  C   UNL     1       1.969  -6.069   1.556  0.00  0.00    +0.146 A 
ATOM     10  C   UNL     1       1.862  -4.699   1.360  0.00  0.00    +0.165 A 
ATOM     11 BR   UNL     1       3.556  -3.073   7.432  0.00  0.00    -0.050 Br
ENDROOT
BRANCH  10  12
ATOM     12  N   UNL     1       1.459  -4.165   0.039  0.00  0.00    +0.060 N 
ATOM     13  O   UNL     1       1.332  -4.914  -0.902  0.00  0.00    -0.126 OA
ATOM     14  O   UNL     1       1.256  -2.981  -0.098  0.00  0.00    -0.126 OA
ENDBRANCH  10  12
BRANCH   1  15
ATOM     15  N   UNL     1       2.047  -2.459   2.240  0.00  0.00    -0.342 N 
ATOM     16  H   UNL     1       1.187  -2.018   2.317  0.00  0.00    +0.146 HD
BRANCH  15  17
ATOM     17  C   UNL     1       3.249  -1.673   1.948  0.00  0.00    +0.100 C 
BRANCH  17  18
ATOM     18  C   UNL     1       3.065  -0.932   0.622  0.00  0.00    +0.002 C 
BRANCH  18  20
ATOM     19  C   UNL     1       4.089   0.726  -0.942  0.00  0.00    -0.014 C 
ATOM     20  C   UNL     1       4.320  -0.112   0.318  0.00  0.00    -0.077 C 
BRANCH  20  21
ATOM     21  N   UNL     1       5.456  -1.018   0.102  0.00  0.00    +0.380 N 
ATOM     22  H   UNL     1       6.284  -0.477  -0.099  0.00  0.00    -0.090 HD
ATOM     23  H   UNL     1       5.609  -1.570   0.932  0.00  0.00    -0.090 HD
ATOM     24  H   UNL     1       5.256  -1.628  -0.676  0.00  0.00    -0.090 HD
ENDBRANCH  20  21
ENDBRANCH  18  20
ENDBRANCH  17  18
ENDBRANCH  15  17
ENDBRANCH   1  15
TORSDOF 6
