REMARK  Name = ZINC09335645
REMARK  5 active torsions:
REMARK  status: ('A' for Active; 'I' for Inactive)
REMARK    1  A    between atoms: C_1  and  C_2
REMARK    2  A    between atoms: C_2  and  C_4
REMARK    3  A    between atoms: C_2  and  N_18
REMARK    4  A    between atoms: C_9  and  C_12
REMARK    5  A    between atoms: C_19  and  C_21
REMARK                            x       y       z     vdW  Elec       q    Type
REMARK                         _______ _______ _______ _____ _____    ______ ____
ROOT
ATOM      1  C   UNL     1       6.360   5.855  -0.029  0.00  0.00    +0.239 C 
ATOM      2  O   UNL     1       7.294   5.081  -0.042  0.00  0.00    -0.273 OA
ATOM      3  N   UNL     1       5.097   5.386  -0.019  0.00  0.00    -0.263 N 
ATOM      4  C   UNL     1       4.864   4.016  -0.024  0.00  0.00    +0.165 A 
ATOM      5  N   UNL     1       3.716   3.365  -0.016  0.00  0.00    -0.223 NA
ATOM      6  C   UNL     1       3.677   2.040  -0.023  0.00  0.00    +0.098 A 
ATOM      7  C   UNL     1       4.849   1.335  -0.033  0.00  0.00    +0.078 A 
ATOM      8  S   UNL     1       6.039   2.670  -0.043  0.00  0.00    -0.060 S 
ATOM      9  H   UNL     1       4.350   6.005  -0.008  0.00  0.00    +0.157 HD
ENDROOT
BRANCH   6  10
ATOM     10  C   UNL     1       2.377   1.330  -0.014  0.00  0.00    +0.090 A 
ATOM     11  C   UNL     1       1.189   2.061   0.002  0.00  0.00    +0.030 A 
ATOM     12  C   UNL     1      -0.017   1.384   0.010  0.00  0.00    +0.004 A 
ATOM     13  C   UNL     1       0.002  -0.004   0.002  0.00  0.00    +0.020 A 
ATOM     14  C   UNL     1       1.215  -0.666  -0.013  0.00  0.00    +0.111 A 
ATOM     15  N   UNL     1       2.351   0.003  -0.021  0.00  0.00    -0.253 NA
ENDBRANCH   6  10
BRANCH   1  17
ATOM     16  C   UNL     1       5.975   7.971  -1.263  0.00  0.00    +0.038 C 
ATOM     17  C   UNL     1       6.613   7.340  -0.023  0.00  0.00    +0.156 C 
BRANCH  17  18
ATOM     18  N   UNL     1       8.056   7.590  -0.036  0.00  0.00    -0.300 N 
ATOM     19  C   UNL     1       8.545   8.745   0.458  0.00  0.00    +0.251 C 
ATOM     20  O   UNL     1       7.787   9.580   0.916  0.00  0.00    -0.270 OA
ATOM     21  H   UNL     1       8.661   6.925  -0.401  0.00  0.00    +0.150 HD
BRANCH  19  22
ATOM     22  C   UNL     1       9.989   8.995   0.445  0.00  0.00    +0.074 A 
ATOM     23  C   UNL     1      10.688  10.102   0.899  0.00  0.00    +0.021 A 
ATOM     24  C   UNL     1      12.054  10.077   0.766  0.00  0.00    +0.008 A 
ATOM     25  C   UNL     1      12.646   8.990   0.206  0.00  0.00    +0.046 A 
ATOM     26  S   UNL     1      11.306   7.950  -0.152  0.00  0.00    -0.092 S 
ENDBRANCH  19  22
ENDBRANCH  17  18
ENDBRANCH   1  17
TORSDOF 4
