REMARK  Name = ZINC63751893
REMARK  5 active torsions:
REMARK  status: ('A' for Active; 'I' for Inactive)
REMARK    1  A    between atoms: C_1  and  C_2
REMARK    2  A    between atoms: C_5  and  C_8
REMARK    3  A    between atoms: C_14  and  S_16
REMARK    4  A    between atoms: S_16  and  C_17
REMARK    5  A    between atoms: C_17  and  C_18
REMARK                            x       y       z     vdW  Elec       q    Type
REMARK                         _______ _______ _______ _____ _____    ______ ____
ROOT
ATOM      1  C   UNL     1       0.060  -4.251  -0.021  0.00  0.00    +0.250 C 
ATOM      2  O   UNL     1       0.062  -4.853  -1.077  0.00  0.00    -0.270 OA
ATOM      3  N   UNL     1       0.075  -4.931   1.142  0.00  0.00    -0.259 N 
ATOM      4  C   UNL     1       0.093  -6.323   1.134  0.00  0.00    +0.189 A 
ATOM      5  N   UNL     1       0.105  -7.167   0.116  0.00  0.00    -0.125 NA
ATOM      6  N   UNL     1       0.122  -8.417   0.285  0.00  0.00    -0.133 NA
ATOM      7  C   UNL     1       0.129  -8.961   1.493  0.00  0.00    +0.160 A 
ATOM      8  S   UNL     1       0.116  -7.481   2.500  0.00  0.00    -0.024 S 
ATOM      9  H   UNL     1       0.073  -4.451   1.985  0.00  0.00    +0.157 HD
ENDROOT
BRANCH   1  14
ATOM     10  C   UNL     1      -0.018   1.503   0.010  0.00  0.00    +0.044 C 
ATOM     11  C   UNL     1       0.002  -0.004   0.002  0.00  0.00    -0.050 A 
ATOM     12  C   UNL     1       0.006  -0.686  -1.202  0.00  0.00    +0.004 A 
ATOM     13  C   UNL     1       0.024  -2.066  -1.216  0.00  0.00    +0.013 A 
ATOM     14  C   UNL     1       0.040  -2.773  -0.013  0.00  0.00    +0.037 A 
ATOM     15  C   UNL     1       0.037  -2.079   1.198  0.00  0.00    +0.013 A 
ATOM     16  C   UNL     1       0.023  -0.699   1.198  0.00  0.00    +0.004 A 
ENDBRANCH   1  14
BRANCH   7  17
ATOM     17  S   UNL     1       0.152 -10.657   1.972  0.00  0.00    -0.094 S 
BRANCH  17  18
ATOM     18  C   UNL     1       0.164 -11.557   0.397  0.00  0.00    +0.110 C 
BRANCH  18  19
ATOM     19  C   UNL     1       0.184 -13.062   0.670  0.00  0.00    +0.176 C 
ATOM     20  C   UNL     1       0.091 -13.774  -0.660  0.00  0.00    +0.240 C 
ATOM     21  O   UNL     1      -0.850 -13.572  -1.402  0.00  0.00    -0.273 OA
ATOM     22  N   UNL     1       1.057 -14.626  -1.010  0.00  0.00    -0.282 N 
ATOM     23  C   UNL     1       2.092 -14.863  -0.221  0.00  0.00    +0.057 A 
ATOM     24  C   UNL     1       3.097 -15.772  -0.622  0.00  0.00    +0.025 A 
ATOM     25  C   UNL     1       4.158 -16.018   0.182  0.00  0.00    +0.002 A 
ATOM     26  C   UNL     1       4.323 -15.402   1.433  0.00  0.00    +0.002 A 
ATOM     27  C   UNL     1       3.421 -14.517   1.913  0.00  0.00    +0.027 A 
ATOM     28  C   UNL     1       2.238 -14.196   1.097  0.00  0.00    +0.057 A 
ATOM     29  N   UNL     1       1.348 -13.348   1.524  0.00  0.00    -0.372 N 
ATOM     30  H   UNL     1       1.450 -12.915   2.385  0.00  0.00    +0.160 HD
ATOM     31  H   UNL     1       0.999 -15.084  -1.863  0.00  0.00    +0.155 HD
ENDBRANCH  18  19
ENDBRANCH  17  18
ENDBRANCH   7  17
TORSDOF 4
