REMARK  Name = ZINC13010475
REMARK  10 active torsions:
REMARK  status: ('A' for Active; 'I' for Inactive)
REMARK    1  A    between atoms: C_1  and  O_2
REMARK    2  A    between atoms: O_2  and  C_3
REMARK    3  A    between atoms: C_3  and  C_4
REMARK    4  A    between atoms: C_4  and  C_5
REMARK    5  A    between atoms: C_5  and  N_6
REMARK    6  A    between atoms: N_6  and  C_7
REMARK    7  A    between atoms: C_8  and  N_23
REMARK    8  A    between atoms: N_9  and  C_16
REMARK    9  A    between atoms: C_16  and  C_17
REMARK   10  A    between atoms: C_24  and  C_26
REMARK                            x       y       z     vdW  Elec       q    Type
REMARK                         _______ _______ _______ _____ _____    ______ ____
ROOT
ATOM      1  C   UNL     1       0.072  -4.769  -2.623  0.00  0.00    +0.140 A 
ATOM      2  C   UNL     1      -0.183  -4.875  -3.975  0.00  0.00    +0.128 A 
ATOM      3  N   UNL     1      -1.227  -5.662  -4.401  0.00  0.00    -0.276 N 
ATOM      4  C   UNL     1      -1.991  -6.321  -3.510  0.00  0.00    +0.331 A 
ATOM      5  O   UNL     1      -2.909  -7.012  -3.907  0.00  0.00    -0.246 OA
ATOM      6  N   UNL     1      -1.757  -6.229  -2.189  0.00  0.00    -0.273 N 
ATOM      7  H   UNL     1      -2.322  -6.714  -1.567  0.00  0.00    +0.173 HD
ATOM      8  C   UNL     1      -0.743  -5.476  -1.720  0.00  0.00    +0.277 A 
ATOM      9  O   UNL     1      -0.537  -5.403  -0.520  0.00  0.00    -0.266 OA
ENDROOT
BRANCH   1  10
ATOM     10  N   UNL     1       1.136  -3.969  -2.154  0.00  0.00    -0.260 N 
ATOM     11  C   UNL     1       2.205  -4.546  -1.569  0.00  0.00    +0.258 C 
ATOM     12  O   UNL     1       2.300  -5.759  -1.535  0.00  0.00    -0.269 OA
BRANCH  11  13
ATOM     13  C   UNL     1       3.253  -3.712  -0.974  0.00  0.00    +0.075 A 
ATOM     14  C   UNL     1       4.469  -4.090  -0.439  0.00  0.00    +0.024 A 
ATOM     15  C   UNL     1       5.280  -3.076   0.065  0.00  0.00    -0.036 A 
ATOM     16  C   UNL     1       4.793  -1.811  -0.020  0.00  0.00    -0.006 A 
ATOM     17  S   UNL     1       3.297  -1.943  -0.759  0.00  0.00    -0.088 S 
ATOM     18  C   UNL     1       5.444  -0.542   0.445  0.00  0.00    +0.043 C 
ATOM     19  C   UNL     1       6.967  -0.700   0.389  0.00  0.00    +0.005 C 
ATOM     20  C   UNL     1       7.447  -1.264   1.723  0.00  0.00    +0.001 C 
ATOM     21  C   UNL     1       6.824  -2.633   1.982  0.00  0.00    +0.005 C 
ATOM     22  C   UNL     1       6.643  -3.393   0.673  0.00  0.00    +0.036 C 
ENDBRANCH  11  13
BRANCH  10  23
ATOM     23  C   UNL     1       1.080  -2.513  -2.304  0.00  0.00    +0.116 C 
BRANCH  23  24
ATOM     24  C   UNL     1       0.440  -1.897  -1.058  0.00  0.00    +0.047 C 
BRANCH  24  25
ATOM     25  C   UNL     1       0.381  -0.376  -1.214  0.00  0.00    +0.161 C 
BRANCH  25  27
ATOM     26  C   UNL     1      -0.321   1.624  -0.095  0.00  0.00    +0.193 C 
ATOM     27  O   UNL     1      -0.217   0.199  -0.051  0.00  0.00    -0.383 OA
ENDBRANCH  25  27
ENDBRANCH  24  25
ENDBRANCH  23  24
ENDBRANCH  10  23
ENDBRANCH   1  10
BRANCH   2  28
ATOM     28  N   UNL     1       0.597  -4.202  -4.885  0.00  0.00    -0.343 N 
ATOM     29  H   UNL     1       1.337  -3.654  -4.578  0.00  0.00    +0.144 HD
ATOM     30  H   UNL     1       0.407  -4.274  -5.833  0.00  0.00    +0.144 HD
ENDBRANCH   2  28
BRANCH   3  31
ATOM     31  C   UNL     1      -1.510  -5.784  -5.833  0.00  0.00    +0.163 C 
BRANCH  31  32
ATOM     32  C   UNL     1      -0.733  -6.943  -6.402  0.00  0.00    -0.028 A 
ATOM     33  C   UNL     1       0.540  -6.743  -6.901  0.00  0.00    +0.005 A 
ATOM     34  C   UNL     1       1.253  -7.806  -7.423  0.00  0.00    +0.000 A 
ATOM     35  C   UNL     1       0.693  -9.069  -7.445  0.00  0.00    +0.000 A 
ATOM     36  C   UNL     1      -0.581  -9.270  -6.946  0.00  0.00    +0.000 A 
ATOM     37  C   UNL     1      -1.292  -8.207  -6.420  0.00  0.00    +0.005 A 
ENDBRANCH  31  32
ENDBRANCH   3  31
TORSDOF 9
