REMARK  Name = ZINC57328235
REMARK  11 active torsions:
REMARK  status: ('A' for Active; 'I' for Inactive)
REMARK    1  A    between atoms: C_1  and  C_2
REMARK    2  A    between atoms: C_6  and  C_10
REMARK    3  A    between atoms: C_7  and  O_8
REMARK    4  A    between atoms: O_8  and  C_9
REMARK    5  A    between atoms: N_12  and  C_13
REMARK    6  A    between atoms: C_13  and  N_15
REMARK    7  A    between atoms: N_15  and  C_16
REMARK    8  A    between atoms: C_18  and  C_28
REMARK    9  A    between atoms: C_21  and  N_22
REMARK   10  A    between atoms: C_28  and  O_30
REMARK   11  A    between atoms: O_30  and  C_31
REMARK                            x       y       z     vdW  Elec       q    Type
REMARK                         _______ _______ _______ _____ _____    ______ ____
ROOT
ATOM      1  N   UNL     1       0.104  -6.242   3.577  0.00  0.00    -0.295 N 
ATOM      2  H   UNL     1       0.686  -6.484   2.840  0.00  0.00    +0.154 HD
ENDROOT
BRANCH   1   3
ATOM      3  C   UNL     1       0.211  -6.911   4.804  0.00  0.00    +0.055 A 
ATOM      4  C   UNL     1       0.194  -6.195   5.986  0.00  0.00    +0.040 A 
ATOM      5  C   UNL     1       0.300  -6.866   7.208  0.00  0.00    +0.061 A 
ATOM      6  C   UNL     1       0.425  -8.259   7.230  0.00  0.00    +0.017 A 
ATOM      7  C   UNL     1       0.443  -8.968   6.050  0.00  0.00    +0.026 A 
ATOM      8  C   UNL     1       0.331  -8.303   4.833  0.00  0.00    +0.051 A 
BRANCH   8   9
ATOM      9  N   UNL     1       0.343  -9.025   3.643  0.00  0.00    -0.324 N 
ATOM     10  C   UNL     1       1.607  -9.316   2.947  0.00  0.00    +0.133 C 
ATOM     11  C   UNL     1       1.654 -10.818   2.640  0.00  0.00    +0.178 C 
ATOM     12  O   UNL     1       0.454 -11.198   1.963  0.00  0.00    -0.377 OA
ATOM     13  C   UNL     1      -0.736 -11.011   2.732  0.00  0.00    +0.178 C 
ATOM     14  C   UNL     1      -0.906  -9.524   3.047  0.00  0.00    +0.133 C 
ENDBRANCH   8   9
BRANCH   5  15
ATOM     15  C   UNL     1       0.282  -6.107   8.471  0.00  0.00    +0.339 C 
ATOM     16  O   UNL     1       0.175  -4.896   8.451  0.00  0.00    -0.245 OA
BRANCH  15  17
ATOM     17  O   UNL     1       0.386  -6.755   9.648  0.00  0.00    -0.464 OA
ATOM     18  C   UNL     1       0.361  -5.955  10.832  0.00  0.00    +0.280 C 
ENDBRANCH  15  17
ENDBRANCH   5  15
ENDBRANCH   1   3
BRANCH   1  19
ATOM     19  C   UNL     1      -0.809  -5.263   3.421  0.00  0.00    +0.141 C 
ATOM     20  S   UNL     1      -1.930  -4.930   4.671  0.00  0.00    -0.018 S 
BRANCH  19  23
ATOM     21  C   UNL     1      -1.752  -3.566   2.124  0.00  0.00    +0.253 C 
ATOM     22  O   UNL     1      -2.548  -3.330   3.012  0.00  0.00    -0.270 OA
ATOM     23  N   UNL     1      -0.839  -4.545   2.280  0.00  0.00    -0.263 N 
ATOM     24  H   UNL     1      -0.204  -4.734   1.572  0.00  0.00    +0.157 HD
BRANCH  21  30
ATOM     25  C   UNL     1      -3.772   0.068  -0.652  0.00  0.00    +0.047 C 
ATOM     26  C   UNL     1      -2.756  -1.030  -0.467  0.00  0.00    -0.007 A 
ATOM     27  C   UNL     1      -1.848  -1.304  -1.471  0.00  0.00    +0.022 A 
ATOM     28  C   UNL     1      -0.909  -2.311  -1.311  0.00  0.00    +0.019 A 
ATOM     29  C   UNL     1      -0.872  -3.049  -0.146  0.00  0.00    +0.032 A 
ATOM     30  C   UNL     1      -1.785  -2.781   0.877  0.00  0.00    +0.080 A 
ATOM     31  C   UNL     1      -2.729  -1.758   0.712  0.00  0.00    +0.135 A 
ATOM     32 BR   UNL     1       0.327  -2.675  -2.695  0.00  0.00    -0.050 Br
BRANCH  31  33
ATOM     33  O   UNL     1      -3.617  -1.484   1.701  0.00  0.00    -0.494 OA
ATOM     34  C   UNL     1      -4.857  -2.193   1.674  0.00  0.00    +0.277 C 
ENDBRANCH  31  33
ENDBRANCH  21  30
ENDBRANCH  19  23
ENDBRANCH   1  19
TORSDOF 8
