REMARK  Name = ZINC01283980
REMARK  10 active torsions:
REMARK  status: ('A' for Active; 'I' for Inactive)
REMARK    1  A    between atoms: C_1  and  C_2
REMARK    2  A    between atoms: C_9  and  N_13
REMARK    3  A    between atoms: C_10  and  C_11
REMARK    4  A    between atoms: C_14  and  C_16
REMARK    5  A    between atoms: C_16  and  C_17
REMARK    6  A    between atoms: C_17  and  C_18
REMARK    7  A    between atoms: C_20  and  O_27
REMARK    8  A    between atoms: C_21  and  O_25
REMARK    9  A    between atoms: O_25  and  C_26
REMARK   10  A    between atoms: O_27  and  C_28
REMARK                            x       y       z     vdW  Elec       q    Type
REMARK                         _______ _______ _______ _____ _____    ______ ____
ROOT
ATOM      1  N   UNL     1       1.941  -5.828   1.697  0.00  0.00    -0.279 N 
ATOM      2  C   UNL     1       2.252  -6.088   2.983  0.00  0.00    +0.218 C 
ATOM      3  O   UNL     1       2.232  -5.196   3.804  0.00  0.00    -0.275 OA
ATOM      4  H   UNL     1       1.957  -6.541   1.040  0.00  0.00    +0.155 HD
ENDROOT
BRANCH   1  12
ATOM      5  C   UNL     1      -0.019   1.526   0.010  0.00  0.00    +0.008 C 
ATOM      6  C   UNL     1       0.002  -0.004   0.002  0.00  0.00    -0.009 C 
ATOM      7  C   UNL     1       0.724  -0.500  -1.254  0.00  0.00    +0.008 C 
ATOM      8  C   UNL     1       0.537  -2.012  -1.399  0.00  0.00    +0.037 C 
ATOM      9  C   UNL     1       0.935  -2.680  -0.092  0.00  0.00    -0.018 A 
ATOM     10  C   UNL     1       1.019  -1.977   1.059  0.00  0.00    -0.004 A 
ATOM     11  S   UNL     1       1.508  -3.165   2.275  0.00  0.00    -0.077 S 
ATOM     12  C   UNL     1       1.599  -4.539   1.313  0.00  0.00    +0.090 A 
ATOM     13  C   UNL     1       1.254  -4.090   0.049  0.00  0.00    +0.084 A 
ATOM     14  C   UNL     1       0.750  -0.515   1.242  0.00  0.00    +0.046 C 
BRANCH  13  15
ATOM     15  C   UNL     1       1.212  -4.980  -1.072  0.00  0.00    +0.102 C 
ATOM     16  N   UNL     1       1.180  -5.685  -1.962  0.00  0.00    -0.191 NA
ENDBRANCH  13  15
ENDBRANCH   1  12
BRANCH   2  17
ATOM     17  C   UNL     1       2.624  -7.488   3.399  0.00  0.00    +0.101 C 
BRANCH  17  18
ATOM     18  C   UNL     1       2.928  -7.510   4.899  0.00  0.00    +0.045 C 
BRANCH  18  19
ATOM     19  C   UNL     1       3.300  -8.909   5.316  0.00  0.00    -0.029 A 
ATOM     20  C   UNL     1       4.630  -9.249   5.481  0.00  0.00    +0.054 A 
ATOM     21  C   UNL     1       4.974 -10.535   5.865  0.00  0.00    +0.162 A 
ATOM     22  C   UNL     1       3.978 -11.483   6.083  0.00  0.00    +0.163 A 
ATOM     23  C   UNL     1       2.647 -11.137   5.915  0.00  0.00    +0.065 A 
ATOM     24  C   UNL     1       2.310  -9.849   5.537  0.00  0.00    +0.025 A 
ATOM     25 BR   UNL     1       0.493  -9.376   5.315  0.00  0.00    -0.050 Br
BRANCH  22  26
ATOM     26  O   UNL     1       4.311 -12.747   6.459  0.00  0.00    -0.491 OA
ATOM     27  C   UNL     1       3.237 -13.667   6.664  0.00  0.00    +0.277 C 
ENDBRANCH  22  26
BRANCH  21  28
ATOM     28  O   UNL     1       6.282 -10.871   6.028  0.00  0.00    -0.491 OA
ATOM     29  C   UNL     1       7.249  -9.847   5.787  0.00  0.00    +0.277 C 
ENDBRANCH  21  28
ENDBRANCH  18  19
ENDBRANCH  17  18
ENDBRANCH   2  17
TORSDOF 7
