REMARK  Name = ZINC39012514
REMARK  8 active torsions:
REMARK  status: ('A' for Active; 'I' for Inactive)
REMARK    1  A    between atoms: C_1  and  C_2
REMARK    2  A    between atoms: C_5  and  C_9
REMARK    3  A    between atoms: C_6  and  O_8
REMARK    4  A    between atoms: C_12  and  C_14
REMARK    5  A    between atoms: N_16  and  C_17
REMARK    6  A    between atoms: C_19  and  C_29
REMARK    7  A    between atoms: N_31  and  C_32
REMARK    8  A    between atoms: C_32  and  C_33
REMARK                            x       y       z     vdW  Elec       q    Type
REMARK                         _______ _______ _______ _____ _____    ______ ____
ROOT
ATOM      1  C   UNL     1      -0.989  -8.318  -0.471  0.00  0.00    +0.261 C 
ATOM      2  O   UNL     1      -2.034  -8.854  -0.789  0.00  0.00    -0.269 OA
ATOM      3  N   UNL     1       0.183  -8.951  -0.674  0.00  0.00    -0.298 N 
ATOM      4  H   UNL     1       1.019  -8.496  -0.489  0.00  0.00    +0.150 HD
ENDROOT
BRANCH   3   5
ATOM      5  C   UNL     1       0.194 -10.328  -1.173  0.00  0.00    +0.144 C 
ATOM      6  C   UNL     1       1.183 -11.197  -0.373  0.00  0.00    +0.109 C 
ATOM      7  C   UNL     1       1.857 -12.272  -1.212  0.00  0.00    +0.016 C 
ATOM      8  C   UNL     1       3.353 -12.338  -0.831  0.00  0.00    +0.005 C 
ATOM      9  C   UNL     1       4.089 -12.623  -2.162  0.00  0.00    +0.001 C 
ATOM     10  C   UNL     1       3.268 -11.801  -3.188  0.00  0.00    +0.014 C 
ATOM     11  C   UNL     1       1.830 -11.989  -2.730  0.00  0.00    +0.052 C 
ATOM     12  S   UNL     1       0.909 -10.409  -2.866  0.00  0.00    -0.134 S 
BRANCH   6  13
ATOM     13  C   UNL     1       2.247 -10.305   0.211  0.00  0.00    +0.219 C 
ATOM     14  O   UNL     1       2.842  -9.524  -0.501  0.00  0.00    -0.275 OA
ATOM     15  N   UNL     1       2.539 -10.375   1.525  0.00  0.00    -0.308 N 
ATOM     16  H   UNL     1       2.015 -10.946   2.109  0.00  0.00    +0.149 HD
BRANCH  15  17
ATOM     17  C   UNL     1       3.647  -9.589   2.073  0.00  0.00    +0.178 C 
BRANCH  17  18
ATOM     18  C   UNL     1       3.762  -9.845   3.553  0.00  0.00    +0.122 A 
ATOM     19  C   UNL     1       4.509 -10.802   4.131  0.00  0.00    +0.046 A 
ATOM     20  C   UNL     1       4.321 -10.683   5.527  0.00  0.00    +0.041 A 
ATOM     21  C   UNL     1       3.470  -9.659   5.719  0.00  0.00    +0.195 A 
ATOM     22  O   UNL     1       3.139  -9.152   4.521  0.00  0.00    -0.466 OA
ENDBRANCH  17  18
ENDBRANCH  15  17
ENDBRANCH   6  13
ENDBRANCH   3   5
BRANCH   1  26
ATOM     23  C   UNL     1      -1.570  -4.884   1.041  0.00  0.00    +0.080 C 
ATOM     24  N   UNL     1      -0.280  -5.137   1.019  0.00  0.00    -0.153 NA
ATOM     25  N   UNL     1       0.021  -6.274   0.526  0.00  0.00    -0.148 NA
ATOM     26  C   UNL     1      -1.005  -6.982   0.132  0.00  0.00    +0.131 C 
ATOM     27  C   UNL     1      -2.219  -6.121   0.442  0.00  0.00    +0.120 C 
BRANCH  23  32
ATOM     28  C   UNL     1      -4.187  -0.158   2.999  0.00  0.00    +0.044 C 
ATOM     29  C   UNL     1      -3.497  -1.395   2.486  0.00  0.00    -0.047 A 
ATOM     30  C   UNL     1      -4.250  -2.438   1.967  0.00  0.00    +0.004 A 
ATOM     31  C   UNL     1      -3.633  -3.574   1.495  0.00  0.00    +0.013 A 
ATOM     32  C   UNL     1      -2.235  -3.679   1.540  0.00  0.00    +0.040 A 
ATOM     33  C   UNL     1      -1.477  -2.618   2.068  0.00  0.00    +0.126 A 
ATOM     34  C   UNL     1      -2.120  -1.481   2.533  0.00  0.00    +0.049 A 
BRANCH  33  35
ATOM     35  O   UNL     1      -0.125  -2.705   2.118  0.00  0.00    -0.506 OA
ATOM     36  H   UNL     1       0.321  -2.368   1.329  0.00  0.00    +0.292 HD
ENDBRANCH  33  35
ENDBRANCH  23  32
ENDBRANCH   1  26
TORSDOF 7
