REMARK  Name = ZINC43221750
REMARK  13 active torsions:
REMARK  status: ('A' for Active; 'I' for Inactive)
REMARK    1  A    between atoms: C_1  and  C_2
REMARK    2  A    between atoms: C_2  and  C_3
REMARK    3  A    between atoms: C_3  and  C_5
REMARK    4  A    between atoms: C_3  and  C_6
REMARK    5  A    between atoms: C_6  and  C_32
REMARK    6  A    between atoms: C_11  and  C_14
REMARK    7  A    between atoms: C_17  and  O_22
REMARK    8  A    between atoms: C_18  and  O_20
REMARK    9  A    between atoms: O_20  and  C_21
REMARK   10  A    between atoms: N_25  and  C_28
REMARK   11  A    between atoms: C_28  and  C_29
REMARK   12  A    between atoms: C_28  and  C_30
REMARK   13  A    between atoms: C_28  and  C_31
REMARK                            x       y       z     vdW  Elec       q    Type
REMARK                         _______ _______ _______ _____ _____    ______ ____
ROOT
ATOM      1  C   UNL     1      -0.936  -1.980  -0.043  0.00  0.00    +0.051 C 
ATOM      2  C   UNL     1      -2.082  -2.916  -0.392  0.00  0.00    +0.086 C 
ATOM      3  C   UNL     1      -2.003  -2.805  -1.963  0.00  0.00    +0.077 C 
ATOM      4  C   UNL     1      -0.566  -3.008  -2.212  0.00  0.00    -0.027 C 
ATOM      5  N   UNL     1       0.062  -2.141  -1.143  0.00  0.00    +0.396 N 
ATOM      6  C   UNL     1      -3.281  -3.342  -2.358  0.00  0.00    +0.225 C 
ATOM      7  O   UNL     1      -3.533  -3.990  -3.352  0.00  0.00    -0.275 OA
ATOM      8  N   UNL     1      -4.151  -2.963  -1.365  0.00  0.00    -0.236 N 
ATOM      9  C   UNL     1      -3.510  -2.494  -0.240  0.00  0.00    +0.225 C 
ATOM     10  O   UNL     1      -3.992  -1.867   0.678  0.00  0.00    -0.275 OA
ATOM     11  H   UNL     1       0.300  -1.237  -1.524  0.00  0.00    -0.083 HD
ATOM     12  H   UNL     1       0.892  -2.592  -0.788  0.00  0.00    -0.083 HD
ENDROOT
BRANCH   4  13
ATOM     13  C   UNL     1      -0.194  -4.459  -2.043  0.00  0.00    -0.057 A 
ATOM     14  C   UNL     1      -0.001  -4.979  -0.777  0.00  0.00    +0.006 A 
ATOM     15  C   UNL     1       0.341  -6.309  -0.617  0.00  0.00    +0.049 A 
ATOM     16  C   UNL     1       0.491  -7.124  -1.728  0.00  0.00    +0.158 A 
ATOM     17  C   UNL     1       0.297  -6.600  -3.003  0.00  0.00    +0.161 A 
ATOM     18  C   UNL     1      -0.050  -5.268  -3.155  0.00  0.00    +0.051 A 
BRANCH  17  19
ATOM     19  O   UNL     1       0.443  -7.396  -4.096  0.00  0.00    -0.491 OA
ATOM     20  C   UNL     1       0.229  -6.791  -5.372  0.00  0.00    +0.277 C 
ENDBRANCH  17  19
BRANCH  16  21
ATOM     21  O   UNL     1       0.828  -8.432  -1.573  0.00  0.00    -0.503 OA
ATOM     22  H   UNL     1       0.070  -9.026  -1.486  0.00  0.00    +0.292 HD
ENDBRANCH  16  21
ENDBRANCH   4  13
BRANCH   8  23
ATOM     23  C   UNL     1      -5.608  -3.056  -1.484  0.00  0.00    +0.036 C 
ATOM     24  C   UNL     1      -5.973  -3.628  -2.855  0.00  0.00    +0.031 C 
ATOM     25  C   UNL     1      -6.151  -3.973  -0.387  0.00  0.00    +0.031 C 
ATOM     26  C   UNL     1      -6.221  -1.662  -1.333  0.00  0.00    +0.031 C 
ENDBRANCH   8  23
BRANCH   1  27
ATOM     27  C   UNL     1      -0.325  -2.371   1.277  0.00  0.00    +0.347 C 
ATOM     28  O   UNL     1      -1.001  -2.352   2.292  0.00  0.00    -0.248 OA
ATOM     29  O   UNL     1       0.846  -2.707   1.331  0.00  0.00    -0.248 OA
ENDBRANCH   1  27
BRANCH   1  30
ATOM     30  C   UNL     1      -1.433  -0.534   0.013  0.00  0.00    -0.014 C 
ATOM     31  C   UNL     1      -1.932  -0.112  -1.371  0.00  0.00    +0.006 C 
BRANCH  30  33
ATOM     32  C   UNL     1      -0.813   1.809   0.620  0.00  0.00    +0.004 C 
ATOM     33  C   UNL     1      -0.287   0.383   0.443  0.00  0.00    -0.001 C 
ENDBRANCH  30  33
ENDBRANCH   1  30
TORSDOF 7
