REMARK  Name = ZINC47816939
REMARK  5 active torsions:
REMARK  status: ('A' for Active; 'I' for Inactive)
REMARK    1  A    between atoms: C_1  and  C_2
REMARK    2  A    between atoms: C_2  and  C_4
REMARK    3  A    between atoms: C_2  and  N_20
REMARK    4  A    between atoms: N_20  and  S_21
REMARK    5  A    between atoms: S_21  and  C_24
REMARK                            x       y       z     vdW  Elec       q    Type
REMARK                         _______ _______ _______ _____ _____    ______ ____
ROOT
ATOM      1  C   UNL     1      -1.391  -0.566   0.128  0.00  0.00    +0.234 C 
ATOM      2  O   UNL     1      -1.701  -1.202   1.113  0.00  0.00    -0.274 OA
ATOM      3  N   UNL     1      -2.294  -0.354  -0.850  0.00  0.00    -0.295 N 
ATOM      4  C   UNL     1      -1.911   0.321  -2.099  0.00  0.00    +0.114 C 
ATOM      5  C   UNL     1      -2.063  -0.660  -3.266  0.00  0.00    +0.072 C 
ATOM      6  C   UNL     1      -3.388  -1.374  -3.139  0.00  0.00    +0.023 A 
ATOM      7  C   UNL     1      -4.108  -1.437  -1.998  0.00  0.00    -0.002 A 
ATOM      8  C   UNL     1      -5.300  -2.207  -2.285  0.00  0.00    +0.005 A 
ATOM      9  C   UNL     1      -6.391  -2.595  -1.501  0.00  0.00    +0.010 A 
ATOM     10  C   UNL     1      -7.365  -3.341  -2.119  0.00  0.00    +0.001 A 
ATOM     11  C   UNL     1      -7.282  -3.698  -3.455  0.00  0.00    +0.002 A 
ATOM     12  C   UNL     1      -6.214  -3.327  -4.253  0.00  0.00    +0.026 A 
ATOM     13  C   UNL     1      -5.210  -2.570  -3.653  0.00  0.00    +0.047 A 
ATOM     14  N   UNL     1      -4.044  -2.050  -4.136  0.00  0.00    -0.358 N 
ATOM     15  H   UNL     1      -3.727  -2.143  -5.048  0.00  0.00    +0.166 HD
ATOM     16  C   UNL     1      -3.691  -0.799  -0.700  0.00  0.00    +0.145 C 
ENDROOT
BRANCH   1  18
ATOM     17  C   UNL     1       0.024   1.440   0.478  0.00  0.00    +0.035 C 
ATOM     18  C   UNL     1       0.005  -0.012  -0.002  0.00  0.00    +0.159 C 
BRANCH  18  19
ATOM     19  N   UNL     1       0.924  -0.808   0.814  0.00  0.00    -0.183 NA
ATOM     20  H   UNL     1       0.625  -1.181   1.658  0.00  0.00    +0.148 HD
BRANCH  19  21
ATOM     21  S   UNL     1       2.475  -1.073   0.296  0.00  0.00    +0.027 S 
ATOM     22  O   UNL     1       3.060  -1.887   1.303  0.00  0.00    -0.158 OA
ATOM     23  O   UNL     1       2.336  -1.553  -1.034  0.00  0.00    -0.158 OA
ATOM     24  C   UNL     1       3.250   0.568   0.289  0.00  0.00    +0.214 C 
ENDBRANCH  19  21
ENDBRANCH  18  19
ENDBRANCH   1  18
TORSDOF 3
