REMARK  Name = ZINC63572624
REMARK  2 active torsions:
REMARK  status: ('A' for Active; 'I' for Inactive)
REMARK    1  A    between atoms: C_6  and  C_7
REMARK    2  A    between atoms: N_25  and  C_26
REMARK                            x       y       z     vdW  Elec       q    Type
REMARK                         _______ _______ _______ _____ _____    ______ ____
ROOT
ATOM      1  C   UNL     1      -1.290  -0.774   0.012  0.00  0.00    +0.134 C 
ATOM      2  C   UNL     1      -1.683  -1.149  -1.421  0.00  0.00    +0.131 C 
ATOM      3  C   UNL     1      -0.702  -2.222  -1.874  0.00  0.00    -0.035 C 
ATOM      4  C   UNL     1      -0.142  -1.771  -2.991  0.00  0.00    +0.001 A 
ATOM      5  C   UNL     1       0.822  -2.382  -3.919  0.00  0.00    +0.030 A 
ATOM      6  C   UNL     1       1.199  -1.619  -4.980  0.00  0.00    +0.042 A 
ATOM      7  C   UNL     1       0.719  -0.325  -5.207  0.00  0.00    +0.022 A 
ATOM      8  C   UNL     1      -0.173   0.313  -4.407  0.00  0.00    +0.027 A 
ATOM      9  C   UNL     1      -0.647  -0.390  -3.261  0.00  0.00    +0.043 A 
ATOM     10  N   UNL     1      -1.523  -0.023  -2.342  0.00  0.00    -0.375 N 
ATOM     11 CL   UNL     1       2.336  -2.286  -6.111  0.00  0.00    -0.084 Cl
ATOM     12  C   UNL     1      -0.445  -3.476  -1.075  0.00  0.00    +0.052 C 
ATOM     13  C   UNL     1      -0.147  -3.028   0.368  0.00  0.00    +0.114 C 
ATOM     14  N   UNL     1      -1.131  -2.019   0.779  0.00  0.00    -0.276 N 
ATOM     15  C   UNL     1      -1.897  -2.236   1.866  0.00  0.00    +0.303 C 
ATOM     16  O   UNL     1      -2.780  -1.451   2.155  0.00  0.00    -0.253 OA
ATOM     17  N   UNL     1      -1.683  -3.322   2.635  0.00  0.00    -0.296 N 
ATOM     18  H   UNL     1      -0.932  -3.908   2.450  0.00  0.00    +0.151 HD
ATOM     19  H   UNL     1      -1.976   0.832  -2.278  0.00  0.00    +0.160 HD
ENDROOT
BRANCH   1  25
ATOM     20  C   UNL     1       0.055   1.284   0.480  0.00  0.00    +0.008 A 
ATOM     21  C   UNL     1       1.247   1.984   0.471  0.00  0.00    +0.038 A 
ATOM     22  C   UNL     1       2.396   1.386  -0.019  0.00  0.00    +0.123 A 
ATOM     23  C   UNL     1       2.349   0.088  -0.499  0.00  0.00    +0.038 A 
ATOM     24  C   UNL     1       1.157  -0.609  -0.488  0.00  0.00    +0.008 A 
ATOM     25  C   UNL     1       0.010  -0.012   0.001  0.00  0.00    -0.025 A 
ATOM     26  F   UNL     1       3.562   2.070  -0.029  0.00  0.00    -0.205 F 
ENDBRANCH   1  25
BRANCH  17  27
ATOM     27  C   UNL     1      -2.586  -3.620   3.750  0.00  0.00    +0.074 C 
ATOM     28  C   UNL     1      -2.108  -2.893   5.024  0.00  0.00    +0.022 C 
ATOM     29  C   UNL     1      -2.404  -3.897   6.167  0.00  0.00    +0.002 C 
ATOM     30  C   UNL     1      -2.062  -5.262   5.520  0.00  0.00    +0.002 C 
ATOM     31  C   UNL     1      -2.557  -5.125   4.065  0.00  0.00    +0.022 C 
ENDBRANCH  17  27
TORSDOF 2
