REMARK  Name = ZINC45521323
REMARK  9 active torsions:
REMARK  status: ('A' for Active; 'I' for Inactive)
REMARK    1  A    between atoms: C_1  and  C_2
REMARK    2  A    between atoms: C_2  and  C_3
REMARK    3  A    between atoms: C_7  and  O_9
REMARK    4  A    between atoms: O_9  and  C_10
REMARK    5  A    between atoms: C_10  and  C_11
REMARK    6  A    between atoms: C_11  and  C_13
REMARK    7  A    between atoms: C_11  and  O_31
REMARK    8  A    between atoms: C_13  and  N_14
REMARK    9  A    between atoms: C_17  and  N_20
REMARK                            x       y       z     vdW  Elec       q    Type
REMARK                         _______ _______ _______ _____ _____    ______ ____
ROOT
ATOM      1  N   UNL     1       8.274  -2.628  -4.559  0.00  0.00    +0.382 N 
ATOM      2  C   UNL     1       8.511  -3.840  -3.765  0.00  0.00    -0.077 C 
ATOM      3  C   UNL     1      10.016  -4.051  -3.586  0.00  0.00    +0.006 C 
ATOM      4  C   UNL     1      10.672  -4.203  -4.961  0.00  0.00    +0.089 C 
ATOM      5  C   UNL     1      10.356  -2.966  -5.807  0.00  0.00    +0.006 C 
ATOM      6  C   UNL     1       8.839  -2.796  -5.904  0.00  0.00    -0.077 C 
ATOM      7  H   UNL     1       8.714  -1.841  -4.107  0.00  0.00    -0.082 HD
ENDROOT
BRANCH   4   8
ATOM      8  N   UNL     1      12.123  -4.330  -4.800  0.00  0.00    -0.289 N 
ATOM      9  C   UNL     1      12.897  -5.412  -5.211  0.00  0.00    +0.070 A 
ATOM     10  C   UNL     1      12.600  -6.609  -5.844  0.00  0.00    +0.028 A 
ATOM     11  C   UNL     1      13.610  -7.506  -6.128  0.00  0.00    +0.002 A 
ATOM     12  C   UNL     1      14.919  -7.215  -5.784  0.00  0.00    +0.002 A 
ATOM     13  C   UNL     1      15.226  -6.025  -5.153  0.00  0.00    +0.028 A 
ATOM     14  C   UNL     1      14.218  -5.118  -4.865  0.00  0.00    +0.067 A 
ATOM     15  N   UNL     1      14.204  -3.866  -4.253  0.00  0.00    -0.306 N 
ATOM     16  H   UNL     1      14.978  -3.397  -3.905  0.00  0.00    +0.170 HD
ATOM     17  C   UNL     1      12.935  -3.417  -4.235  0.00  0.00    +0.328 A 
ATOM     18  O   UNL     1      12.577  -2.350  -3.774  0.00  0.00    -0.247 OA
ENDBRANCH   4   8
BRANCH   1  19
ATOM     19  C   UNL     1       6.829  -2.387  -4.663  0.00  0.00    -0.044 C 
BRANCH  19  20
ATOM     20  C   UNL     1       6.585  -1.042  -5.351  0.00  0.00    +0.135 C 
BRANCH  20  21
ATOM     21  O   UNL     1       7.177   0.003  -4.578  0.00  0.00    -0.390 OA
ATOM     22  H   UNL     1       6.827   0.075  -3.680  0.00  0.00    +0.210 HD
ENDBRANCH  20  21
BRANCH  20  23
ATOM     23  C   UNL     1       5.079  -0.797  -5.472  0.00  0.00    +0.258 C 
BRANCH  23  24
ATOM     24  O   UNL     1       4.850   0.401  -6.216  0.00  0.00    -0.489 OA
BRANCH  24  29
ATOM     25  C   UNL     1       1.944   2.285  -7.331  0.00  0.00    -0.044 A 
ATOM     26  C   UNL     1       0.921   1.506  -6.821  0.00  0.00    +0.004 A 
ATOM     27  C   UNL     1       1.213   0.358  -6.109  0.00  0.00    +0.004 A 
ATOM     28  C   UNL     1       2.528  -0.015  -5.905  0.00  0.00    +0.045 A 
ATOM     29  C   UNL     1       3.556   0.765  -6.416  0.00  0.00    +0.121 A 
ATOM     30  C   UNL     1       3.260   1.914  -7.135  0.00  0.00    +0.049 A 
BRANCH  25  32
ATOM     31  C   UNL     1       1.479   3.193  -9.591  0.00  0.00    +0.009 C 
ATOM     32  C   UNL     1       1.622   3.536  -8.107  0.00  0.00    +0.032 C 
ENDBRANCH  25  32
ENDBRANCH  24  29
ENDBRANCH  23  24
ENDBRANCH  20  23
ENDBRANCH  19  20
ENDBRANCH   1  19
TORSDOF 8
