REMARK  Name = ZINC09152101
REMARK  10 active torsions:
REMARK  status: ('A' for Active; 'I' for Inactive)
REMARK    1  A    between atoms: C_1  and  C_2
REMARK    2  A    between atoms: C_2  and  C_3
REMARK    3  A    between atoms: C_2  and  C_4
REMARK    4  A    between atoms: C_7  and  S_10
REMARK    5  A    between atoms: S_10  and  C_13
REMARK    6  A    between atoms: C_16  and  S_20
REMARK    7  A    between atoms: C_18  and  N_19
REMARK    8  A    between atoms: S_20  and  C_21
REMARK    9  A    between atoms: C_21  and  C_22
REMARK   10  A    between atoms: N_24  and  C_25
REMARK                            x       y       z     vdW  Elec       q    Type
REMARK                         _______ _______ _______ _____ _____    ______ ____
ROOT
ATOM      1  C   UNL     1       0.273  -5.004  -0.203  0.00  0.00    +0.151 A 
ATOM      2  C   UNL     1      -0.802  -4.186  -0.493  0.00  0.00    +0.144 A 
ATOM      3  N   UNL     1      -0.605  -2.883  -0.635  0.00  0.00    -0.228 NA
ATOM      4  C   UNL     1       0.605  -2.358  -0.502  0.00  0.00    +0.190 A 
ATOM      5  N   UNL     1       1.662  -3.110  -0.229  0.00  0.00    -0.205 NA
ATOM      6  C   UNL     1       1.536  -4.423  -0.069  0.00  0.00    +0.146 A 
ENDROOT
BRANCH   1   7
ATOM      7  S   UNL     1       0.055  -6.741  -0.008  0.00  0.00    +0.030 S 
ATOM      8  O   UNL     1      -1.325  -7.005  -0.225  0.00  0.00    -0.164 OA
ATOM      9  O   UNL     1       1.079  -7.367  -0.769  0.00  0.00    -0.164 OA
BRANCH   7  13
ATOM     10  C   UNL     1       0.891  -7.716   4.333  0.00  0.00    -0.045 A 
ATOM     11  C   UNL     1      -0.351  -7.240   3.958  0.00  0.00    +0.006 A 
ATOM     12  C   UNL     1      -0.607  -6.943   2.632  0.00  0.00    +0.027 A 
ATOM     13  C   UNL     1       0.381  -7.120   1.681  0.00  0.00    +0.094 A 
ATOM     14  C   UNL     1       1.622  -7.601   2.055  0.00  0.00    +0.027 A 
ATOM     15  C   UNL     1       1.879  -7.894   3.381  0.00  0.00    +0.006 A 
BRANCH  10  17
ATOM     16  C   UNL     1       1.545  -9.517   5.907  0.00  0.00    +0.012 C 
ATOM     17  C   UNL     1       1.170  -8.039   5.778  0.00  0.00    +0.013 C 
ATOM     18  C   UNL     1       2.328  -7.174   6.280  0.00  0.00    +0.012 C 
ENDBRANCH  10  17
ENDBRANCH   7  13
ENDBRANCH   1   7
BRANCH   6  19
ATOM     19  N   UNL     1       2.642  -5.205   0.221  0.00  0.00    -0.342 N 
ATOM     20  H   UNL     1       2.540  -6.162   0.342  0.00  0.00    +0.144 HD
ATOM     21  H   UNL     1       3.517  -4.796   0.302  0.00  0.00    +0.144 HD
ENDBRANCH   6  19
BRANCH   4  22
ATOM     22  S   UNL     1       0.814  -0.620  -0.699  0.00  0.00    -0.077 S 
BRANCH  22  23
ATOM     23  C   UNL     1      -0.894  -0.136  -1.051  0.00  0.00    +0.173 C 
BRANCH  23  24
ATOM     24  C   UNL     1      -0.961   1.355  -1.262  0.00  0.00    +0.228 C 
ATOM     25  O   UNL     1       0.048   2.024  -1.182  0.00  0.00    -0.275 OA
ATOM     26  N   UNL     1      -2.140   1.944  -1.544  0.00  0.00    -0.283 N 
ATOM     27  H   UNL     1      -2.934   1.402  -1.671  0.00  0.00    +0.155 HD
BRANCH  26  28
ATOM     28  C   UNL     1      -2.218   3.338  -1.654  0.00  0.00    +0.069 A 
ATOM     29  C   UNL     1      -1.130   4.060  -2.126  0.00  0.00    +0.026 A 
ATOM     30  C   UNL     1      -1.212   5.434  -2.239  0.00  0.00    +0.002 A 
ATOM     31  C   UNL     1      -2.371   6.093  -1.872  0.00  0.00    +0.003 A 
ATOM     32  C   UNL     1      -3.455   5.378  -1.396  0.00  0.00    +0.040 A 
ATOM     33  C   UNL     1      -3.382   4.002  -1.286  0.00  0.00    +0.144 A 
ATOM     34  F   UNL     1      -4.441   3.303  -0.821  0.00  0.00    -0.204 F 
ENDBRANCH  26  28
ENDBRANCH  23  24
ENDBRANCH  22  23
ENDBRANCH   4  22
TORSDOF 8
