REMARK  Name = ZINC18152049
REMARK  5 active torsions:
REMARK  status: ('A' for Active; 'I' for Inactive)
REMARK    1  A    between atoms: C_1  and  C_2
REMARK    2  A    between atoms: C_4  and  N_11
REMARK    3  A    between atoms: C_5  and  O_9
REMARK    4  A    between atoms: O_9  and  C_10
REMARK    5  A    between atoms: C_22  and  C_23
REMARK                            x       y       z     vdW  Elec       q    Type
REMARK                         _______ _______ _______ _____ _____    ______ ____
ROOT
ATOM      1  N   UNL     1       0.028  -2.768  -2.428  0.00  0.00    -0.200 N 
ATOM      2  C   UNL     1      -1.089  -3.148  -3.072  0.00  0.00    +0.259 C 
ATOM      3  O   UNL     1      -2.219  -2.820  -2.757  0.00  0.00    -0.269 OA
ATOM      4  C   UNL     1      -0.772  -3.970  -4.154  0.00  0.00    +0.081 C 
ATOM      5  H   UNL     1       0.212  -5.909  -6.443  0.00  0.00    +0.194 HD
ATOM      6  C   UNL     1       0.710  -3.660  -4.411  0.00  0.00    +0.272 C 
ATOM      7  C   UNL     1       1.155  -3.124  -3.085  0.00  0.00    +0.263 C 
ATOM      8  O   UNL     1       2.295  -3.029  -2.682  0.00  0.00    -0.271 OA
ATOM      9  O   UNL     1       1.186  -4.971  -4.750  0.00  0.00    -0.256 OA
ATOM     10  N   UNL     1       0.120  -5.401  -5.622  0.00  0.00    -0.264 N 
ATOM     11  C   UNL     1      -1.062  -4.947  -5.054  0.00  0.00    +0.080 C 
ENDROOT
BRANCH   1  15
ATOM     12  C   UNL     1      -0.018   1.503   0.010  0.00  0.00    +0.045 C 
ATOM     13  C   UNL     1       0.002  -0.004   0.002  0.00  0.00    -0.030 A 
ATOM     14  C   UNL     1       0.006  -0.687  -1.200  0.00  0.00    +0.032 A 
ATOM     15  C   UNL     1       0.025  -2.074  -1.209  0.00  0.00    +0.086 A 
ATOM     16  C   UNL     1       0.041  -2.775  -0.006  0.00  0.00    +0.143 A 
ATOM     17  C   UNL     1       0.037  -2.084   1.195  0.00  0.00    +0.067 A 
ATOM     18  C   UNL     1       0.023  -0.701   1.197  0.00  0.00    +0.047 A 
ATOM     19 CL   UNL     1       0.025   0.163   2.703  0.00  0.00    -0.083 Cl
BRANCH  16  20
ATOM     20  O   UNL     1       0.059  -4.134  -0.009  0.00  0.00    -0.493 OA
ATOM     21  C   UNL     1       0.074  -4.787   1.262  0.00  0.00    +0.277 C 
ENDBRANCH  16  20
ENDBRANCH   1  15
BRANCH  11  22
ATOM     22  C   UNL     1      -2.414  -5.445  -5.376  0.00  0.00    +0.001 A 
ATOM     23  C   UNL     1      -3.531  -4.901  -4.737  0.00  0.00    +0.013 A 
ATOM     24  C   UNL     1      -4.792  -5.369  -5.041  0.00  0.00    +0.039 A 
ATOM     25  C   UNL     1      -4.952  -6.378  -5.978  0.00  0.00    +0.123 A 
ATOM     26  C   UNL     1      -3.847  -6.922  -6.615  0.00  0.00    +0.039 A 
ATOM     27  C   UNL     1      -2.582  -6.457  -6.324  0.00  0.00    +0.013 A 
ATOM     28  F   UNL     1      -6.190  -6.833  -6.272  0.00  0.00    -0.205 F 
ENDBRANCH  11  22
TORSDOF 3
