REMARK  Name = ZINC40903861
REMARK  8 active torsions:
REMARK  status: ('A' for Active; 'I' for Inactive)
REMARK    1  A    between atoms: C_1  and  C_2
REMARK    2  A    between atoms: C_5  and  N_8
REMARK    3  A    between atoms: C_9  and  C_11
REMARK    4  A    between atoms: N_14  and  C_17
REMARK    5  A    between atoms: C_20  and  C_24
REMARK    6  A    between atoms: C_26  and  C_29
REMARK    7  A    between atoms: C_29  and  C_30
REMARK    8  A    between atoms: C_29  and  C_31
REMARK                            x       y       z     vdW  Elec       q    Type
REMARK                         _______ _______ _______ _____ _____    ______ ____
ROOT
ATOM      1  C   UNL     1      -1.941  -2.293   4.845  0.00  0.00    +0.078 C 
ATOM      2  C   UNL     1      -3.450  -2.260   4.593  0.00  0.00    +0.031 C 
ATOM      3  C   UNL     1      -4.161  -1.732   5.844  0.00  0.00    +0.106 C 
ATOM      4  N   UNL     1      -3.760  -2.551   6.996  0.00  0.00    -0.328 N 
ATOM      5  C   UNL     1      -2.328  -2.724   7.275  0.00  0.00    +0.106 C 
ATOM      6  C   UNL     1      -1.637  -3.240   6.009  0.00  0.00    +0.031 C 
ENDROOT
BRANCH   4   7
ATOM      7  C   UNL     1      -4.721  -3.152   7.811  0.00  0.00    +0.065 A 
ATOM      8  C   UNL     1      -5.177  -4.432   7.518  0.00  0.00    +0.027 A 
ATOM      9  C   UNL     1      -6.126  -5.027   8.320  0.00  0.00    +0.013 A 
ATOM     10  C   UNL     1      -6.629  -4.346   9.428  0.00  0.00    +0.025 A 
ATOM     11  C   UNL     1      -6.171  -3.062   9.722  0.00  0.00    +0.052 A 
ATOM     12  C   UNL     1      -5.218  -2.471   8.919  0.00  0.00    +0.145 A 
ATOM     13  F   UNL     1      -4.769  -1.229   9.205  0.00  0.00    -0.204 F 
BRANCH  10  14
ATOM     14  C   UNL     1      -7.651  -4.986  10.292  0.00  0.00    +0.202 A 
ATOM     15  N   UNL     1      -8.216  -4.433  11.380  0.00  0.00    -0.191 NA
ATOM     16  C   UNL     1      -9.072  -5.260  11.907  0.00  0.00    +0.230 A 
ATOM     17  O   UNL     1      -9.088  -6.380  11.173  0.00  0.00    -0.337 OA
ATOM     18  N   UNL     1      -8.158  -6.182  10.119  0.00  0.00    -0.056 NA
BRANCH  16  19
ATOM     19  C   UNL     1      -9.905  -5.002  13.137  0.00  0.00    +0.072 C 
ATOM     20  C   UNL     1     -11.389  -5.087  12.775  0.00  0.00    +0.017 C 
ATOM     21  C   UNL     1      -9.579  -6.050  14.203  0.00  0.00    +0.017 C 
ENDBRANCH  16  19
ENDBRANCH  10  14
ENDBRANCH   4   7
BRANCH   1  23
ATOM     22  N   UNL     1      -1.358  -2.098   2.449  0.00  0.00    -0.312 N 
ATOM     23  C   UNL     1      -1.235  -2.779   3.606  0.00  0.00    +0.216 C 
ATOM     24  O   UNL     1      -0.557  -3.784   3.648  0.00  0.00    -0.276 OA
ATOM     25  H   UNL     1      -1.901  -1.294   2.415  0.00  0.00    +0.149 HD
BRANCH  22  30
ATOM     26  C   UNL     1      -0.019   1.526   0.010  0.00  0.00    +0.007 C 
ATOM     27  C   UNL     1       0.002  -0.004   0.002  0.00  0.00    -0.014 C 
ATOM     28  C   UNL     1      -1.433  -0.534   0.013  0.00  0.00    +0.005 C 
ATOM     29  C   UNL     1      -1.413  -2.063   0.004  0.00  0.00    +0.022 C 
ATOM     30  C   UNL     1      -0.673  -2.570   1.244  0.00  0.00    +0.073 C 
ATOM     31  C   UNL     1       0.763  -2.041   1.233  0.00  0.00    +0.022 C 
ATOM     32  C   UNL     1       0.742  -0.511   1.242  0.00  0.00    +0.005 C 
ENDBRANCH  22  30
ENDBRANCH   1  23
TORSDOF 5
