REMARK  Name = ZINC34830067
REMARK  5 active torsions:
REMARK  status: ('A' for Active; 'I' for Inactive)
REMARK    1  A    between atoms: C_4  and  C_7
REMARK    2  A    between atoms: N_16  and  C_17
REMARK    3  A    between atoms: C_17  and  C_18
REMARK    4  A    between atoms: C_18  and  C_19
REMARK    5  A    between atoms: C_28  and  C_30
REMARK                            x       y       z     vdW  Elec       q    Type
REMARK                         _______ _______ _______ _____ _____    ______ ____
ROOT
ATOM      1  C   UNL     1       2.598  -2.123  -4.376  0.00  0.00    +0.214 C 
ATOM      2  O   UNL     1       2.538  -0.927  -4.569  0.00  0.00    -0.276 OA
ATOM      3  N   UNL     1       2.469  -2.980  -5.408  0.00  0.00    -0.300 N 
ATOM      4  C   UNL     1       2.267  -2.517  -6.736  0.00  0.00    +0.109 C 
ATOM      5  C   UNL     1       0.780  -2.193  -7.095  0.00  0.00    +0.038 C 
ATOM      6  C   UNL     1      -0.111  -3.273  -6.398  0.00  0.00    +0.109 C 
ATOM      7  N   UNL     1       0.441  -4.582  -6.393  0.00  0.00    -0.296 N 
ATOM      8  C   UNL     1       1.180  -4.999  -5.174  0.00  0.00    +0.127 C 
ATOM      9  C   UNL     1       2.537  -4.451  -5.209  0.00  0.00    +0.126 C 
ATOM     10  C   UNL     1       0.299  -5.410  -7.447  0.00  0.00    +0.247 C 
ATOM     11  O   UNL     1      -0.310  -5.041  -8.433  0.00  0.00    -0.270 OA
ENDROOT
BRANCH  10  12
ATOM     12  C   UNL     1       0.884  -6.765  -7.406  0.00  0.00    +0.041 A 
ATOM     13  C   UNL     1       0.279  -7.811  -8.107  0.00  0.00    +0.017 A 
ATOM     14  C   UNL     1       0.827  -9.074  -8.068  0.00  0.00    +0.050 A 
ATOM     15  C   UNL     1       1.980  -9.313  -7.333  0.00  0.00    +0.166 A 
ATOM     16  C   UNL     1       2.590  -8.273  -6.631  0.00  0.00    +0.167 A 
ATOM     17  C   UNL     1       2.048  -7.003  -6.671  0.00  0.00    +0.062 A 
ATOM     18  O   UNL     1       3.695  -8.764  -5.997  0.00  0.00    -0.453 OA
ATOM     19  C   UNL     1       3.527 -10.194  -5.986  0.00  0.00    +0.466 C 
ATOM     20  O   UNL     1       2.705 -10.452  -7.139  0.00  0.00    -0.453 OA
ENDBRANCH  10  12
BRANCH   1  21
ATOM     21  C   UNL     1       2.817  -2.651  -2.982  0.00  0.00    +0.077 C 
BRANCH  21  22
ATOM     22  C   UNL     1       2.929  -1.479  -2.004  0.00  0.00    -0.068 C 
BRANCH  22  31
ATOM     23  C   UNL     1       3.131  -0.873   0.303  0.00  0.00    -0.006 C 
ATOM     24  C   UNL     1       3.455  -1.403   1.696  0.00  0.00    -0.047 A 
ATOM     25  C   UNL     1       3.158  -0.725   2.876  0.00  0.00    +0.010 A 
ATOM     26  C   UNL     1       3.482  -1.273   4.071  0.00  0.00    +0.045 A 
ATOM     27  S   UNL     1       4.242  -2.813   3.577  0.00  0.00    -0.101 S 
ATOM     28  C   UNL     1       4.074  -2.610   1.827  0.00  0.00    -0.010 A 
ATOM     29  C   UNL     1       4.495  -3.516   0.717  0.00  0.00    +0.024 C 
ATOM     30  C   UNL     1       4.426  -2.708  -0.591  0.00  0.00    -0.072 C 
ATOM     31  N   UNL     1       3.143  -1.994  -0.645  0.00  0.00    +0.388 N 
ATOM     32  H   UNL     1       2.398  -2.634  -0.412  0.00  0.00    -0.080 HD
BRANCH  23  36
ATOM     33  C   UNL     1      -0.737   0.941   0.323  0.00  0.00    +0.000 A 
ATOM     34  C   UNL     1       0.397   1.729   0.392  0.00  0.00    +0.000 A 
ATOM     35  C   UNL     1       1.648   1.142   0.386  0.00  0.00    +0.002 A 
ATOM     36  C   UNL     1       1.766  -0.233   0.311  0.00  0.00    -0.057 A 
ATOM     37  C   UNL     1       0.633  -1.022   0.242  0.00  0.00    +0.002 A 
ATOM     38  C   UNL     1      -0.619  -0.434   0.247  0.00  0.00    +0.000 A 
ENDBRANCH  23  36
ENDBRANCH  22  31
ENDBRANCH  21  22
ENDBRANCH   1  21
TORSDOF 5
