REMARK  Name = ZINC60106569
REMARK  14 active torsions:
REMARK  status: ('A' for Active; 'I' for Inactive)
REMARK    1  A    between atoms: C_1  and  C_2
REMARK    2  A    between atoms: C_2  and  C_3
REMARK    3  A    between atoms: C_3  and  C_4
REMARK    4  A    between atoms: C_4  and  C_5
REMARK    5  A    between atoms: C_5  and  C_7
REMARK    6  A    between atoms: C_5  and  N_30
REMARK    7  A    between atoms: N_12  and  S_15
REMARK    8  A    between atoms: S_15  and  C_18
REMARK    9  A    between atoms: C_19  and  C_29
REMARK   10  A    between atoms: C_21  and  C_25
REMARK   11  A    between atoms: C_23  and  C_24
REMARK   12  A    between atoms: C_25  and  C_26
REMARK   13  A    between atoms: C_25  and  C_27
REMARK   14  A    between atoms: C_25  and  C_28
REMARK                            x       y       z     vdW  Elec       q    Type
REMARK                         _______ _______ _______ _____ _____    ______ ____
ROOT
ATOM      1  C   UNL     1      -2.592  -2.736   1.068  0.00  0.00    +0.236 C 
ATOM      2  O   UNL     1      -2.970  -2.959  -0.062  0.00  0.00    -0.274 OA
ATOM      3  N   UNL     1      -2.491  -3.744   1.957  0.00  0.00    -0.297 N 
ATOM      4  C   UNL     1      -2.040  -3.487   3.332  0.00  0.00    +0.125 C 
ATOM      5  C   UNL     1      -3.098  -4.024   4.303  0.00  0.00    +0.128 C 
ATOM      6  N   UNL     1      -3.437  -5.400   3.914  0.00  0.00    -0.174 NA
ATOM      7  C   UNL     1      -3.888  -5.657   2.539  0.00  0.00    +0.128 C 
ATOM      8  C   UNL     1      -2.835  -5.119   1.570  0.00  0.00    +0.125 C 
ENDROOT
BRANCH   6   9
ATOM      9  S   UNL     1      -3.313  -6.639   5.006  0.00  0.00    +0.061 S 
ATOM     10  O   UNL     1      -3.150  -7.831   4.250  0.00  0.00    -0.153 OA
ATOM     11  O   UNL     1      -2.372  -6.223   5.986  0.00  0.00    -0.153 OA
BRANCH   9  12
ATOM     12  C   UNL     1      -4.868  -6.770   5.825  0.00  0.00    +0.111 A 
ATOM     13  C   UNL     1      -5.780  -7.729   5.426  0.00  0.00    -0.024 A 
ATOM     14  C   UNL     1      -7.000  -7.832   6.068  0.00  0.00    +0.009 A 
ATOM     15  C   UNL     1      -7.307  -6.976   7.109  0.00  0.00    -0.041 A 
ATOM     16  C   UNL     1      -6.395  -6.018   7.508  0.00  0.00    +0.009 A 
ATOM     17  C   UNL     1      -5.173  -5.918   6.869  0.00  0.00    -0.024 A 
ATOM     18  C   UNL     1      -4.176  -4.876   7.308  0.00  0.00    +0.046 C 
ATOM     19  C   UNL     1      -5.445  -8.662   4.291  0.00  0.00    +0.046 C 
BRANCH  15  20
ATOM     20  C   UNL     1      -8.637  -7.088   7.809  0.00  0.00    -0.013 C 
ATOM     21  C   UNL     1      -8.775  -8.482   8.424  0.00  0.00    +0.015 C 
ATOM     22  C   UNL     1      -8.723  -6.033   8.913  0.00  0.00    +0.015 C 
ATOM     23  C   UNL     1      -9.765  -6.862   6.799  0.00  0.00    +0.015 C 
ENDBRANCH  15  20
ENDBRANCH   9  12
ENDBRANCH   6   9
BRANCH   1  24
ATOM     24  C   UNL     1      -2.235  -1.330   1.479  0.00  0.00    +0.160 C 
BRANCH  24  25
ATOM     25  N   UNL     1      -2.857  -0.379   0.555  0.00  0.00    -0.288 N 
ATOM     26  C   UNL     1      -2.555  -0.420  -0.758  0.00  0.00    +0.298 C 
ATOM     27  O   UNL     1      -1.768  -1.247  -1.175  0.00  0.00    -0.253 OA
ATOM     28  N   UNL     1      -3.127   0.456  -1.609  0.00  0.00    -0.313 N 
ATOM     29  H   UNL     1      -3.485   0.281   0.888  0.00  0.00    +0.151 HD
ATOM     30  H   UNL     1      -3.755   1.116  -1.276  0.00  0.00    +0.146 HD
ATOM     31  H   UNL     1      -2.910   0.426  -2.554  0.00  0.00    +0.146 HD
ENDBRANCH  24  25
BRANCH  24  32
ATOM     32  C   UNL     1      -0.716  -1.159   1.443  0.00  0.00    +0.032 C 
BRANCH  32  33
ATOM     33  C   UNL     1      -0.346   0.226   1.979  0.00  0.00    +0.002 C 
BRANCH  33  35
ATOM     34  C   UNL     1       1.544   1.782   2.479  0.00  0.00    +0.004 C 
ATOM     35  C   UNL     1       1.174   0.398   1.943  0.00  0.00    -0.003 C 
ENDBRANCH  33  35
ENDBRANCH  32  33
ENDBRANCH  24  32
ENDBRANCH   1  24
TORSDOF 8
