REMARK  Name = ZINC45772302
REMARK  8 active torsions:
REMARK  status: ('A' for Active; 'I' for Inactive)
REMARK    1  A    between atoms: C_1  and  C_2
REMARK    2  A    between atoms: N_11  and  C_15
REMARK    3  A    between atoms: C_15  and  C_16
REMARK    4  A    between atoms: N_18  and  C_19
REMARK    5  A    between atoms: C_24  and  C_25
REMARK    6  A    between atoms: C_25  and  N_26
REMARK    7  A    between atoms: N_26  and  C_27
REMARK    8  A    between atoms: N_26  and  C_28
REMARK                            x       y       z     vdW  Elec       q    Type
REMARK                         _______ _______ _______ _____ _____    ______ ____
ROOT
ATOM      1  C   UNL     1       0.580   0.431   5.649  0.00  0.00    +0.235 C 
ATOM      2  O   UNL     1       0.468  -0.770   5.527  0.00  0.00    -0.274 OA
ATOM      3  N   UNL     1       1.032   0.953   6.806  0.00  0.00    -0.284 N 
ATOM      4  H   UNL     1       1.183   1.908   6.882  0.00  0.00    +0.155 HD
ENDROOT
BRANCH   3   5
ATOM      5  C   UNL     1       1.283   0.116   7.899  0.00  0.00    +0.035 A 
ATOM      6  C   UNL     1       1.772  -1.168   7.695  0.00  0.00    +0.023 A 
ATOM      7  C   UNL     1       2.019  -1.991   8.776  0.00  0.00    +0.002 A 
ATOM      8  C   UNL     1       1.779  -1.539  10.061  0.00  0.00    +0.000 A 
ATOM      9  C   UNL     1       1.292  -0.262  10.267  0.00  0.00    +0.003 A 
ATOM     10  C   UNL     1       1.049   0.569   9.191  0.00  0.00    -0.043 A 
BRANCH  10  11
ATOM     11  C   UNL     1       0.525   1.964   9.417  0.00  0.00    -0.041 C 
BRANCH  11  12
ATOM     12  N   UNL     1      -0.926   1.985   9.187  0.00  0.00    +0.382 N 
ATOM     13  C   UNL     1      -1.594   1.150  10.194  0.00  0.00    -0.095 C 
ATOM     14  H   UNL     1      -1.125   1.625   8.266  0.00  0.00    -0.081 HD
BRANCH  12  15
ATOM     15  C   UNL     1      -1.418   3.365   9.290  0.00  0.00    -0.069 C 
ATOM     16  C   UNL     1      -2.929   3.387   9.050  0.00  0.00    -0.015 C 
ATOM     17  C   UNL     1      -3.442   4.824   9.158  0.00  0.00    -0.002 C 
ATOM     18  C   UNL     1      -2.746   5.694   8.109  0.00  0.00    -0.000 C 
ATOM     19  C   UNL     1      -1.235   5.672   8.349  0.00  0.00    -0.002 C 
ATOM     20  C   UNL     1      -0.722   4.234   8.241  0.00  0.00    -0.015 C 
ENDBRANCH  12  15
ENDBRANCH  11  12
ENDBRANCH  10  11
ENDBRANCH   3   5
BRANCH   1  21
ATOM     21  C   UNL     1       0.213   1.342   4.505  0.00  0.00    +0.214 C 
BRANCH  21  31
ATOM     22  C   UNL     1      -1.852   1.456   0.557  0.00  0.00    +0.010 C 
ATOM     23  C   UNL     1      -2.386   0.047   0.826  0.00  0.00    +0.018 C 
ATOM     24  C   UNL     1      -2.338  -0.771  -0.467  0.00  0.00    +0.006 C 
ATOM     25  C   UNL     1      -2.853  -2.186  -0.194  0.00  0.00    +0.000 C 
ATOM     26  C   UNL     1      -1.970  -2.858   0.859  0.00  0.00    +0.003 C 
ATOM     27  C   UNL     1      -2.017  -2.047   2.157  0.00  0.00    +0.035 C 
ATOM     28  C   UNL     1      -1.527  -0.628   1.889  0.00  0.00    +0.115 C 
ATOM     29  C   UNL     1      -1.532   0.181   3.164  0.00  0.00    +0.247 C 
ATOM     30  O   UNL     1      -2.489   0.453   3.858  0.00  0.00    -0.273 OA
ATOM     31  N   UNL     1      -0.247   0.538   3.370  0.00  0.00    -0.215 N 
ATOM     32  C   UNL     1       0.555   0.068   2.407  0.00  0.00    +0.310 C 
ATOM     33  O   UNL     1       1.755   0.259   2.374  0.00  0.00    -0.252 OA
ATOM     34  N   UNL     1      -0.117  -0.640   1.479  0.00  0.00    -0.285 N 
ATOM     35  H   UNL     1       0.257  -1.073   0.695  0.00  0.00    +0.151 HD
ENDBRANCH  21  31
ENDBRANCH   1  21
TORSDOF 6
