REMARK  Name = ZINC63070827
REMARK  6 active torsions:
REMARK  status: ('A' for Active; 'I' for Inactive)
REMARK    1  A    between atoms: C_7  and  C_10
REMARK    2  A    between atoms: C_10  and  C_11
REMARK    3  A    between atoms: C_11  and  N_12
REMARK    4  A    between atoms: C_13  and  C_15
REMARK    5  A    between atoms: C_23  and  C_32
REMARK    6  A    between atoms: C_26  and  C_28
REMARK                            x       y       z     vdW  Elec       q    Type
REMARK                         _______ _______ _______ _____ _____    ______ ____
ROOT
ATOM      1  C   UNL     1      -1.996  -5.968  -3.216  0.00  0.00    +0.123 C 
ATOM      2  C   UNL     1      -1.444  -6.971  -2.170  0.00  0.00    +0.114 C 
ATOM      3  N   UNL     1      -1.219  -8.242  -2.914  0.00  0.00    -0.251 NA
ATOM      4  N   UNL     1      -1.026  -7.828  -4.293  0.00  0.00    -0.213 NA
ATOM      5  C   UNL     1      -2.084  -6.795  -4.504  0.00  0.00    +0.153 C 
ATOM      6  N   UNL     1      -1.744  -6.060  -5.718  0.00  0.00    -0.290 NA
ATOM      7  C   UNL     1      -1.827  -6.976  -6.873  0.00  0.00    +0.123 C 
ATOM      8  C   UNL     1      -0.902  -8.177  -6.683  0.00  0.00    +0.056 C 
ATOM      9  C   UNL     1      -1.157  -8.854  -5.318  0.00  0.00    +0.180 C 
ATOM     10  H   UNL     1      -2.015  -8.856  -2.829  0.00  0.00    +0.141 HD
ATOM     11  H   UNL     1      -2.353  -5.265  -5.843  0.00  0.00    +0.124 HD
ENDROOT
BRANCH   7  12
ATOM     12  C   UNL     1      -3.246  -7.462  -7.019  0.00  0.00    +0.122 A 
ATOM     13  C   UNL     1      -4.350  -6.792  -6.642  0.00  0.00    +0.046 A 
ATOM     14  C   UNL     1      -5.456  -7.612  -6.962  0.00  0.00    +0.041 A 
ATOM     15  C   UNL     1      -4.962  -8.735  -7.514  0.00  0.00    +0.195 A 
ATOM     16  O   UNL     1      -3.623  -8.636  -7.552  0.00  0.00    -0.466 OA
ENDBRANCH   7  12
BRANCH   1  18
ATOM     17  N   UNL     1      -0.795  -3.982  -2.360  0.00  0.00    -0.315 N 
ATOM     18  C   UNL     1      -1.047  -4.811  -3.393  0.00  0.00    +0.220 C 
ATOM     19  O   UNL     1      -0.511  -4.625  -4.464  0.00  0.00    -0.275 OA
ATOM     20  H   UNL     1      -1.224  -4.131  -1.503  0.00  0.00    +0.149 HD
BRANCH  17  21
ATOM     21  C   UNL     1       0.127  -2.857  -2.532  0.00  0.00    +0.108 C 
BRANCH  21  22
ATOM     22  C   UNL     1       0.236  -2.081  -1.218  0.00  0.00    +0.052 C 
BRANCH  22  29
ATOM     23  C   UNL     1      -0.427   2.341  -2.250  0.00  0.00    +0.001 A 
ATOM     24  C   UNL     1       0.758   3.086  -2.317  0.00  0.00    +0.002 A 
ATOM     25  C   UNL     1       1.974   2.543  -2.096  0.00  0.00    +0.026 A 
ATOM     26  C   UNL     1       2.098   1.162  -1.780  0.00  0.00    +0.043 A 
ATOM     27  N   UNL     1       3.146   0.415  -1.529  0.00  0.00    -0.380 N 
ATOM     28  C   UNL     1       2.691  -0.955  -1.264  0.00  0.00    +0.144 C 
ATOM     29  C   UNL     1       1.184  -0.924  -1.395  0.00  0.00    -0.040 C 
ATOM     30  C   UNL     1       0.861   0.353  -1.703  0.00  0.00    -0.001 A 
ATOM     31  C   UNL     1      -0.421   1.020  -1.957  0.00  0.00    +0.010 A 
ATOM     32  H   UNL     1       4.068   0.717  -1.521  0.00  0.00    +0.160 HD
ENDBRANCH  22  29
ENDBRANCH  21  22
ENDBRANCH  17  21
ENDBRANCH   1  18
BRANCH   9  33
ATOM     33  C   UNL     1      -2.571  -9.438  -5.292  0.00  0.00    +0.406 C 
ATOM     34  F   UNL     1      -3.506  -8.400  -5.373  0.00  0.00    -0.169 F 
ATOM     35  F   UNL     1      -2.739 -10.303  -6.379  0.00  0.00    -0.169 F 
ATOM     36  F   UNL     1      -2.762 -10.145  -4.100  0.00  0.00    -0.169 F 
ENDBRANCH   9  33
TORSDOF 6
