REMARK  Name = ZINC62497127
REMARK  6 active torsions:
REMARK  status: ('A' for Active; 'I' for Inactive)
REMARK    1  A    between atoms: C_1  and  N_2
REMARK    2  A    between atoms: C_5  and  O_23
REMARK    3  A    between atoms: C_10  and  C_14
REMARK    4  A    between atoms: C_14  and  C_15
REMARK    5  A    between atoms: C_20  and  O_21
REMARK    6  A    between atoms: O_21  and  C_22
REMARK                            x       y       z     vdW  Elec       q    Type
REMARK                         _______ _______ _______ _____ _____    ______ ____
ROOT
ATOM      1  C   UNL     1      -0.018   1.461   0.010  0.00  0.00    +0.138 C 
ATOM      2  N   UNL     1       0.002  -0.004   0.002  0.00  0.00    -0.268 N 
ATOM      3  C   UNL     1      -1.197  -0.729   0.004  0.00  0.00    +0.082 A 
ATOM      4  C   UNL     1      -2.406  -0.090  -0.216  0.00  0.00    +0.072 A 
ATOM      5  C   UNL     1      -3.583  -0.823  -0.224  0.00  0.00    +0.119 A 
ATOM      6  C   UNL     1      -3.549  -2.194  -0.014  0.00  0.00    +0.049 A 
ATOM      7  C   UNL     1      -2.344  -2.833   0.210  0.00  0.00    +0.051 A 
ATOM      8  C   UNL     1      -1.167  -2.104   0.226  0.00  0.00    +0.143 A 
ATOM      9  O   UNL     1       0.021  -2.720   0.477  0.00  0.00    -0.477 OA
ATOM     10  C   UNL     1       1.181  -2.172  -0.152  0.00  0.00    +0.264 C 
ATOM     11  C   UNL     1       1.175  -0.671  -0.013  0.00  0.00    +0.261 C 
ATOM     12  O   UNL     1       2.221  -0.065   0.090  0.00  0.00    -0.271 OA
ENDROOT
BRANCH   5  13
ATOM     13  O   UNL     1      -4.772  -0.199  -0.438  0.00  0.00    -0.507 OA
ATOM     14  H   UNL     1      -5.028  -0.148  -1.369  0.00  0.00    +0.292 HD
ENDBRANCH   5  13
BRANCH  10  15
ATOM     15  C   UNL     1       1.178  -2.539  -1.637  0.00  0.00    +0.093 C 
BRANCH  15  16
ATOM     16  C   UNL     1       1.312  -4.033  -1.785  0.00  0.00    -0.002 A 
ATOM     17  C   UNL     1       2.557  -4.599  -1.981  0.00  0.00    +0.007 A 
ATOM     18  C   UNL     1       2.680  -5.969  -2.118  0.00  0.00    +0.000 A 
ATOM     19  C   UNL     1       1.559  -6.777  -2.058  0.00  0.00    +0.004 A 
ATOM     20  C   UNL     1       0.312  -6.215  -1.862  0.00  0.00    +0.046 A 
ATOM     21  C   UNL     1       0.186  -4.841  -1.719  0.00  0.00    +0.123 A 
BRANCH  21  22
ATOM     22  O   UNL     1      -1.039  -4.287  -1.520  0.00  0.00    -0.495 OA
ATOM     23  C   UNL     1      -2.153  -5.179  -1.463  0.00  0.00    +0.277 C 
ENDBRANCH  21  22
ENDBRANCH  15  16
ENDBRANCH  10  15
TORSDOF 4
