REMARK  Name = ZINC63194039
REMARK  5 active torsions:
REMARK  status: ('A' for Active; 'I' for Inactive)
REMARK    1  A    between atoms: C_1  and  C_2
REMARK    2  A    between atoms: C_2  and  C_4
REMARK    3  A    between atoms: C_2  and  N_21
REMARK    4  A    between atoms: N_10  and  S_11
REMARK    5  A    between atoms: S_11  and  C_14
REMARK                            x       y       z     vdW  Elec       q    Type
REMARK                         _______ _______ _______ _____ _____    ______ ____
ROOT
ATOM      1  C   UNL     1       0.498  -0.564   2.565  0.00  0.00    +0.065 C 
ATOM      2  C   UNL     1      -0.052  -1.918   3.026  0.00  0.00    +0.019 C 
ATOM      3  C   UNL     1      -0.614  -1.779   4.443  0.00  0.00    +0.003 C 
ATOM      4  C   UNL     1      -1.761  -0.766   4.442  0.00  0.00    +0.017 C 
ATOM      5  C   UNL     1      -1.230   0.600   3.997  0.00  0.00    +0.110 C 
ATOM      6  N   UNL     1      -0.557   0.449   2.699  0.00  0.00    -0.175 NA
ENDROOT
BRANCH   6   7
ATOM      7  S   UNL     1      -0.983   1.399   1.412  0.00  0.00    +0.061 S 
ATOM      8  O   UNL     1      -1.191   2.708   1.925  0.00  0.00    -0.153 OA
ATOM      9  O   UNL     1      -0.048   1.126   0.378  0.00  0.00    -0.153 OA
BRANCH   7  10
ATOM     10  C   UNL     1      -2.549   0.829   0.839  0.00  0.00    +0.106 A 
ATOM     11  C   UNL     1      -2.662   0.274  -0.422  0.00  0.00    +0.029 A 
ATOM     12  C   UNL     1      -3.890  -0.174  -0.872  0.00  0.00    +0.016 A 
ATOM     13  C   UNL     1      -5.005  -0.066  -0.061  0.00  0.00    +0.013 A 
ATOM     14  C   UNL     1      -4.891   0.489   1.200  0.00  0.00    +0.016 A 
ATOM     15  C   UNL     1      -3.662   0.932   1.652  0.00  0.00    +0.029 A 
ATOM     16  I   UNL     1      -6.866  -0.744  -0.743  0.00  0.00    -0.044 I 
ENDBRANCH   7  10
ENDBRANCH   6   7
BRANCH   1  18
ATOM     17  C   UNL     1       2.028  -1.720   0.964  0.00  0.00    -0.013 C 
ATOM     18  C   UNL     1       0.934  -0.660   1.101  0.00  0.00    -0.059 C 
BRANCH  18  19
ATOM     19  N   UNL     1      -0.218  -1.034   0.271  0.00  0.00    +0.381 N 
ATOM     20  H   UNL     1      -1.042  -0.556   0.604  0.00  0.00    -0.090 HD
ATOM     21  H   UNL     1      -0.041  -0.772  -0.688  0.00  0.00    -0.090 HD
ATOM     22  H   UNL     1      -0.362  -2.031   0.325  0.00  0.00    -0.090 HD
ENDBRANCH  18  19
ENDBRANCH   1  18
TORSDOF 4
