REMARK  Name = ZINC09595973
REMARK  4 active torsions:
REMARK  status: ('A' for Active; 'I' for Inactive)
REMARK    1  A    between atoms: C_3  and  N_21
REMARK    2  A    between atoms: C_6  and  C_7
REMARK    3  A    between atoms: N_21  and  S_22
REMARK    4  A    between atoms: S_22  and  C_25
REMARK                            x       y       z     vdW  Elec       q    Type
REMARK                         _______ _______ _______ _____ _____    ______ ____
ROOT
ATOM      1  C   UNL     1      -2.236   2.568  -5.798  0.00  0.00    +0.015 A 
ATOM      2  C   UNL     1      -2.772   3.251  -6.866  0.00  0.00    +0.025 A 
ATOM      3  C   UNL     1      -3.324   2.551  -7.935  0.00  0.00    +0.048 A 
ATOM      4  C   UNL     1      -3.330   1.159  -7.931  0.00  0.00    +0.025 A 
ATOM      5  C   UNL     1      -2.791   0.470  -6.868  0.00  0.00    +0.015 A 
ATOM      6  C   UNL     1      -2.237   1.170  -5.793  0.00  0.00    +0.037 A 
ENDROOT
BRANCH   6   7
ATOM      7  C   UNL     1      -1.658   0.435  -4.652  0.00  0.00    +0.247 C 
ATOM      8  O   UNL     1      -2.177  -0.594  -4.266  0.00  0.00    -0.270 OA
ATOM      9  N   UNL     1      -0.554   0.905  -4.038  0.00  0.00    -0.297 N 
ATOM     10  C   UNL     1      -0.024   0.242  -2.839  0.00  0.00    +0.108 C 
ATOM     11  C   UNL     1       1.453  -0.089  -3.072  0.00  0.00    +0.023 C 
ATOM     12  C   UNL     1       2.203   1.187  -3.466  0.00  0.00    -0.005 C 
ATOM     13  C   UNL     1       3.685   0.861  -3.667  0.00  0.00    +0.004 C 
ATOM     14  C   UNL     1       4.440   2.130  -4.065  0.00  0.00    +0.000 C 
ATOM     15  C   UNL     1       3.859   2.679  -5.370  0.00  0.00    +0.000 C 
ATOM     16  C   UNL     1       2.379   3.010  -5.167  0.00  0.00    +0.005 C 
ATOM     17  C   UNL     1       1.620   1.743  -4.767  0.00  0.00    +0.010 C 
ATOM     18  C   UNL     1       0.143   2.088  -4.554  0.00  0.00    +0.112 C 
ENDBRANCH   6   7
BRANCH   3  19
ATOM     19  N   UNL     1      -3.870   3.244  -9.010  0.00  0.00    -0.216 N 
ATOM     20  H   UNL     1      -3.654   2.979  -9.918  0.00  0.00    +0.174 HD
BRANCH  19  21
ATOM     21  S   UNL     1      -4.890   4.520  -8.740  0.00  0.00    +0.072 S 
ATOM     22  O   UNL     1      -4.213   5.401  -7.854  0.00  0.00    -0.150 OA
ATOM     23  O   UNL     1      -5.364   4.937 -10.013  0.00  0.00    -0.150 OA
BRANCH  21  24
ATOM     24  C   UNL     1      -6.285   3.896  -7.862  0.00  0.00    +0.112 A 
ATOM     25  C   UNL     1      -7.340   3.335  -8.556  0.00  0.00    +0.032 A 
ATOM     26  C   UNL     1      -8.437   2.838  -7.874  0.00  0.00    +0.051 A 
ATOM     27  C   UNL     1      -8.477   2.915  -6.492  0.00  0.00    +0.162 A 
ATOM     28  C   UNL     1      -7.420   3.484  -5.796  0.00  0.00    +0.164 A 
ATOM     29  C   UNL     1      -6.322   3.975  -6.482  0.00  0.00    +0.078 A 
ATOM     30  O   UNL     1      -7.469   3.554  -4.434  0.00  0.00    -0.488 OA
ATOM     31  C   UNL     1      -8.444   4.445  -3.889  0.00  0.00    +0.232 C 
ATOM     32  C   UNL     1      -9.802   3.766  -3.792  0.00  0.00    +0.082 C 
ATOM     33  C   UNL     1     -10.370   3.410  -5.157  0.00  0.00    +0.232 C 
ATOM     34  O   UNL     1      -9.554   2.433  -5.807  0.00  0.00    -0.488 OA
ENDBRANCH  21  24
ENDBRANCH  19  21
ENDBRANCH   3  19
TORSDOF 4
