REMARK  Name = ZINC65404410
REMARK  1 active torsions:
REMARK  status: ('A' for Active; 'I' for Inactive)
REMARK    1  A    between atoms: C_11  and  C_14
REMARK                            x       y       z     vdW  Elec       q    Type
REMARK                         _______ _______ _______ _____ _____    ______ ____
ROOT
ATOM      1  C   UNL     1      -0.017   1.375   0.010  0.00  0.00    +0.001 A 
ATOM      2  C   UNL     1       1.172   2.087   0.002  0.00  0.00    +0.004 A 
ATOM      3  C   UNL     1       2.384   1.429  -0.013  0.00  0.00    +0.047 A 
ATOM      4  C   UNL     1       2.423   0.040  -0.022  0.00  0.00    +0.136 A 
ATOM      5  C   UNL     1       1.219  -0.677  -0.014  0.00  0.00    +0.028 A 
ATOM      6  C   UNL     1       0.002  -0.004   0.002  0.00  0.00    +0.012 A 
ATOM      7  C   UNL     1       1.603  -2.102  -0.027  0.00  0.00    +0.028 A 
ATOM      8  C   UNL     1       0.889  -3.296  -0.027  0.00  0.00    +0.012 A 
ATOM      9  C   UNL     1       1.565  -4.497  -0.041  0.00  0.00    +0.001 A 
ATOM     10  C   UNL     1       2.951  -4.516  -0.056  0.00  0.00    +0.008 A 
ATOM     11  C   UNL     1       3.668  -3.338  -0.056  0.00  0.00    +0.003 A 
ATOM     12  C   UNL     1       3.004  -2.117  -0.041  0.00  0.00    +0.140 A 
ATOM     13  O   UNL     1       3.447  -0.841  -0.038  0.00  0.00    -0.455 OA
ENDROOT
BRANCH  11  14
ATOM     14  C   UNL     1       5.175  -3.375  -0.070  0.00  0.00    +0.066 C 
ATOM     15  C   UNL     1       5.661  -4.113  -1.321  0.00  0.00    +0.109 C 
ATOM     16  C   UNL     1       5.482  -5.597  -1.200  0.00  0.00    +0.219 C 
ATOM     17  O   UNL     1       5.148  -6.223  -2.184  0.00  0.00    -0.275 OA
ATOM     18  N   UNL     1       5.677  -6.266  -0.044  0.00  0.00    -0.269 N 
ATOM     19  C   UNL     1       5.912  -5.513   1.117  0.00  0.00    +0.150 A 
ATOM     20  C   UNL     1       5.677  -4.117   1.142  0.00  0.00    +0.020 A 
ATOM     21  C   UNL     1       5.978  -3.667   2.368  0.00  0.00    +0.111 A 
ATOM     22  N   UNL     1       6.393  -4.725   3.104  0.00  0.00    -0.283 N 
ATOM     23  H   UNL     1       6.676  -4.697   4.031  0.00  0.00    +0.188 HD
ATOM     24  N   UNL     1       6.341  -5.871   2.290  0.00  0.00    -0.158 NA
ATOM     25  H   UNL     1       5.655  -7.235  -0.017  0.00  0.00    +0.156 HD
ENDBRANCH  11  14
TORSDOF 1
