REMARK  Name = ZINC40973913
REMARK  12 active torsions:
REMARK  status: ('A' for Active; 'I' for Inactive)
REMARK    1  A    between atoms: C_1  and  O_2
REMARK    2  A    between atoms: O_2  and  C_3
REMARK    3  A    between atoms: C_5  and  C_13
REMARK    4  A    between atoms: C_7  and  O_11
REMARK    5  A    between atoms: C_8  and  O_9
REMARK    6  A    between atoms: O_9  and  C_10
REMARK    7  A    between atoms: O_11  and  C_12
REMARK    8  A    between atoms: C_13  and  C_15
REMARK    9  A    between atoms: C_19  and  N_20
REMARK   10  A    between atoms: N_22  and  C_25
REMARK   11  A    between atoms: C_25  and  N_27
REMARK   12  A    between atoms: N_27  and  C_28
REMARK                            x       y       z     vdW  Elec       q    Type
REMARK                         _______ _______ _______ _____ _____    ______ ____
ROOT
ATOM      1  C   UNL     1       2.580  -0.986  -5.143  0.00  0.00    +0.054 A 
ATOM      2  C   UNL     1       3.241  -0.289  -6.235  0.00  0.00    -0.022 A 
ATOM      3  C   UNL     1       3.791  -1.108  -7.156  0.00  0.00    +0.013 A 
ATOM      4  S   UNL     1       3.434  -2.742  -6.583  0.00  0.00    -0.076 S 
ATOM      5  C   UNL     1       2.596  -2.375  -5.174  0.00  0.00    +0.074 A 
ATOM      6  C   UNL     1       4.541  -0.695  -8.386  0.00  0.00    +0.149 C 
ATOM      7  N   UNL     1       4.362   0.763  -8.535  0.00  0.00    -0.308 N 
ATOM      8  C   UNL     1       4.457   1.588  -7.321  0.00  0.00    +0.112 C 
ATOM      9  C   UNL     1       3.320   1.225  -6.364  0.00  0.00    +0.055 C 
ENDROOT
BRANCH   5  10
ATOM     10  N   UNL     1       2.049  -3.252  -4.260  0.00  0.00    -0.352 N 
ATOM     11  H   UNL     1       1.518  -2.914  -3.521  0.00  0.00    +0.143 HD
ATOM     12  H   UNL     1       2.194  -4.206  -4.355  0.00  0.00    +0.143 HD
ENDBRANCH   5  10
BRANCH   1  13
ATOM     13  C   UNL     1       1.930  -0.255  -4.054  0.00  0.00    +0.196 C 
ATOM     14  O   UNL     1       2.570   0.065  -3.068  0.00  0.00    -0.287 OA
BRANCH  13  17
ATOM     15  C   UNL     1      -1.490   1.022  -3.160  0.00  0.00    +0.166 A 
ATOM     16  C   UNL     1      -0.150   0.695  -3.068  0.00  0.00    +0.061 A 
ATOM     17  C   UNL     1       0.498   0.095  -4.150  0.00  0.00    +0.029 A 
ATOM     18  C   UNL     1      -0.210  -0.174  -5.324  0.00  0.00    +0.061 A 
ATOM     19  C   UNL     1      -1.550   0.155  -5.411  0.00  0.00    +0.166 A 
ATOM     20  C   UNL     1      -2.195   0.748  -4.329  0.00  0.00    +0.204 A 
BRANCH  15  22
ATOM     21  C   UNL     1      -1.337   1.858  -0.939  0.00  0.00    +0.277 C 
ATOM     22  O   UNL     1      -2.121   1.606  -2.107  0.00  0.00    -0.491 OA
ENDBRANCH  15  22
BRANCH  20  23
ATOM     23  O   UNL     1      -3.514   1.065  -4.416  0.00  0.00    -0.488 OA
ATOM     24  C   UNL     1      -3.837   2.366  -4.911  0.00  0.00    +0.277 C 
ENDBRANCH  20  23
BRANCH  19  25
ATOM     25  O   UNL     1      -2.240  -0.106  -6.554  0.00  0.00    -0.491 OA
ATOM     26  C   UNL     1      -1.550  -0.824  -7.579  0.00  0.00    +0.277 C 
ENDBRANCH  19  25
ENDBRANCH  13  17
ENDBRANCH   1  13
BRANCH   7  27
ATOM     27  C   UNL     1       4.122   1.318  -9.739  0.00  0.00    +0.133 C 
ATOM     28  S   UNL     1       3.919   3.012  -9.877  0.00  0.00    -0.019 S 
BRANCH  27  29
ATOM     29  N   UNL     1       4.040   0.539 -10.836  0.00  0.00    -0.324 N 
ATOM     30  H   UNL     1       4.155  -0.421 -10.759  0.00  0.00    +0.148 HD
BRANCH  29  31
ATOM     31  C   UNL     1       3.779   1.142 -12.145  0.00  0.00    +0.072 C 
ATOM     32  C   UNL     1       2.270   1.313 -12.335  0.00  0.00    +0.022 C 
ATOM     33  C   UNL     1       1.997   1.943 -13.703  0.00  0.00    +0.002 C 
ATOM     34  C   UNL     1       2.549   1.034 -14.802  0.00  0.00    +0.000 C 
ATOM     35  C   UNL     1       4.057   0.862 -14.613  0.00  0.00    +0.002 C 
ATOM     36  C   UNL     1       4.331   0.232 -13.245  0.00  0.00    +0.022 C 
ENDBRANCH  29  31
ENDBRANCH  27  29
ENDBRANCH   7  27
TORSDOF 9
