REMARK  Name = ZINC05002531
REMARK  4 active torsions:
REMARK  status: ('A' for Active; 'I' for Inactive)
REMARK    1  A    between atoms: C_4  and  C_7
REMARK    2  A    between atoms: C_7  and  N_65
REMARK    3  A    between atoms: C_14  and  C_24
REMARK    4  A    between atoms: C_24  and  O_31
REMARK                            x       y       z     vdW  Elec       q    Type
REMARK                         _______ _______ _______ _____ _____    ______ ____
ROOT
ATOM      1  C   UNL     1      -3.453   4.378   6.683  0.00  0.00    -0.056 C 
ATOM      2  C   UNL     1      -2.975   3.123   5.942  0.00  0.00    +0.103 C 
ATOM      3  N   UNL     1      -2.690   3.496   4.548  0.00  0.00    -0.347 N 
ATOM      4  C   UNL     1      -1.970   2.852   3.569  0.00  0.00    +0.049 A 
ATOM      5  C   UNL     1      -1.275   1.645   3.579  0.00  0.00    +0.027 A 
ATOM      6  C   UNL     1      -0.662   1.256   2.402  0.00  0.00    +0.008 A 
ATOM      7  C   UNL     1      -0.717   2.028   1.253  0.00  0.00    -0.015 A 
ATOM      8  C   UNL     1      -1.392   3.222   1.208  0.00  0.00    +0.016 A 
ATOM      9  C   UNL     1      -2.027   3.642   2.382  0.00  0.00    +0.004 A 
ATOM     10  C   UNL     1      -2.809   4.802   2.713  0.00  0.00    -0.020 A 
ATOM     11  C   UNL     1      -3.142   4.680   4.014  0.00  0.00    +0.009 A 
ATOM     12  C   UNL     1      -3.962   5.728   4.732  0.00  0.00    -0.020 C 
ATOM     13  C   UNL     1      -5.082   6.171   3.804  0.00  0.00    -0.009 C 
ATOM     14  C   UNL     1      -4.726   6.310   2.345  0.00  0.00    +0.003 C 
ATOM     15  C   UNL     1      -3.288   6.006   1.950  0.00  0.00    +0.037 C 
ATOM     16  N   UNL     1      -4.530   5.048   5.925  0.00  0.00    +0.389 N 
ATOM     17  H   UNL     1      -5.210   4.343   5.617  0.00  0.00    -0.080 HD
ENDROOT
BRANCH   7  18
ATOM     18  C   UNL     1      -0.019   1.538   0.011  0.00  0.00    +0.091 C 
ATOM     19  C   UNL     1       1.401   2.035  -0.000  0.00  0.00    +0.039 C 
ATOM     20  C   UNL     1       1.910   2.335  -1.423  0.00  0.00    +0.003 C 
ATOM     21  C   UNL     1       1.480   1.268  -2.449  0.00  0.00    +0.000 C 
ATOM     22  C   UNL     1       1.598  -0.131  -1.907  0.00  0.00    +0.000 C 
ATOM     23  C   UNL     1       0.231  -0.548  -1.328  0.00  0.00    +0.003 C 
ATOM     24  C   UNL     1       0.002  -0.004   0.002  0.00  0.00    +0.039 C 
BRANCH  18  25
ATOM     25  O   UNL     1      -0.704   2.015  -1.149  0.00  0.00    -0.384 OA
ATOM     26  H   UNL     1      -0.754   2.979  -1.208  0.00  0.00    +0.211 HD
ENDBRANCH  18  25
ENDBRANCH   7  18
BRANCH  16  27
ATOM     27  C   UNL     1      -5.218   6.033   6.788  0.00  0.00    -0.042 C 
BRANCH  27  31
ATOM     28  C   UNL     1      -6.159   4.202  10.531  0.00  0.00    +0.000 A 
ATOM     29  C   UNL     1      -4.959   4.869  10.370  0.00  0.00    +0.000 A 
ATOM     30  C   UNL     1      -4.654   5.462   9.159  0.00  0.00    +0.002 A 
ATOM     31  C   UNL     1      -5.550   5.387   8.108  0.00  0.00    -0.064 A 
ATOM     32  C   UNL     1      -6.752   4.724   8.271  0.00  0.00    +0.002 A 
ATOM     33  C   UNL     1      -7.055   4.128   9.480  0.00  0.00    +0.000 A 
ENDBRANCH  27  31
ENDBRANCH  16  27
TORSDOF 4
