REMARK  Name = ZINC64436050
REMARK  8 active torsions:
REMARK  status: ('A' for Active; 'I' for Inactive)
REMARK    1  A    between atoms: C_1  and  O_2
REMARK    2  A    between atoms: O_2  and  C_3
REMARK    3  A    between atoms: C_6  and  C_9
REMARK    4  A    between atoms: N_14  and  C_16
REMARK    5  A    between atoms: C_16  and  C_17
REMARK    6  A    between atoms: N_19  and  C_20
REMARK    7  A    between atoms: C_20  and  C_21
REMARK    8  A    between atoms: C_21  and  C_22
REMARK                            x       y       z     vdW  Elec       q    Type
REMARK                         _______ _______ _______ _____ _____    ______ ____
ROOT
ATOM      1  C   UNL     1       3.897  -5.971   4.976  0.00  0.00    +0.226 C 
ENDROOT
BRANCH   1   7
ATOM      2  C   UNL     1       2.576  -2.540   4.293  0.00  0.00    +0.048 C 
ATOM      3  C   UNL     1       3.121  -1.807   5.258  0.00  0.00    +0.007 C 
ATOM      4  C   UNL     1       3.817  -2.429   6.433  0.00  0.00    +0.126 C 
ATOM      5  C   UNL     1       4.152  -3.868   6.170  0.00  0.00    +0.236 C 
ATOM      6  O   UNL     1       4.974  -4.421   6.870  0.00  0.00    -0.274 OA
ATOM      7  N   UNL     1       3.565  -4.558   5.178  0.00  0.00    -0.213 N 
ATOM      8  N   UNL     1       2.632  -3.932   4.338  0.00  0.00    -0.261 N 
ATOM      9  H   UNL     1       2.033  -4.463   3.791  0.00  0.00    +0.170 HD
BRANCH   2  13
ATOM     10  C   UNL     1       0.626  -0.618   1.041  0.00  0.00    +0.120 A 
ATOM     11  C   UNL     1       1.202   0.142   2.050  0.00  0.00    +0.046 A 
ATOM     12  C   UNL     1       1.835  -0.478   3.107  0.00  0.00    +0.013 A 
ATOM     13  C   UNL     1       1.896  -1.871   3.161  0.00  0.00    -0.003 A 
ATOM     14  C   UNL     1       1.317  -2.631   2.145  0.00  0.00    +0.013 A 
ATOM     15  C   UNL     1       0.680  -2.005   1.095  0.00  0.00    +0.046 A 
BRANCH  10  17
ATOM     16  C   UNL     1      -0.017   1.425   0.010  0.00  0.00    +0.277 C 
ATOM     17  O   UNL     1       0.002  -0.004   0.002  0.00  0.00    -0.495 OA
ENDBRANCH  10  17
ENDBRANCH   2  13
ENDBRANCH   1   7
BRANCH   1  18
ATOM     18  C   UNL     1       5.135  -6.079   4.124  0.00  0.00    +0.232 C 
ATOM     19  O   UNL     1       5.687  -5.075   3.725  0.00  0.00    -0.274 OA
ATOM     20  N   UNL     1       5.630  -7.292   3.806  0.00  0.00    -0.314 N 
ATOM     21  H   UNL     1       5.189  -8.095   4.125  0.00  0.00    +0.149 HD
BRANCH  20  22
ATOM     22  C   UNL     1       6.834  -7.397   2.978  0.00  0.00    +0.108 C 
BRANCH  22  23
ATOM     23  C   UNL     1       7.181  -8.872   2.767  0.00  0.00    +0.052 C 
BRANCH  23  24
ATOM     24  C   UNL     1       8.419  -8.981   1.915  0.00  0.00    -0.040 C 
ATOM     25  C   UNL     1       9.693  -9.122   2.347  0.00  0.00    +0.000 A 
ATOM     26  C   UNL     1      10.284  -9.212   3.688  0.00  0.00    +0.030 A 
ATOM     27  C   UNL     1      11.625  -9.352   3.806  0.00  0.00    +0.042 A 
ATOM     28  C   UNL     1      12.462  -9.413   2.681  0.00  0.00    +0.022 A 
ATOM     29  C   UNL     1      11.992  -9.336   1.419  0.00  0.00    +0.027 A 
ATOM     30  C   UNL     1      10.598  -9.188   1.177  0.00  0.00    +0.043 A 
ATOM     31  N   UNL     1       9.910  -9.092   0.066  0.00  0.00    -0.380 N 
ATOM     32  C   UNL     1       8.489  -8.960   0.405  0.00  0.00    +0.144 C 
ATOM     33 CL   UNL     1      12.328  -9.460   5.389  0.00  0.00    -0.084 Cl
ATOM     34  H   UNL     1      10.279  -9.110  -0.831  0.00  0.00    +0.160 HD
ENDBRANCH  23  24
ENDBRANCH  22  23
ENDBRANCH  20  22
ENDBRANCH   1  18
TORSDOF 7
