REMARK  Name = ZINC09845966
REMARK  5 active torsions:
REMARK  status: ('A' for Active; 'I' for Inactive)
REMARK    1  A    between atoms: C_3  and  C_10
REMARK    2  A    between atoms: C_5  and  N_7
REMARK    3  A    between atoms: C_13  and  C_15
REMARK    4  A    between atoms: N_19  and  C_23
REMARK    5  A    between atoms: C_23  and  C_24
REMARK                            x       y       z     vdW  Elec       q    Type
REMARK                         _______ _______ _______ _____ _____    ______ ____
ROOT
ATOM      1  C   UNL     1      -2.560   1.704   0.021  0.00  0.00    +0.074 C 
ATOM      2  C   UNL     1      -1.216   2.096   0.018  0.00  0.00    +0.101 C 
ATOM      3  C   UNL     1      -0.014   1.209   0.009  0.00  0.00    +0.269 C 
ATOM      4  O   UNL     1       0.002  -0.004   0.002  0.00  0.00    -0.268 OA
ATOM      5  N   UNL     1       1.050   2.040   0.003  0.00  0.00    -0.216 N 
ATOM      6  C   UNL     1       0.614   3.310   0.013  0.00  0.00    +0.313 C 
ATOM      7  O   UNL     1       1.341   4.284   0.011  0.00  0.00    -0.252 OA
ATOM      8  N   UNL     1      -0.728   3.367   0.026  0.00  0.00    -0.265 N 
ATOM      9  H   UNL     1      -1.260   4.178   0.035  0.00  0.00    +0.157 HD
ENDROOT
BRANCH   1  13
ATOM     10  C   UNL     1      -4.571   4.622   0.045  0.00  0.00    +0.136 A 
ATOM     11  C   UNL     1      -5.626   3.609   0.044  0.00  0.00    +0.050 A 
ATOM     12  C   UNL     1      -5.009   2.399   0.029  0.00  0.00    +0.050 A 
ATOM     13  C   UNL     1      -3.564   2.664   0.031  0.00  0.00    +0.131 A 
ATOM     14  O   UNL     1      -3.379   4.001   0.037  0.00  0.00    -0.455 OA
BRANCH  10  17
ATOM     15  C   UNL     1      -6.260   7.908   0.068  0.00  0.00    +0.003 A 
ATOM     16  C   UNL     1      -6.078   6.554   0.061  0.00  0.00    +0.012 A 
ATOM     17  C   UNL     1      -4.773   6.024   0.053  0.00  0.00    +0.019 A 
ATOM     18  C   UNL     1      -3.669   6.900   0.059  0.00  0.00    +0.044 A 
ATOM     19  C   UNL     1      -3.875   8.250   0.060  0.00  0.00    +0.127 A 
ATOM     20  C   UNL     1      -5.165   8.760   0.067  0.00  0.00    +0.033 A 
BRANCH  19  21
ATOM     21  N   UNL     1      -2.717   9.172   0.060  0.00  0.00    +0.056 N 
ATOM     22  O   UNL     1      -2.913  10.475   0.066  0.00  0.00    -0.126 OA
ATOM     23  O   UNL     1      -1.491   8.691   0.053  0.00  0.00    -0.126 OA
ENDBRANCH  19  21
ENDBRANCH  10  17
ENDBRANCH   1  13
BRANCH   5  24
ATOM     24  C   UNL     1       2.454   1.623  -0.012  0.00  0.00    +0.153 C 
BRANCH  24  25
ATOM     25  C   UNL     1       2.923   1.487  -1.438  0.00  0.00    -0.029 A 
ATOM     26  C   UNL     1       2.802   0.275  -2.092  0.00  0.00    +0.006 A 
ATOM     27  C   UNL     1       3.227   0.151  -3.401  0.00  0.00    +0.015 A 
ATOM     28  C   UNL     1       3.783   1.237  -4.053  0.00  0.00    +0.018 A 
ATOM     29  C   UNL     1       3.909   2.448  -3.397  0.00  0.00    +0.015 A 
ATOM     30  C   UNL     1       3.478   2.572  -2.089  0.00  0.00    +0.006 A 
ATOM     31 BR   UNL     1       4.371   1.066  -5.842  0.00  0.00    -0.050 Br
ENDBRANCH  24  25
ENDBRANCH   5  24
TORSDOF 5
