REMARK  Name = ZINC35424516
REMARK  6 active torsions:
REMARK  status: ('A' for Active; 'I' for Inactive)
REMARK    1  A    between atoms: C_1  and  C_2
REMARK    2  A    between atoms: C_8  and  C_10
REMARK    3  A    between atoms: C_12  and  S_15
REMARK    4  A    between atoms: S_15  and  N_18
REMARK    5  A    between atoms: C_21  and  C_24
REMARK    6  A    between atoms: N_26  and  C_27
REMARK                            x       y       z     vdW  Elec       q    Type
REMARK                         _______ _______ _______ _____ _____    ______ ____
ROOT
ATOM      1  N   UNL     1       0.737  -8.085   5.356  0.00  0.00    -0.176 NA
ATOM      2  C   UNL     1      -0.231  -8.966   4.689  0.00  0.00    +0.110 C 
ATOM      3  C   UNL     1       0.276  -9.277   3.277  0.00  0.00    +0.030 C 
ATOM      4  C   UNL     1       1.693  -9.850   3.363  0.00  0.00    +0.077 C 
ATOM      5  C   UNL     1       2.626  -8.815   3.995  0.00  0.00    +0.030 C 
ATOM      6  C   UNL     1       2.147  -8.496   5.410  0.00  0.00    +0.110 C 
ENDROOT
BRANCH   4   7
ATOM      7  C   UNL     1       2.182 -10.189   1.979  0.00  0.00    +0.216 C 
ATOM      8  O   UNL     1       1.468  -9.991   1.018  0.00  0.00    -0.276 OA
ATOM      9  N   UNL     1       3.413 -10.711   1.808  0.00  0.00    -0.312 N 
ATOM     10  H   UNL     1       3.983 -10.869   2.576  0.00  0.00    +0.149 HD
BRANCH   9  11
ATOM     11  C   UNL     1       3.888 -11.040   0.462  0.00  0.00    +0.073 C 
ATOM     12  C   UNL     1       3.401 -12.439   0.076  0.00  0.00    +0.022 C 
ATOM     13  C   UNL     1       3.544 -12.630  -1.435  0.00  0.00    +0.002 C 
ATOM     14  C   UNL     1       3.049 -11.375  -2.157  0.00  0.00    +0.000 C 
ATOM     15  C   UNL     1       4.229 -10.682  -2.842  0.00  0.00    +0.000 C 
ATOM     16  C   UNL     1       5.065  -9.945  -1.794  0.00  0.00    +0.000 C 
ATOM     17  C   UNL     1       5.906 -10.955  -1.010  0.00  0.00    +0.002 C 
ATOM     18  C   UNL     1       5.418 -11.009   0.440  0.00  0.00    +0.022 C 
ENDBRANCH   9  11
ENDBRANCH   4   7
BRANCH   1  19
ATOM     19  S   UNL     1       0.250  -6.653   6.029  0.00  0.00    +0.067 S 
ATOM     20  O   UNL     1       1.209  -6.325   7.025  0.00  0.00    -0.152 OA
ATOM     21  O   UNL     1      -1.134  -6.791   6.321  0.00  0.00    -0.152 OA
BRANCH  19  24
ATOM     22  C   UNL     1      -0.147  -3.983   2.976  0.00  0.00    +0.046 A 
ATOM     23  C   UNL     1      -0.550  -5.029   3.885  0.00  0.00    +0.049 A 
ATOM     24  C   UNL     1       0.381  -5.418   4.779  0.00  0.00    +0.143 A 
ATOM     25  S   UNL     1       1.774  -4.383   4.388  0.00  0.00    -0.076 S 
ATOM     26  C   UNL     1       1.135  -3.501   3.111  0.00  0.00    +0.060 A 
BRANCH  22  34
ATOM     27  C   UNL     1      -2.756   1.712   2.237  0.00  0.00    +0.007 C 
ATOM     28  C   UNL     1      -1.880   0.559   1.743  0.00  0.00    -0.011 C 
ATOM     29  C   UNL     1      -2.759  -0.494   1.065  0.00  0.00    +0.022 C 
ATOM     30  C   UNL     1      -1.874  -1.630   0.541  0.00  0.00    +0.108 C 
ATOM     31  N   UNL     1      -1.062  -2.147   1.650  0.00  0.00    -0.297 N 
ATOM     32  C   UNL     1      -0.248  -1.203   2.429  0.00  0.00    +0.108 C 
ATOM     33  C   UNL     1      -1.150  -0.072   2.931  0.00  0.00    +0.022 C 
ATOM     34  C   UNL     1      -1.063  -3.461   1.948  0.00  0.00    +0.247 C 
ATOM     35  O   UNL     1      -1.820  -4.216   1.368  0.00  0.00    -0.270 OA
ENDBRANCH  22  34
ENDBRANCH  19  24
ENDBRANCH   1  19
TORSDOF 5
