REMARK  Name = ZINC04760457
REMARK  3 active torsions:
REMARK  status: ('A' for Active; 'I' for Inactive)
REMARK    1  A    between atoms: C_1  and  C_2
REMARK    2  A    between atoms: N_5  and  C_11
REMARK    3  A    between atoms: C_7  and  C_10
REMARK                            x       y       z     vdW  Elec       q    Type
REMARK                         _______ _______ _______ _____ _____    ______ ____
ROOT
ATOM      1  C   UNL     1      -0.701  -0.730   0.942  0.00  0.00    +0.114 C 
ATOM      2  C   UNL     1      -0.746  -2.080   0.849  0.00  0.00    +0.114 C 
ATOM      3  C   UNL     1      -1.480  -2.877   1.833  0.00  0.00    +0.207 C 
ATOM      4  O   UNL     1      -1.506  -4.089   1.738  0.00  0.00    -0.286 OA
ATOM      5  C   UNL     1      -2.194  -2.206   2.944  0.00  0.00    +0.034 A 
ATOM      6  C   UNL     1      -2.898  -2.946   3.885  0.00  0.00    +0.012 A 
ATOM      7  C   UNL     1      -3.560  -2.298   4.917  0.00  0.00    +0.001 A 
ATOM      8  C   UNL     1      -3.523  -0.920   5.016  0.00  0.00    +0.001 A 
ATOM      9  C   UNL     1      -2.824  -0.168   4.085  0.00  0.00    +0.012 A 
ATOM     10  C   UNL     1      -2.156  -0.804   3.045  0.00  0.00    +0.034 A 
ATOM     11  C   UNL     1      -1.403  -0.024   2.039  0.00  0.00    +0.210 C 
ATOM     12  O   UNL     1      -1.361   1.187   2.112  0.00  0.00    -0.285 OA
ATOM     13 CL   UNL     1       0.082  -2.877  -0.452  0.00  0.00    -0.077 Cl
ENDROOT
BRANCH   1  17
ATOM     14  C   UNL     1       2.406   1.540   1.374  0.00  0.00    +0.039 C 
ATOM     15  C   UNL     1       1.706   1.744   0.028  0.00  0.00    +0.136 C 
ATOM     16  C   UNL     1       0.213   1.441   0.164  0.00  0.00    +0.155 C 
ATOM     17  N   UNL     1       0.002  -0.004   0.002  0.00  0.00    -0.257 N 
ATOM     18  N   UNL     1       0.514  -0.599  -1.118  0.00  0.00    -0.212 NA
ATOM     19  C   UNL     1       1.953  -0.357  -1.247  0.00  0.00    +0.200 C 
ATOM     20  O   UNL     1       2.315   0.982  -0.993  0.00  0.00    -0.356 OA
ATOM     21  C   UNL     1       2.730  -1.326  -0.352  0.00  0.00    +0.057 C 
ATOM     22  H   UNL     1       0.016  -0.310  -1.946  0.00  0.00    +0.147 HD
ENDBRANCH   1  17
TORSDOF 1
