REMARK  Name = ZINC08536535
REMARK  5 active torsions:
REMARK  status: ('A' for Active; 'I' for Inactive)
REMARK    1  A    between atoms: C_1  and  C_2
REMARK    2  A    between atoms: N_11  and  C_15
REMARK    3  A    between atoms: C_15  and  C_16
REMARK    4  A    between atoms: N_18  and  C_19
REMARK    5  A    between atoms: N_18  and  C_20
REMARK                            x       y       z     vdW  Elec       q    Type
REMARK                         _______ _______ _______ _____ _____    ______ ____
ROOT
ATOM      1  C   UNL     1       2.443   1.592  -0.013  0.00  0.00    +0.213 C 
ENDROOT
BRANCH   1  11
ATOM      2  C   UNL     1      -1.199   2.136   2.512  0.00  0.00    +0.010 C 
ATOM      3  C   UNL     1      -2.058   1.866   1.276  0.00  0.00    +0.018 C 
ATOM      4  C   UNL     1      -3.268   2.804   1.280  0.00  0.00    +0.006 C 
ATOM      5  C   UNL     1      -4.116   2.547   0.033  0.00  0.00    +0.000 C 
ATOM      6  C   UNL     1      -3.279   2.817  -1.219  0.00  0.00    +0.003 C 
ATOM      7  C   UNL     1      -2.069   1.879  -1.234  0.00  0.00    +0.035 C 
ATOM      8  C   UNL     1      -1.230   2.107   0.018  0.00  0.00    +0.115 C 
ATOM      9  C   UNL     1      -0.014   1.208   0.009  0.00  0.00    +0.247 C 
ATOM     10  O   UNL     1       0.002  -0.004   0.002  0.00  0.00    -0.273 OA
ATOM     11  N   UNL     1       1.048   2.039   0.003  0.00  0.00    -0.215 N 
ATOM     12  C   UNL     1       0.670   3.323   0.013  0.00  0.00    +0.310 C 
ATOM     13  O   UNL     1       1.448   4.257   0.010  0.00  0.00    -0.252 OA
ATOM     14  N   UNL     1      -0.670   3.464   0.026  0.00  0.00    -0.285 N 
ATOM     15  H   UNL     1      -1.166   4.297   0.034  0.00  0.00    +0.151 HD
ENDBRANCH   1  11
BRANCH   1  16
ATOM     16  C   UNL     1       2.908   1.446  -1.439  0.00  0.00    +0.234 C 
ATOM     17  O   UNL     1       2.149   1.692  -2.352  0.00  0.00    -0.274 OA
ATOM     18  N   UNL     1       4.168   1.043  -1.699  0.00  0.00    -0.296 N 
ATOM     19  C   UNL     1       5.085   0.747  -0.596  0.00  0.00    +0.132 C 
BRANCH  18  20
ATOM     20  C   UNL     1       4.619   0.902  -3.086  0.00  0.00    +0.106 C 
ATOM     21  C   UNL     1       5.017  -0.551  -3.340  0.00  0.00    +0.027 C 
ATOM     22  C   UNL     1       5.687  -0.635  -4.716  0.00  0.00    +0.007 C 
ATOM     23  C   UNL     1       7.045   0.059  -4.634  0.00  0.00    +0.035 C 
ATOM     24  C   UNL     1       6.900   1.436  -4.040  0.00  0.00    -0.042 A 
ATOM     25  C   UNL     1       5.789   1.821  -3.323  0.00  0.00    -0.024 A 
ATOM     26  C   UNL     1       5.724   3.101  -2.790  0.00  0.00    +0.006 A 
ATOM     27  C   UNL     1       6.761   3.992  -2.977  0.00  0.00    +0.000 A 
ATOM     28  C   UNL     1       7.874   3.608  -3.701  0.00  0.00    +0.000 A 
ATOM     29  C   UNL     1       7.941   2.335  -4.230  0.00  0.00    +0.004 A 
ENDBRANCH  18  20
ENDBRANCH   1  16
TORSDOF 3
