REMARK  Name = ZINC48758952
REMARK  7 active torsions:
REMARK  status: ('A' for Active; 'I' for Inactive)
REMARK    1  A    between atoms: C_1  and  C_2
REMARK    2  A    between atoms: C_4  and  C_21
REMARK    3  A    between atoms: C_5  and  C_20
REMARK    4  A    between atoms: C_6  and  O_8
REMARK    5  A    between atoms: O_8  and  C_9
REMARK    6  A    between atoms: C_12  and  S_16
REMARK    7  A    between atoms: S_16  and  N_19
REMARK                            x       y       z     vdW  Elec       q    Type
REMARK                         _______ _______ _______ _____ _____    ______ ____
ROOT
ATOM      1  C   UNL     1       0.157  -2.066   3.513  0.00  0.00    +0.147 A 
ATOM      2  C   UNL     1       1.407  -1.782   4.042  0.00  0.00    +0.049 A 
ATOM      3  C   UNL     1       1.512  -1.061   5.216  0.00  0.00    +0.032 A 
ATOM      4  C   UNL     1       0.371  -0.622   5.864  0.00  0.00    +0.107 A 
ATOM      5  C   UNL     1      -0.877  -0.904   5.339  0.00  0.00    +0.052 A 
ATOM      6  C   UNL     1      -0.987  -1.620   4.162  0.00  0.00    +0.085 A 
ATOM      7 CL   UNL     1      -2.553  -1.967   3.499  0.00  0.00    -0.080 Cl
ENDROOT
BRANCH   4   8
ATOM      8  S   UNL     1       0.508   0.297   7.360  0.00  0.00    +0.056 S 
ATOM      9  O   UNL     1      -0.717   0.122   8.059  0.00  0.00    -0.153 OA
ATOM     10  O   UNL     1       1.765  -0.041   7.931  0.00  0.00    -0.153 OA
BRANCH   8  11
ATOM     11  N   UNL     1       0.592   1.898   6.946  0.00  0.00    -0.204 NA
ATOM     12  H   UNL     1       0.246   2.574   7.549  0.00  0.00    +0.144 HD
ATOM     13  H   UNL     1       0.987   2.160   6.099  0.00  0.00    +0.144 HD
ENDBRANCH   8  11
ENDBRANCH   4   8
BRANCH   1  14
ATOM     14  O   UNL     1       0.052  -2.776   2.358  0.00  0.00    -0.454 OA
BRANCH  14  20
ATOM     15  C   UNL     1       0.079   1.500   0.004  0.00  0.00    +0.044 C 
ATOM     16  C   UNL     1      -0.042  -0.002   0.005  0.00  0.00    -0.047 A 
ATOM     17  C   UNL     1      -0.256  -0.679  -1.181  0.00  0.00    +0.007 A 
ATOM     18  C   UNL     1      -0.367  -2.057  -1.184  0.00  0.00    -0.044 A 
ATOM     19  C   UNL     1      -0.264  -2.762   0.000  0.00  0.00    -0.005 A 
ATOM     20  C   UNL     1      -0.049  -2.085   1.192  0.00  0.00    +0.132 A 
ATOM     21  C   UNL     1       0.067  -0.702   1.191  0.00  0.00    +0.050 A 
ATOM     22  C   UNL     1      -0.386  -4.264  -0.003  0.00  0.00    +0.048 C 
ATOM     23  C   UNL     1      -0.601  -2.792  -2.479  0.00  0.00    +0.044 C 
ENDBRANCH  14  20
ENDBRANCH   1  14
TORSDOF 4
