REMARK  Name = ZINC09517090
REMARK  5 active torsions:
REMARK  status: ('A' for Active; 'I' for Inactive)
REMARK    1  A    between atoms: C_6  and  C_10
REMARK    2  A    between atoms: C_13  and  N_16
REMARK    3  A    between atoms: C_17  and  C_19
REMARK    4  A    between atoms: C_19  and  N_20
REMARK    5  A    between atoms: C_27  and  C_30
REMARK                            x       y       z     vdW  Elec       q    Type
REMARK                         _______ _______ _______ _____ _____    ______ ____
ROOT
ATOM      1  N   UNL     1       1.434   6.980   4.105  0.00  0.00    -0.284 N 
ATOM      2  C   UNL     1       0.444   6.460   3.353  0.00  0.00    +0.237 C 
ATOM      3  O   UNL     1       0.221   6.908   2.248  0.00  0.00    -0.274 OA
ATOM      4  H   UNL     1       1.562   6.674   5.016  0.00  0.00    +0.155 HD
ENDROOT
BRANCH   1   8
ATOM      5  C   UNL     1       3.945   9.902   2.513  0.00  0.00    +0.002 A 
ATOM      6  C   UNL     1       3.617   9.926   3.867  0.00  0.00    +0.012 A 
ATOM      7  C   UNL     1       2.787   8.959   4.392  0.00  0.00    +0.024 A 
ATOM      8  C   UNL     1       2.276   7.960   3.571  0.00  0.00    +0.033 A 
ATOM      9  C   UNL     1       2.606   7.932   2.221  0.00  0.00    +0.024 A 
ATOM     10  C   UNL     1       3.432   8.900   1.691  0.00  0.00    +0.012 A 
BRANCH   5  16
ATOM     11  C   UNL     1       7.577  14.384   0.941  0.00  0.00    +0.005 A 
ATOM     12  C   UNL     1       7.472  13.790  -0.328  0.00  0.00    +0.018 A 
ATOM     13  C   UNL     1       6.719  12.684  -0.502  0.00  0.00    +0.093 A 
ATOM     14  N   UNL     1       6.049  12.126   0.549  0.00  0.00    -0.306 N 
ATOM     15  C   UNL     1       5.235  11.032   0.646  0.00  0.00    +0.121 A 
ATOM     16  C   UNL     1       4.839  10.942   1.946  0.00  0.00    +0.090 A 
ATOM     17  N   UNL     1       5.392  11.959   2.626  0.00  0.00    -0.228 NA
ATOM     18  C   UNL     1       6.132  12.682   1.799  0.00  0.00    +0.138 A 
ATOM     19  C   UNL     1       6.915  13.838   1.997  0.00  0.00    +0.047 A 
ENDBRANCH   5  16
ENDBRANCH   1   8
BRANCH   2  20
ATOM     20  C   UNL     1      -0.388   5.321   3.885  0.00  0.00    +0.222 C 
BRANCH  20  21
ATOM     21  N   UNL     1      -1.389   4.939   2.886  0.00  0.00    -0.290 N 
ATOM     22  C   UNL     1      -2.607   5.540   2.900  0.00  0.00    +0.203 A 
ATOM     23  N   UNL     1      -3.525   5.226   2.027  0.00  0.00    -0.230 NA
ATOM     24  C   UNL     1      -3.297   4.306   1.093  0.00  0.00    +0.116 A 
ATOM     25  C   UNL     1      -2.069   3.631   1.000  0.00  0.00    +0.080 A 
ATOM     26  C   UNL     1      -1.085   3.999   1.973  0.00  0.00    +0.263 A 
ATOM     27  O   UNL     1       0.013   3.468   1.973  0.00  0.00    -0.267 OA
ATOM     28  C   UNL     1      -1.981   2.653  -0.077  0.00  0.00    +0.004 A 
ATOM     29  C   UNL     1      -3.053   2.478  -0.887  0.00  0.00    +0.056 A 
ATOM     30  S   UNL     1      -4.255   3.619  -0.233  0.00  0.00    -0.076 S 
BRANCH  28  31
ATOM     31  C   UNL     1      -0.739   1.871  -0.288  0.00  0.00    -0.016 A 
ATOM     32  C   UNL     1       0.492   2.519  -0.360  0.00  0.00    +0.011 A 
ATOM     33  C   UNL     1       1.645   1.787  -0.561  0.00  0.00    +0.039 A 
ATOM     34  C   UNL     1       1.578   0.409  -0.692  0.00  0.00    +0.123 A 
ATOM     35  C   UNL     1       0.356  -0.240  -0.620  0.00  0.00    +0.039 A 
ATOM     36  C   UNL     1      -0.801   0.484  -0.419  0.00  0.00    +0.011 A 
ATOM     37  F   UNL     1       2.709  -0.304  -0.889  0.00  0.00    -0.205 F 
ENDBRANCH  28  31
ENDBRANCH  20  21
ENDBRANCH   2  20
TORSDOF 5
