REMARK  Name = ZINC34728555
REMARK  8 active torsions:
REMARK  status: ('A' for Active; 'I' for Inactive)
REMARK    1  A    between atoms: C_1  and  C_2
REMARK    2  A    between atoms: C_2  and  C_3
REMARK    3  A    between atoms: C_2  and  C_4
REMARK    4  A    between atoms: C_4  and  C_5
REMARK    5  A    between atoms: C_5  and  N_6
REMARK    6  A    between atoms: N_18  and  C_21
REMARK    7  A    between atoms: C_21  and  C_22
REMARK    8  A    between atoms: N_24  and  C_25
REMARK                            x       y       z     vdW  Elec       q    Type
REMARK                         _______ _______ _______ _____ _____    ______ ____
ROOT
ATOM      1  N   UNL     1      -2.793  -2.558  -0.106  0.00  0.00    -0.287 N 
ATOM      2  C   UNL     1      -3.385  -2.900   1.083  0.00  0.00    +0.097 A 
ATOM      3  C   UNL     1      -4.688  -3.393   1.122  0.00  0.00    +0.074 A 
ATOM      4  C   UNL     1      -5.199  -3.719   2.453  0.00  0.00    -0.023 A 
ATOM      5  C   UNL     1      -4.333  -3.496   3.462  0.00  0.00    -0.004 A 
ATOM      6  S   UNL     1      -2.878  -2.870   2.675  0.00  0.00    -0.075 S 
ATOM      7  C   UNL     1      -4.572  -3.732   4.921  0.00  0.00    +0.043 C 
ATOM      8  C   UNL     1      -6.081  -3.913   5.140  0.00  0.00    +0.005 C 
ATOM      9  C   UNL     1      -6.617  -4.906   4.104  0.00  0.00    +0.005 C 
ATOM     10  C   UNL     1      -6.593  -4.271   2.712  0.00  0.00    +0.037 C 
ATOM     11  C   UNL     1      -5.372  -3.517  -0.184  0.00  0.00    +0.266 A 
ATOM     12  O   UNL     1      -6.512  -3.938  -0.244  0.00  0.00    -0.267 OA
ATOM     13  N   UNL     1      -4.718  -3.160  -1.304  0.00  0.00    -0.251 N 
ATOM     14  C   UNL     1      -3.462  -2.686  -1.268  0.00  0.00    +0.333 A 
ATOM     15  O   UNL     1      -2.915  -2.370  -2.307  0.00  0.00    -0.246 OA
ENDROOT
BRANCH   1  16
ATOM     16  C   UNL     1      -1.422  -2.043  -0.112  0.00  0.00    +0.127 C 
BRANCH  16  17
ATOM     17  C   UNL     1      -1.448  -0.519   0.028  0.00  0.00    +0.025 C 
BRANCH  17  19
ATOM     18  C   UNL     1      -0.046   1.548   0.037  0.00  0.00    +0.007 C 
ATOM     19  C   UNL     1      -0.016   0.019   0.022  0.00  0.00    -0.016 C 
ATOM     20  C   UNL     1       0.725  -0.489   1.261  0.00  0.00    +0.007 C 
ENDBRANCH  17  19
ENDBRANCH  16  17
ENDBRANCH   1  16
BRANCH  13  21
ATOM     21  C   UNL     1      -5.396  -3.285  -2.596  0.00  0.00    +0.226 C 
BRANCH  21  22
ATOM     22  C   UNL     1      -6.126  -2.003  -2.907  0.00  0.00    +0.237 C 
ATOM     23  O   UNL     1      -6.084  -1.077  -2.125  0.00  0.00    -0.274 OA
ATOM     24  N   UNL     1      -6.826  -1.887  -4.053  0.00  0.00    -0.284 N 
ATOM     25  H   UNL     1      -6.806  -2.601  -4.708  0.00  0.00    +0.155 HD
BRANCH  24  26
ATOM     26  C   UNL     1      -7.582  -0.735  -4.297  0.00  0.00    +0.034 A 
ATOM     27  C   UNL     1      -8.790  -0.827  -4.976  0.00  0.00    +0.024 A 
ATOM     28  C   UNL     1      -9.535   0.312  -5.215  0.00  0.00    +0.017 A 
ATOM     29  C   UNL     1      -9.078   1.543  -4.778  0.00  0.00    +0.018 A 
ATOM     30  C   UNL     1      -7.875   1.637  -4.101  0.00  0.00    +0.017 A 
ATOM     31  C   UNL     1      -7.129   0.501  -3.855  0.00  0.00    +0.024 A 
ATOM     32 BR   UNL     1     -10.100   3.099  -5.108  0.00  0.00    -0.050 Br
ENDBRANCH  24  26
ENDBRANCH  21  22
ENDBRANCH  13  21
TORSDOF 6
