REMARK  Name = ZINC42015370
REMARK  4 active torsions:
REMARK  status: ('A' for Active; 'I' for Inactive)
REMARK    1  A    between atoms: C_1  and  C_2
REMARK    2  A    between atoms: C_7  and  N_8
REMARK    3  A    between atoms: C_9  and  C_13
REMARK    4  A    between atoms: C_18  and  N_19
REMARK                            x       y       z     vdW  Elec       q    Type
REMARK                         _______ _______ _______ _____ _____    ______ ____
ROOT
ATOM      1  N   UNL     1      -0.541  -0.167   2.871  0.00  0.00    -0.192 N 
ATOM      2  C   UNL     1       0.389  -0.731   3.695  0.00  0.00    +0.189 A 
ATOM      3  N   UNL     1       1.085   0.258   4.219  0.00  0.00    -0.108 NA
ATOM      4  N   UNL     1       0.659   1.388   3.783  0.00  0.00    -0.022 NA
ATOM      5  N   UNL     1      -0.317   1.218   2.960  0.00  0.00    -0.039 NA
ENDROOT
BRANCH   1  12
ATOM      6  C   UNL     1       0.004  -0.587   0.109  0.00  0.00    +0.046 C 
ATOM      7  C   UNL     1      -1.280  -1.052   0.747  0.00  0.00    -0.024 A 
ATOM      8  C   UNL     1      -2.231  -1.707  -0.012  0.00  0.00    +0.020 A 
ATOM      9  C   UNL     1      -3.410  -2.134   0.573  0.00  0.00    +0.018 A 
ATOM     10  C   UNL     1      -3.640  -1.907   1.918  0.00  0.00    +0.017 A 
ATOM     11  C   UNL     1      -2.692  -1.252   2.681  0.00  0.00    +0.029 A 
ATOM     12  C   UNL     1      -1.506  -0.827   2.098  0.00  0.00    +0.072 A 
ATOM     13 BR   UNL     1      -4.709  -3.030  -0.469  0.00  0.00    -0.050 Br
ENDBRANCH   1  12
BRANCH   2  14
ATOM     14  C   UNL     1       0.580  -2.174   3.951  0.00  0.00    +0.043 A 
ATOM     15  C   UNL     1       0.664  -3.070   2.886  0.00  0.00    +0.033 A 
ATOM     16  C   UNL     1       0.842  -4.417   3.131  0.00  0.00    +0.042 A 
ATOM     17  C   UNL     1       0.936  -4.883   4.433  0.00  0.00    +0.022 A 
ATOM     18  C   UNL     1       0.854  -4.006   5.496  0.00  0.00    +0.025 A 
ATOM     19  C   UNL     1       0.682  -2.648   5.266  0.00  0.00    +0.036 A 
ATOM     20 CL   UNL     1       0.946  -5.531   1.804  0.00  0.00    -0.084 Cl
BRANCH  19  21
ATOM     21  N   UNL     1       0.605  -1.762   6.338  0.00  0.00    -0.357 N 
ATOM     22  H   UNL     1       0.481  -0.813   6.175  0.00  0.00    +0.142 HD
ATOM     23  H   UNL     1       0.676  -2.092   7.247  0.00  0.00    +0.142 HD
ENDBRANCH  19  21
ENDBRANCH   2  14
TORSDOF 3
