REMARK  Name = ZINC35227636
REMARK  5 active torsions:
REMARK  status: ('A' for Active; 'I' for Inactive)
REMARK    1  A    between atoms: C_4  and  C_7
REMARK    2  A    between atoms: C_7  and  C_12
REMARK    3  A    between atoms: N_14  and  C_15
REMARK    4  A    between atoms: C_17  and  N_22
REMARK    5  A    between atoms: C_20  and  O_21
REMARK                            x       y       z     vdW  Elec       q    Type
REMARK                         _______ _______ _______ _____ _____    ______ ____
ROOT
ATOM      1  C   UNL     1       4.848  -0.208   0.846  0.00  0.00    +0.228 C 
ATOM      2  O   UNL     1       5.603  -1.001   1.369  0.00  0.00    -0.274 OA
ATOM      3  N   UNL     1       4.851   1.082   1.234  0.00  0.00    -0.282 N 
ATOM      4  H   UNL     1       4.234   1.712   0.829  0.00  0.00    +0.155 HD
ENDROOT
BRANCH   3   5
ATOM      5  C   UNL     1       5.745   1.514   2.223  0.00  0.00    +0.078 A 
ATOM      6  C   UNL     1       6.280   0.604   3.123  0.00  0.00    +0.059 A 
ATOM      7  C   UNL     1       7.162   1.033   4.097  0.00  0.00    +0.128 A 
ATOM      8  C   UNL     1       7.512   2.368   4.178  0.00  0.00    +0.036 A 
ATOM      9  C   UNL     1       6.983   3.281   3.285  0.00  0.00    +0.049 A 
ATOM     10  C   UNL     1       6.103   2.858   2.301  0.00  0.00    +0.138 A 
BRANCH   7  11
ATOM     11  N   UNL     1       7.731   0.060   5.057  0.00  0.00    +0.056 N 
ATOM     12  O   UNL     1       7.426  -1.107   4.987  0.00  0.00    -0.126 OA
ATOM     13  O   UNL     1       8.503   0.434   5.909  0.00  0.00    -0.126 OA
ENDBRANCH   7  11
BRANCH  10  14
ATOM     14  O   UNL     1       5.586   3.754   1.419  0.00  0.00    -0.505 OA
ATOM     15  H   UNL     1       4.759   4.162   1.711  0.00  0.00    +0.292 HD
ENDBRANCH  10  14
ENDBRANCH   3   5
BRANCH   1  16
ATOM     16  C   UNL     1       3.906  -0.667  -0.237  0.00  0.00    +0.072 C 
ATOM     17  C   UNL     1       4.092   0.197  -1.501  0.00  0.00    +0.021 C 
ATOM     18  C   UNL     1       5.069  -0.622  -2.381  0.00  0.00    +0.001 C 
ATOM     19  C   UNL     1       4.607  -2.080  -2.138  0.00  0.00    +0.001 C 
ATOM     20  C   UNL     1       4.234  -2.115  -0.642  0.00  0.00    +0.021 C 
BRANCH  16  24
ATOM     21  C   UNL     1      -0.132  -0.412   1.132  0.00  0.00    +0.000 A 
ATOM     22  C   UNL     1       0.131  -0.678  -0.199  0.00  0.00    +0.000 A 
ATOM     23  C   UNL     1       1.438  -0.760  -0.642  0.00  0.00    +0.004 A 
ATOM     24  C   UNL     1       2.481  -0.577   0.246  0.00  0.00    -0.032 A 
ATOM     25  C   UNL     1       2.218  -0.310   1.577  0.00  0.00    +0.004 A 
ATOM     26  C   UNL     1       0.911  -0.230   2.020  0.00  0.00    +0.000 A 
ENDBRANCH  16  24
ENDBRANCH   1  16
TORSDOF 5
