REMARK  Name = ZINC20918744
REMARK  10 active torsions:
REMARK  status: ('A' for Active; 'I' for Inactive)
REMARK    1  A    between atoms: C_4  and  C_7
REMARK    2  A    between atoms: C_7  and  C_8
REMARK    3  A    between atoms: C_8  and  C_25
REMARK    4  A    between atoms: N_9  and  N_10
REMARK    5  A    between atoms: C_14  and  S_17
REMARK    6  A    between atoms: N_15  and  N_16
REMARK    7  A    between atoms: S_17  and  C_18
REMARK    8  A    between atoms: C_18  and  C_19
REMARK    9  A    between atoms: N_21  and  C_22
REMARK   10  A    between atoms: C_25  and  C_26
REMARK                            x       y       z     vdW  Elec       q    Type
REMARK                         _______ _______ _______ _____ _____    ______ ____
ROOT
ATOM      1  N   UNL     1       1.061   1.669  -2.699  0.00  0.00    -0.204 N 
ATOM      2  C   UNL     1      -0.257   1.797  -2.282  0.00  0.00    +0.254 A 
ATOM      3  N   UNL     1      -1.257   2.229  -3.011  0.00  0.00    -0.109 NA
ATOM      4  N   UNL     1      -2.411   2.210  -2.217  0.00  0.00    -0.119 NA
ATOM      5  C   UNL     1      -2.080   1.760  -1.031  0.00  0.00    +0.210 A 
ATOM      6  N   UNL     1      -0.741   1.490  -1.041  0.00  0.00    -0.211 N 
ATOM      7  H   UNL     1       1.824   1.291  -2.002  0.00  0.00    +0.177 HD
ENDROOT
BRANCH   6   8
ATOM      8  N   UNL     1      -0.012   1.005   0.008  0.00  0.00    -0.294 N 
ATOM      9  H   UNL     1      -0.504   0.791   0.968  0.00  0.00    +0.163 HD
ATOM     10  H   UNL     1       1.068   0.827  -0.108  0.00  0.00    +0.163 HD
ENDBRANCH   6   8
BRANCH   1  12
ATOM     11  C   UNL     1       2.636   1.904  -4.390  0.00  0.00    +0.045 C 
ATOM     12  N   UNL     1       1.420   2.022  -4.006  0.00  0.00    -0.188 NA
BRANCH  11  13
ATOM     13  C   UNL     1       3.681   1.386  -3.436  0.00  0.00    +0.088 C 
BRANCH  13  17
ATOM     14  C   UNL     1       3.918  -2.867  -3.755  0.00  0.00    +0.000 A 
ATOM     15  C   UNL     1       4.713  -2.068  -4.556  0.00  0.00    +0.000 A 
ATOM     16  C   UNL     1       4.636  -0.692  -4.453  0.00  0.00    +0.004 A 
ATOM     17  C   UNL     1       3.764  -0.114  -3.549  0.00  0.00    -0.042 A 
ATOM     18  C   UNL     1       2.974  -0.913  -2.744  0.00  0.00    +0.004 A 
ATOM     19  C   UNL     1       3.047  -2.289  -2.851  0.00  0.00    +0.000 A 
ENDBRANCH  13  17
ENDBRANCH  11  13
BRANCH  11  20
ATOM     20  C   UNL     1       3.022   2.284  -5.796  0.00  0.00    +0.088 C 
BRANCH  20  21
ATOM     21  C   UNL     1       3.960   3.463  -5.759  0.00  0.00    -0.042 A 
ATOM     22  C   UNL     1       3.455   4.749  -5.803  0.00  0.00    +0.004 A 
ATOM     23  C   UNL     1       4.316   5.831  -5.764  0.00  0.00    +0.000 A 
ATOM     24  C   UNL     1       5.681   5.625  -5.691  0.00  0.00    +0.000 A 
ATOM     25  C   UNL     1       6.186   4.339  -5.653  0.00  0.00    +0.000 A 
ATOM     26  C   UNL     1       5.325   3.258  -5.687  0.00  0.00    +0.004 A 
ENDBRANCH  20  21
ENDBRANCH  11  20
ENDBRANCH   1  12
BRANCH   5  27
ATOM     27  S   UNL     1      -3.170   1.544   0.336  0.00  0.00    -0.075 S 
BRANCH  27  28
ATOM     28  C   UNL     1      -4.783   2.077  -0.300  0.00  0.00    +0.173 C 
BRANCH  28  29
ATOM     29  C   UNL     1      -5.821   1.940   0.784  0.00  0.00    +0.224 C 
ATOM     30  O   UNL     1      -5.503   1.524   1.879  0.00  0.00    -0.275 OA
ATOM     31  N   UNL     1      -7.101   2.280   0.538  0.00  0.00    -0.312 N 
ATOM     32  H   UNL     1      -7.389   2.658  -0.454  0.00  0.00    +0.149 HD
BRANCH  31  33
ATOM     33  C   UNL     1      -8.110   2.148   1.592  0.00  0.00    +0.073 C 
ATOM     34  C   UNL     1      -9.461   1.544   1.205  0.00  0.00    +0.024 C 
ATOM     35  C   UNL     1      -9.348   3.041   1.502  0.00  0.00    +0.024 C 
ENDBRANCH  31  33
ENDBRANCH  28  29
ENDBRANCH  27  28
ENDBRANCH   5  27
TORSDOF 10
