REMARK  Name = ZINC32810949
REMARK  8 active torsions:
REMARK  status: ('A' for Active; 'I' for Inactive)
REMARK    1  A    between atoms: C_1  and  C_2
REMARK    2  A    between atoms: C_9  and  N_14
REMARK    3  A    between atoms: N_14  and  C_15
REMARK    4  A    between atoms: C_15  and  C_17
REMARK    5  A    between atoms: C_15  and  C_18
REMARK    6  A    between atoms: N_20  and  C_21
REMARK    7  A    between atoms: C_21  and  C_22
REMARK    8  A    between atoms: C_21  and  C_28
REMARK                            x       y       z     vdW  Elec       q    Type
REMARK                         _______ _______ _______ _____ _____    ______ ____
ROOT
ATOM      1  C   UNL     1      -1.864  -1.166   3.136  0.00  0.00    +0.154 C 
ATOM      2  C   UNL     1      -2.276  -2.572   2.694  0.00  0.00    +0.038 C 
ENDROOT
BRANCH   1   3
ATOM      3  C   UNL     1      -0.792  -0.644   2.215  0.00  0.00    +0.234 C 
ATOM      4  O   UNL     1       0.296  -0.343   2.660  0.00  0.00    -0.274 OA
ATOM      5  N   UNL     1      -1.041  -0.511   0.897  0.00  0.00    -0.303 N 
ATOM      6  H   UNL     1      -2.027  -0.784   0.493  0.00  0.00    +0.150 HD
BRANCH   5   7
ATOM      7  C   UNL     1       0.002  -0.004   0.002  0.00  0.00    +0.134 C 
BRANCH   7   8
ATOM      8  C   UNL     1      -0.018   1.503   0.010  0.00  0.00    -0.023 A 
ATOM      9  C   UNL     1      -1.225   2.178   0.020  0.00  0.00    +0.006 A 
ATOM     10  C   UNL     1      -1.244   3.560   0.032  0.00  0.00    +0.000 A 
ATOM     11  C   UNL     1      -0.056   4.267   0.025  0.00  0.00    +0.000 A 
ATOM     12  C   UNL     1       1.151   3.592   0.010  0.00  0.00    +0.000 A 
ATOM     13  C   UNL     1       1.169   2.210   0.003  0.00  0.00    +0.006 A 
ENDBRANCH   7   8
BRANCH   7  14
ATOM     14  C   UNL     1      -0.251  -0.502  -1.398  0.00  0.00    -0.023 A 
ATOM     15  C   UNL     1      -1.542  -0.557  -1.889  0.00  0.00    +0.006 A 
ATOM     16  C   UNL     1      -1.774  -1.009  -3.174  0.00  0.00    +0.000 A 
ATOM     17  C   UNL     1      -0.716  -1.416  -3.965  0.00  0.00    +0.000 A 
ATOM     18  C   UNL     1       0.575  -1.367  -3.472  0.00  0.00    +0.000 A 
ATOM     19  C   UNL     1       0.807  -0.910  -2.188  0.00  0.00    +0.006 A 
ENDBRANCH   7  14
ENDBRANCH   5   7
ENDBRANCH   1   3
BRANCH   1  20
ATOM     20  N   UNL     1      -1.350  -1.216   4.506  0.00  0.00    -0.333 N 
ATOM     21  H   UNL     1      -0.268  -1.304   4.685  0.00  0.00    +0.147 HD
BRANCH  20  29
ATOM     22  C   UNL     1      -4.677  -3.191   9.704  0.00  0.00    +0.062 C 
ATOM     23  C   UNL     1      -4.475  -1.695   9.954  0.00  0.00    +0.256 C 
ATOM     24  C   UNL     1      -3.025  -1.431  10.275  0.00  0.00    +0.258 C 
ATOM     25  O   UNL     1      -2.644  -1.446  11.426  0.00  0.00    -0.271 OA
ATOM     26  N   UNL     1      -2.153  -1.179   9.275  0.00  0.00    -0.279 N 
ATOM     27  C   UNL     1      -2.625  -1.135   7.956  0.00  0.00    +0.077 A 
ATOM     28  C   UNL     1      -1.746  -1.199   6.888  0.00  0.00    +0.050 A 
ATOM     29  C   UNL     1      -2.234  -1.152   5.589  0.00  0.00    +0.030 A 
ATOM     30  C   UNL     1      -3.600  -1.035   5.363  0.00  0.00    +0.026 A 
ATOM     31  C   UNL     1      -4.478  -0.977   6.429  0.00  0.00    +0.049 A 
ATOM     32  C   UNL     1      -3.995  -1.023   7.726  0.00  0.00    +0.143 A 
ATOM     33  O   UNL     1      -4.848  -0.962   8.785  0.00  0.00    -0.478 OA
ATOM     34  H   UNL     1      -1.089  -1.013   9.502  0.00  0.00    +0.155 HD
ENDBRANCH  20  29
ENDBRANCH   1  20
TORSDOF 6
