REMARK  Name = ZINC25324629
REMARK  11 active torsions:
REMARK  status: ('A' for Active; 'I' for Inactive)
REMARK    1  A    between atoms: C_1  and  C_2
REMARK    2  A    between atoms: C_4  and  C_15
REMARK    3  A    between atoms: C_6  and  C_12
REMARK    4  A    between atoms: N_9  and  C_11
REMARK    5  A    between atoms: C_12  and  C_13
REMARK    6  A    between atoms: C_12  and  C_14
REMARK    7  A    between atoms: N_17  and  C_18
REMARK    8  A    between atoms: C_20  and  C_26
REMARK    9  A    between atoms: C_20  and  C_27
REMARK   10  A    between atoms: C_22  and  C_24
REMARK   11  A    between atoms: C_22  and  C_25
REMARK                            x       y       z     vdW  Elec       q    Type
REMARK                         _______ _______ _______ _____ _____    ______ ____
ROOT
ATOM      1  C   UNL     1      -0.452   5.713  -2.607  0.00  0.00    +0.245 C 
ATOM      2  O   UNL     1      -0.624   5.124  -3.656  0.00  0.00    -0.270 OA
ATOM      3  N   UNL     1      -0.337   5.020  -1.457  0.00  0.00    -0.309 N 
ATOM      4  H   UNL     1      -0.181   5.553  -0.507  0.00  0.00    +0.149 HD
ENDROOT
BRANCH   3   5
ATOM      5  C   UNL     1      -0.419   3.554  -1.471  0.00  0.00    +0.071 C 
ATOM      6  C   UNL     1       0.328   2.997  -0.259  0.00  0.00    +0.009 C 
ATOM      7  C   UNL     1       0.240   1.472  -0.238  0.00  0.00    -0.072 C 
ATOM      8  N   UNL     1      -1.111   0.982  -0.409  0.00  0.00    +0.386 N 
ATOM      9  C   UNL     1      -2.001   1.610  -1.363  0.00  0.00    -0.072 C 
ATOM     10  C   UNL     1      -1.885   3.132  -1.374  0.00  0.00    +0.009 C 
ATOM     11  C   UNL     1      -1.766   1.068  -2.778  0.00  0.00    -0.010 C 
ATOM     12  C   UNL     1      -3.453   1.257  -0.973  0.00  0.00    -0.010 C 
ATOM     13  C   UNL     1       0.756   0.997   1.139  0.00  0.00    -0.010 C 
ATOM     14  C   UNL     1       1.180   0.890  -1.300  0.00  0.00    -0.010 C 
ATOM     15  H   UNL     1      -1.081  -0.070  -0.730  0.00  0.00    -0.084 HD
ATOM     16  H   UNL     1      -1.653   1.059   0.546  0.00  0.00    -0.084 HD
ENDBRANCH   3   5
BRANCH   1  20
ATOM     17  C   UNL     1       1.140   6.082  -5.283  0.00  0.00    +0.068 C 
ATOM     18  C   UNL     1       0.951   7.501  -4.810  0.00  0.00    +0.070 A 
ATOM     19  C   UNL     1       0.283   7.893  -3.630  0.00  0.00    +0.054 A 
ATOM     20  C   UNL     1      -0.368   7.189  -2.593  0.00  0.00    +0.051 A 
ATOM     21  C   UNL     1      -0.935   7.932  -1.560  0.00  0.00    +0.037 A 
ATOM     22  C   UNL     1      -0.831   9.315  -1.580  0.00  0.00    +0.047 A 
ATOM     23  N   UNL     1      -0.219   9.947  -2.557  0.00  0.00    -0.232 NA
ATOM     24  C   UNL     1       0.336   9.300  -3.571  0.00  0.00    +0.159 A 
ATOM     25  N   UNL     1       1.018   9.707  -4.689  0.00  0.00    -0.249 N 
ATOM     26  N   UNL     1       1.376   8.569  -5.421  0.00  0.00    -0.174 NA
ATOM     27  C   UNL     1       1.318  11.094  -5.055  0.00  0.00    +0.174 C 
BRANCH  22  28
ATOM     28  C   UNL     1      -1.440  10.113  -0.456  0.00  0.00    +0.032 C 
ATOM     29  C   UNL     1      -2.923  10.355  -0.747  0.00  0.00    +0.014 C 
ATOM     30  C   UNL     1      -1.297   9.339   0.856  0.00  0.00    +0.014 C 
ENDBRANCH  22  28
ENDBRANCH   1  20
TORSDOF 3
