REMARK  Name = ZINC19320705
REMARK  6 active torsions:
REMARK  status: ('A' for Active; 'I' for Inactive)
REMARK    1  A    between atoms: C_1  and  C_2
REMARK    2  A    between atoms: C_9  and  N_10
REMARK    3  A    between atoms: N_14  and  C_17
REMARK    4  A    between atoms: C_17  and  C_18
REMARK    5  A    between atoms: C_18  and  C_19
REMARK    6  A    between atoms: C_26  and  C_27
REMARK                            x       y       z     vdW  Elec       q    Type
REMARK                         _______ _______ _______ _____ _____    ______ ____
ROOT
ATOM      1  N   UNL     1       0.046  -0.144   4.706  0.00  0.00    -0.181 NA
ATOM      2  C   UNL     1       0.066  -0.823   5.835  0.00  0.00    +0.185 C 
ATOM      3  N   UNL     1       0.091  -2.204   5.860  0.00  0.00    -0.304 N 
ATOM      4  C   UNL     1      -0.748  -2.871   6.870  0.00  0.00    +0.193 C 
ATOM      5  N   UNL     1      -0.506  -2.239   8.176  0.00  0.00    -0.271 NA
ATOM      6  C   UNL     1      -0.777  -0.794   8.119  0.00  0.00    +0.193 C 
ATOM      7  N   UNL     1       0.068  -0.197   7.067  0.00  0.00    -0.304 N 
ATOM      8  H   UNL     1       0.600   0.598   7.230  0.00  0.00    +0.150 HD
ATOM      9  H   UNL     1       0.638  -2.712   5.241  0.00  0.00    +0.150 HD
ENDROOT
BRANCH   1  18
ATOM     10  C   UNL     1      -0.018   1.503   0.010  0.00  0.00    +0.046 C 
ATOM     11  C   UNL     1       0.002  -0.004   0.002  0.00  0.00    -0.024 A 
ATOM     12  C   UNL     1       0.006  -0.683  -1.179  0.00  0.00    +0.005 A 
ATOM     13  C   UNL     1       0.025  -2.075  -1.208  0.00  0.00    +0.001 A 
ATOM     14  C   UNL     1       0.040  -2.800  -0.054  0.00  0.00    +0.012 A 
ATOM     15  C   UNL     1       0.037  -2.135   1.180  0.00  0.00    +0.022 A 
ATOM     16  C   UNL     1       0.023  -0.716   1.210  0.00  0.00    +0.079 A 
ATOM     17  N   UNL     1       0.025  -0.097   2.396  0.00  0.00    -0.210 NA
ATOM     18  C   UNL     1       0.045  -0.803   3.517  0.00  0.00    +0.254 A 
ATOM     19  N   UNL     1       0.063  -2.140   3.522  0.00  0.00    -0.215 NA
ATOM     20  C   UNL     1       0.052  -2.833   2.404  0.00  0.00    +0.051 A 
ATOM     21  C   UNL     1       0.072  -4.339   2.431  0.00  0.00    +0.066 C 
ENDBRANCH   1  18
BRANCH   5  22
ATOM     22  C   UNL     1      -1.304  -2.883   9.228  0.00  0.00    +0.092 C 
BRANCH  22  23
ATOM     23  C   UNL     1      -0.849  -2.374  10.597  0.00  0.00    +0.050 C 
BRANCH  23  24
ATOM     24  C   UNL     1      -1.667  -3.035  11.676  0.00  0.00    -0.046 A 
ATOM     25  C   UNL     1      -2.846  -2.453  12.104  0.00  0.00    +0.003 A 
ATOM     26  C   UNL     1      -3.597  -3.059  13.094  0.00  0.00    +0.000 A 
ATOM     27  C   UNL     1      -3.170  -4.247  13.656  0.00  0.00    +0.000 A 
ATOM     28  C   UNL     1      -1.991  -4.830  13.228  0.00  0.00    +0.000 A 
ATOM     29  C   UNL     1      -1.242  -4.226  12.235  0.00  0.00    +0.003 A 
ENDBRANCH  23  24
ENDBRANCH  22  23
ENDBRANCH   5  22
TORSDOF 4
