REMARK  Name = ZINC44449407
REMARK  5 active torsions:
REMARK  status: ('A' for Active; 'I' for Inactive)
REMARK    1  A    between atoms: C_1  and  C_2
REMARK    2  A    between atoms: C_2  and  C_3
REMARK    3  A    between atoms: C_2  and  C_4
REMARK    4  A    between atoms: N_6  and  C_7
REMARK    5  A    between atoms: C_13  and  N_15
REMARK                            x       y       z     vdW  Elec       q    Type
REMARK                         _______ _______ _______ _____ _____    ______ ____
ROOT
ATOM      1  C   UNL     1       3.207  -0.247  -1.915  0.00  0.00    +0.094 C 
ATOM      2  C   UNL     1       3.776  -1.666  -1.839  0.00  0.00    +0.024 C 
ATOM      3  C   UNL     1       5.296  -1.616  -2.007  0.00  0.00    +0.002 C 
ATOM      4  C   UNL     1       5.638  -1.001  -3.366  0.00  0.00    +0.002 C 
ATOM      5  C   UNL     1       5.070   0.417  -3.442  0.00  0.00    +0.025 C 
ATOM      6  C   UNL     1       3.550   0.367  -3.274  0.00  0.00    +0.105 C 
ENDROOT
BRANCH   6   7
ATOM      7  N   UNL     1       3.005   1.725  -3.347  0.00  0.00    -0.228 N 
ATOM      8  C   UNL     1       2.027   1.962  -4.204  0.00  0.00    +0.233 C 
ATOM      9  O   UNL     1       1.572   1.099  -4.923  0.00  0.00    -0.274 OA
ATOM     10  C   UNL     1       1.511   3.394  -4.225  0.00  0.00    +0.175 C 
ATOM     11  S   UNL     1       2.599   4.139  -2.939  0.00  0.00    -0.058 S 
ATOM     12  C   UNL     1       3.524   2.664  -2.534  0.00  0.00    +0.281 C 
ATOM     13  O   UNL     1       4.415   2.540  -1.717  0.00  0.00    -0.262 OA
ENDBRANCH   6   7
BRANCH   1  16
ATOM     14  C   UNL     1       3.060   0.873   0.243  0.00  0.00    +0.216 C 
ATOM     15  O   UNL     1       1.917   0.479   0.337  0.00  0.00    -0.276 OA
ATOM     16  N   UNL     1       3.790   0.570  -0.849  0.00  0.00    -0.310 N 
ATOM     17  H   UNL     1       4.701   0.894  -0.928  0.00  0.00    +0.149 HD
BRANCH  14  19
ATOM     18  C   UNL     1       3.275   3.168   1.157  0.00  0.00    +0.017 C 
ATOM     19  C   UNL     1       3.665   1.701   1.348  0.00  0.00    +0.069 C 
ATOM     20  C   UNL     1       3.145   1.207   2.699  0.00  0.00    +0.017 C 
ENDBRANCH  14  19
ENDBRANCH   1  16
TORSDOF 3
