REMARK  Name = ZINC27549371
REMARK  9 active torsions:
REMARK  status: ('A' for Active; 'I' for Inactive)
REMARK    1  A    between atoms: C_1  and  C_2
REMARK    2  A    between atoms: C_2  and  O_3
REMARK    3  A    between atoms: O_3  and  C_4
REMARK    4  A    between atoms: C_6  and  C_19
REMARK    5  A    between atoms: C_9  and  O_10
REMARK    6  A    between atoms: O_10  and  C_11
REMARK    7  A    between atoms: C_11  and  C_12
REMARK    8  A    between atoms: C_29  and  C_31
REMARK    9  A    between atoms: C_31  and  C_32
REMARK                            x       y       z     vdW  Elec       q    Type
REMARK                         _______ _______ _______ _____ _____    ______ ____
ROOT
ATOM      1  C   UNL     1       0.608  -4.949  -0.018  0.00  0.00    +0.024 C 
ATOM      2  C   UNL     1       0.572  -6.146   0.660  0.00  0.00    +0.081 C 
ATOM      3  C   UNL     1       1.774  -7.020   0.774  0.00  0.00    +0.152 C 
ATOM      4  N   UNL     1       2.994  -6.557   0.842  0.00  0.00    -0.283 NA
ATOM      5  N   UNL     1       1.465  -8.397   0.801  0.00  0.00    -0.152 N 
ATOM      6  C   UNL     1       0.200  -8.757   1.213  0.00  0.00    +0.181 C 
ATOM      7  N   UNL     1      -0.803  -7.964   1.498  0.00  0.00    -0.152 NA
ATOM      8  C   UNL     1      -0.663  -6.633   1.323  0.00  0.00    +0.273 C 
ATOM      9  O   UNL     1      -1.526  -5.854   1.694  0.00  0.00    -0.268 OA
ATOM     10  S   UNL     1       0.302 -10.527   1.223  0.00  0.00    -0.038 S 
ATOM     11  C   UNL     1       1.968 -10.669   0.589  0.00  0.00    +0.104 C 
ATOM     12  N   UNL     1       2.322  -9.422   0.462  0.00  0.00    -0.169 NA
ATOM     13  H   UNL     1       3.742  -7.170   0.915  0.00  0.00    +0.188 HD
ENDROOT
BRANCH   1  16
ATOM     14  C   UNL     1      -1.809  -2.117  -0.446  0.00  0.00    +0.162 A 
ATOM     15  C   UNL     1      -0.637  -2.807  -0.214  0.00  0.00    +0.057 A 
ATOM     16  C   UNL     1      -0.633  -4.209  -0.263  0.00  0.00    -0.021 A 
ATOM     17  C   UNL     1      -1.819  -4.899  -0.547  0.00  0.00    +0.012 A 
ATOM     18  C   UNL     1      -2.983  -4.201  -0.777  0.00  0.00    +0.050 A 
ATOM     19  C   UNL     1      -2.987  -2.812  -0.723  0.00  0.00    +0.162 A 
BRANCH  14  20
ATOM     20  O   UNL     1      -1.817  -0.758  -0.399  0.00  0.00    -0.489 OA
BRANCH  20  22
ATOM     21  C   UNL     1      -0.782   1.405  -0.100  0.00  0.00    +0.048 C 
ATOM     22  C   UNL     1      -0.577  -0.111  -0.110  0.00  0.00    +0.226 C 
ENDBRANCH  20  22
ENDBRANCH  14  20
BRANCH  19  23
ATOM     23  O   UNL     1      -4.139  -2.130  -0.945  0.00  0.00    -0.484 OA
BRANCH  23  24
ATOM     24  C   UNL     1      -5.308  -2.903  -1.223  0.00  0.00    +0.264 C 
BRANCH  24  25
ATOM     25  C   UNL     1      -6.480  -1.982  -1.441  0.00  0.00    -0.010 A 
ATOM     26  C   UNL     1      -7.264  -1.597  -0.369  0.00  0.00    +0.010 A 
ATOM     27  C   UNL     1      -8.339  -0.751  -0.568  0.00  0.00    +0.039 A 
ATOM     28  C   UNL     1      -8.631  -0.289  -1.840  0.00  0.00    +0.123 A 
ATOM     29  C   UNL     1      -7.845  -0.676  -2.912  0.00  0.00    +0.039 A 
ATOM     30  C   UNL     1      -6.767  -1.517  -2.711  0.00  0.00    +0.010 A 
ATOM     31  F   UNL     1      -9.682   0.537  -2.035  0.00  0.00    -0.205 F 
ENDBRANCH  24  25
ENDBRANCH  23  24
ENDBRANCH  19  23
ENDBRANCH   1  16
BRANCH  11  32
ATOM     32  C   UNL     1       2.759 -11.913   0.280  0.00  0.00    +0.099 C 
BRANCH  32  33
ATOM     33  C   UNL     1       4.122 -11.527  -0.235  0.00  0.00    -0.041 A 
ATOM     34  C   UNL     1       4.321 -11.336  -1.589  0.00  0.00    +0.004 A 
ATOM     35  C   UNL     1       5.571 -10.982  -2.061  0.00  0.00    +0.000 A 
ATOM     36  C   UNL     1       6.622 -10.818  -1.179  0.00  0.00    +0.000 A 
ATOM     37  C   UNL     1       6.423 -11.008   0.176  0.00  0.00    +0.000 A 
ATOM     38  C   UNL     1       5.172 -11.358   0.648  0.00  0.00    +0.004 A 
ENDBRANCH  32  33
ENDBRANCH  11  32
TORSDOF 8
