REMARK  Name = ZINC39655957
REMARK  10 active torsions:
REMARK  status: ('A' for Active; 'I' for Inactive)
REMARK    1  A    between atoms: C_1  and  C_2
REMARK    2  A    between atoms: C_2  and  C_3
REMARK    3  A    between atoms: C_3  and  C_4
REMARK    4  A    between atoms: C_3  and  C_6
REMARK    5  A    between atoms: C_4  and  C_5
REMARK    6  A    between atoms: C_10  and  C_19
REMARK    7  A    between atoms: N_21  and  C_22
REMARK    8  A    between atoms: C_22  and  C_23
REMARK    9  A    between atoms: C_23  and  C_24
REMARK   10  A    between atoms: C_27  and  C_33
REMARK                            x       y       z     vdW  Elec       q    Type
REMARK                         _______ _______ _______ _____ _____    ______ ____
ROOT
ATOM      1  C   UNL     1       1.065  -2.353   0.749  0.00  0.00    +0.219 C 
ATOM      2  O   UNL     1       0.736  -3.163   1.589  0.00  0.00    -0.275 OA
ATOM      3  N   UNL     1       1.834  -2.734  -0.290  0.00  0.00    -0.300 N 
ATOM      4  C   UNL     1       2.339  -1.895  -1.402  0.00  0.00    +0.121 C 
ATOM      5  C   UNL     1       3.779  -2.399  -1.649  0.00  0.00    +0.100 C 
ATOM      6  C   UNL     1       3.788  -3.839  -1.109  0.00  0.00    -0.004 C 
ATOM      7  C   UNL     1       2.369  -4.087  -0.576  0.00  0.00    +0.115 C 
ATOM      8  C   UNL     1       4.112  -4.822  -2.230  0.00  0.00    -0.010 C 
ATOM      9  C   UNL     1       4.173  -6.240  -1.657  0.00  0.00    -0.082 C 
ATOM     10  N   UNL     1       5.201  -6.304  -0.611  0.00  0.00    +0.379 N 
ATOM     11  C   UNL     1       4.834  -5.425   0.506  0.00  0.00    -0.082 C 
ATOM     12  C   UNL     1       4.801  -3.971   0.025  0.00  0.00    -0.010 C 
ATOM     13  H   UNL     1       5.281  -7.253  -0.278  0.00  0.00    -0.086 HD
ATOM     14  H   UNL     1       6.087  -6.008  -0.993  0.00  0.00    -0.086 HD
ENDROOT
BRANCH   5  15
ATOM     15  C   UNL     1       4.769  -1.547  -0.896  0.00  0.00    +0.218 C 
ATOM     16  O   UNL     1       4.470  -1.080   0.182  0.00  0.00    -0.275 OA
ATOM     17  N   UNL     1       5.986  -1.306  -1.421  0.00  0.00    -0.315 N 
ATOM     18  H   UNL     1       6.225  -1.679  -2.284  0.00  0.00    +0.149 HD
BRANCH  17  19
ATOM     19  C   UNL     1       6.948  -0.478  -0.690  0.00  0.00    +0.109 C 
BRANCH  19  20
ATOM     20  C   UNL     1       8.241  -0.361  -1.501  0.00  0.00    +0.056 C 
BRANCH  20  21
ATOM     21  C   UNL     1       9.230   0.490  -0.748  0.00  0.00    -0.021 A 
ATOM     22  C   UNL     1      10.154   0.037   0.294  0.00  0.00    +0.003 A 
ATOM     23  C   UNL     1      10.415  -1.198   0.890  0.00  0.00    +0.013 A 
ATOM     24  C   UNL     1      11.369  -1.294   1.864  0.00  0.00    -0.050 A 
ATOM     25  C   UNL     1      12.080  -0.173   2.267  0.00  0.00    +0.005 A 
ATOM     26  C   UNL     1      11.839   1.056   1.692  0.00  0.00    +0.026 A 
ATOM     27  C   UNL     1      10.873   1.177   0.699  0.00  0.00    +0.047 A 
ATOM     28  N   UNL     1      10.411   2.236  -0.050  0.00  0.00    -0.360 N 
ATOM     29  C   UNL     1       9.437   1.807  -0.910  0.00  0.00    +0.087 A 
ATOM     30  C   UNL     1      11.650  -2.628   2.506  0.00  0.00    +0.044 C 
ATOM     31  H   UNL     1      10.730   3.149   0.019  0.00  0.00    +0.165 HD
ENDBRANCH  20  21
ENDBRANCH  19  20
ENDBRANCH  17  19
ENDBRANCH   5  15
BRANCH   1  32
ATOM     32  C   UNL     1       0.617  -0.919   0.868  0.00  0.00    +0.075 C 
BRANCH  32  34
ATOM     33  C   UNL     1      -0.550   0.951  -0.308  0.00  0.00    +0.004 C 
ATOM     34  C   UNL     1      -0.211  -0.540  -0.361  0.00  0.00    +0.009 C 
ENDBRANCH  32  34
BRANCH  32  35
ATOM     35  C   UNL     1      -0.236  -0.755   2.128  0.00  0.00    +0.009 C 
ATOM     36  C   UNL     1       0.635  -0.972   3.366  0.00  0.00    +0.004 C 
ENDBRANCH  32  35
ENDBRANCH   1  32
TORSDOF 7
