REMARK  Name = ZINC08835236
REMARK  7 active torsions:
REMARK  status: ('A' for Active; 'I' for Inactive)
REMARK    1  A    between atoms: C_3  and  N_14
REMARK    2  A    between atoms: C_6  and  C_7
REMARK    3  A    between atoms: C_10  and  C_12
REMARK    4  A    between atoms: C_12  and  O_13
REMARK    5  A    between atoms: N_14  and  C_15
REMARK    6  A    between atoms: C_15  and  N_17
REMARK    7  A    between atoms: C_18  and  C_20
REMARK                            x       y       z     vdW  Elec       q    Type
REMARK                         _______ _______ _______ _____ _____    ______ ____
ROOT
ATOM      1  C   UNL     1       0.292  10.822  -3.615  0.00  0.00    +0.141 C 
ATOM      2  S   UNL     1       0.285  11.050  -1.919  0.00  0.00    -0.018 S 
ENDROOT
BRANCH   1   3
ATOM      3  N   UNL     1       0.085  11.870  -4.437  0.00  0.00    -0.263 N 
ATOM      4  C   UNL     1      -0.126  13.097  -3.923  0.00  0.00    +0.258 C 
ATOM      5  O   UNL     1      -0.131  13.260  -2.717  0.00  0.00    -0.269 OA
ATOM      6  H   UNL     1       0.089  11.740  -5.398  0.00  0.00    +0.157 HD
BRANCH   4   7
ATOM      7  C   UNL     1      -0.351  14.238  -4.818  0.00  0.00    +0.094 A 
ATOM      8  C   UNL     1      -0.586  15.539  -4.491  0.00  0.00    +0.068 A 
ATOM      9  C   UNL     1      -0.774  16.494  -5.508  0.00  0.00    +0.008 A 
ATOM     10  C   UNL     1      -1.023  17.884  -5.371  0.00  0.00    +0.012 A 
ATOM     11  C   UNL     1      -1.187  18.671  -6.465  0.00  0.00    +0.021 A 
ATOM     12  C   UNL     1      -1.121  18.152  -7.753  0.00  0.00    +0.042 A 
ATOM     13  C   UNL     1      -0.881  16.803  -7.931  0.00  0.00    +0.035 A 
ATOM     14  C   UNL     1      -0.711  15.992  -6.830  0.00  0.00    +0.023 A 
ATOM     15  S   UNL     1      -0.393  14.261  -6.601  0.00  0.00    -0.082 S 
ATOM     16 CL   UNL     1      -1.336  19.191  -9.128  0.00  0.00    -0.084 Cl
ATOM     17 CL   UNL     1      -0.647  16.020  -2.824  0.00  0.00    -0.082 Cl
ENDBRANCH   4   7
ENDBRANCH   1   3
BRANCH   1  18
ATOM     18  N   UNL     1       0.504   9.594  -4.129  0.00  0.00    -0.297 N 
ATOM     19  H   UNL     1       0.568   9.475  -5.090  0.00  0.00    +0.154 HD
BRANCH  18  22
ATOM     20  C   UNL     1       1.556   7.495  -1.303  0.00  0.00    +0.013 A 
ATOM     21  C   UNL     1       1.434   8.578  -2.147  0.00  0.00    +0.024 A 
ATOM     22  C   UNL     1       0.630   8.492  -3.278  0.00  0.00    +0.033 A 
ATOM     23  C   UNL     1      -0.048   7.313  -3.564  0.00  0.00    +0.024 A 
ATOM     24  C   UNL     1       0.074   6.225  -2.727  0.00  0.00    +0.013 A 
ATOM     25  C   UNL     1       0.880   6.308  -1.591  0.00  0.00    +0.017 A 
BRANCH  25  26
ATOM     26  C   UNL     1       1.014   5.143  -0.691  0.00  0.00    +0.135 A 
ATOM     27  C   UNL     1       1.763   5.092   0.443  0.00  0.00    +0.050 A 
ATOM     28  C   UNL     1       1.598   3.800   0.981  0.00  0.00    +0.047 A 
ATOM     29  C   UNL     1       0.766   3.133   0.158  0.00  0.00    +0.131 A 
ATOM     30  O   UNL     1       0.419   3.946  -0.854  0.00  0.00    -0.457 OA
BRANCH  29  31
ATOM     31  C   UNL     1       0.305   1.710   0.339  0.00  0.00    +0.230 C 
BRANCH  31  32
ATOM     32  O   UNL     1      -0.896   1.693   1.113  0.00  0.00    -0.387 OA
ATOM     33  H   UNL     1      -1.250   0.807   1.270  0.00  0.00    +0.210 HD
ENDBRANCH  31  32
ENDBRANCH  29  31
ENDBRANCH  25  26
ENDBRANCH  18  22
ENDBRANCH   1  18
TORSDOF 7
