REMARK  Name = ZINC39687242
REMARK  9 active torsions:
REMARK  status: ('A' for Active; 'I' for Inactive)
REMARK    1  A    between atoms: C_1  and  C_2
REMARK    2  A    between atoms: C_2  and  C_3
REMARK    3  A    between atoms: C_3  and  C_4
REMARK    4  A    between atoms: C_4  and  C_5
REMARK    5  A    between atoms: C_9  and  C_18
REMARK    6  A    between atoms: N_20  and  C_21
REMARK    7  A    between atoms: C_21  and  C_23
REMARK    8  A    between atoms: C_21  and  C_30
REMARK    9  A    between atoms: C_23  and  C_24
REMARK                            x       y       z     vdW  Elec       q    Type
REMARK                         _______ _______ _______ _____ _____    ______ ____
ROOT
ATOM      1  C   UNL     1       1.750  -7.347   1.729  0.00  0.00    +0.219 C 
ATOM      2  O   UNL     1       0.614  -7.494   2.127  0.00  0.00    -0.275 OA
ATOM      3  N   UNL     1       2.439  -8.402   1.250  0.00  0.00    -0.303 N 
ATOM      4  H   UNL     1       3.347  -8.284   0.931  0.00  0.00    +0.149 HD
ENDROOT
BRANCH   1   9
ATOM      5  C   UNL     1       1.703  -2.451   2.163  0.00  0.00    +0.216 C 
ATOM      6  O   UNL     1       2.073  -1.659   3.003  0.00  0.00    -0.276 OA
ATOM      7  N   UNL     1       1.737  -3.773   2.421  0.00  0.00    -0.300 N 
ATOM      8  C   UNL     1       1.336  -4.884   1.525  0.00  0.00    +0.121 C 
ATOM      9  C   UNL     1       2.393  -5.984   1.771  0.00  0.00    +0.100 C 
ATOM     10  C   UNL     1       2.944  -5.692   3.177  0.00  0.00    -0.004 C 
ATOM     11  C   UNL     1       2.190  -4.446   3.662  0.00  0.00    +0.115 C 
ATOM     12  C   UNL     1       4.440  -5.402   3.108  0.00  0.00    -0.010 C 
ATOM     13  C   UNL     1       4.976  -5.171   4.524  0.00  0.00    -0.082 C 
ATOM     14  N   UNL     1       4.725  -6.362   5.344  0.00  0.00    +0.379 N 
ATOM     15  C   UNL     1       3.280  -6.580   5.482  0.00  0.00    -0.082 C 
ATOM     16  C   UNL     1       2.672  -6.870   4.107  0.00  0.00    -0.010 C 
ATOM     17  H   UNL     1       5.144  -7.167   4.904  0.00  0.00    -0.086 HD
ATOM     18  H   UNL     1       5.132  -6.231   6.258  0.00  0.00    -0.086 HD
BRANCH   5  19
ATOM     19  C   UNL     1       1.205  -1.956   0.829  0.00  0.00    +0.096 C 
BRANCH  19  20
ATOM     20  C   UNL     1       1.269  -0.427   0.796  0.00  0.00    +0.009 C 
BRANCH  20  22
ATOM     21  C   UNL     1       0.828   1.603  -0.591  0.00  0.00    +0.004 C 
ATOM     22  C   UNL     1       0.764   0.075  -0.558  0.00  0.00    -0.003 C 
ENDBRANCH  20  22
ENDBRANCH  19  20
ENDBRANCH   5  19
ENDBRANCH   1   9
BRANCH   3  23
ATOM     23  C   UNL     1       1.815  -9.727   1.209  0.00  0.00    +0.163 C 
BRANCH  23  24
ATOM     24  C   UNL     1       2.885 -10.787   1.238  0.00  0.00    +0.236 C 
ATOM     25  O   UNL     1       4.031 -10.499   0.968  0.00  0.00    -0.274 OA
ATOM     26  N   UNL     1       2.568 -12.056   1.565  0.00  0.00    -0.300 N 
ATOM     27  C   UNL     1       1.208 -12.398   2.002  0.00  0.00    +0.108 C 
ATOM     28  C   UNL     1       0.684 -13.545   1.132  0.00  0.00    +0.019 C 
ATOM     29  C   UNL     1       1.673 -14.712   1.184  0.00  0.00    +0.003 C 
ATOM     30  C   UNL     1       3.026 -14.261   0.626  0.00  0.00    +0.019 C 
ATOM     31  C   UNL     1       3.574 -13.123   1.485  0.00  0.00    +0.108 C 
ENDBRANCH  23  24
BRANCH  23  32
ATOM     32  C   UNL     1       0.994  -9.865  -0.075  0.00  0.00    +0.067 C 
BRANCH  32  33
ATOM     33  C   UNL     1      -0.168  -8.906  -0.034  0.00  0.00    -0.045 A 
ATOM     34  C   UNL     1      -1.374  -9.305   0.512  0.00  0.00    +0.004 A 
ATOM     35  C   UNL     1      -2.440  -8.426   0.549  0.00  0.00    +0.000 A 
ATOM     36  C   UNL     1      -2.300  -7.148   0.042  0.00  0.00    +0.000 A 
ATOM     37  C   UNL     1      -1.094  -6.749  -0.503  0.00  0.00    +0.000 A 
ATOM     38  C   UNL     1      -0.027  -7.627  -0.536  0.00  0.00    +0.004 A 
ENDBRANCH  32  33
ENDBRANCH  23  32
ENDBRANCH   3  23
TORSDOF 8
