REMARK  Name = ZINC58427321
REMARK  6 active torsions:
REMARK  status: ('A' for Active; 'I' for Inactive)
REMARK    1  A    between atoms: C_1  and  C_2
REMARK    2  A    between atoms: C_5  and  C_10
REMARK    3  A    between atoms: N_12  and  C_13
REMARK    4  A    between atoms: C_14  and  C_23
REMARK    5  A    between atoms: C_23  and  O_25
REMARK    6  A    between atoms: O_25  and  C_26
REMARK                            x       y       z     vdW  Elec       q    Type
REMARK                         _______ _______ _______ _____ _____    ______ ____
ROOT
ATOM      1  C   UNL     1       0.299  -6.265   1.185  0.00  0.00    +0.087 A 
ATOM      2  C   UNL     1       0.422  -7.105   2.281  0.00  0.00    +0.091 A 
ATOM      3  C   UNL     1       0.537  -8.534   2.019  0.00  0.00    -0.021 A 
ATOM      4  C   UNL     1       0.513  -8.853   0.708  0.00  0.00    -0.004 A 
ATOM      5  S   UNL     1       0.325  -7.306  -0.132  0.00  0.00    -0.077 S 
ATOM      6  C   UNL     1       0.627 -10.215   0.097  0.00  0.00    +0.043 C 
ATOM      7  C   UNL     1      -0.340 -11.170   0.809  0.00  0.00    +0.005 C 
ATOM      8  C   UNL     1       0.383 -11.799   1.996  0.00  0.00    +0.001 C 
ATOM      9  C   UNL     1       1.383 -10.808   2.591  0.00  0.00    +0.005 C 
ATOM     10  C   UNL     1       0.659  -9.575   3.122  0.00  0.00    +0.037 C 
ENDROOT
BRANCH   1  13
ATOM     11  C   UNL     1       0.059  -4.225   0.010  0.00  0.00    +0.254 C 
ATOM     12  O   UNL     1      -0.034  -4.845  -1.032  0.00  0.00    -0.270 OA
ATOM     13  N   UNL     1       0.176  -4.886   1.179  0.00  0.00    -0.275 N 
ATOM     14  H   UNL     1       0.174  -4.396   2.016  0.00  0.00    +0.156 HD
BRANCH  11  19
ATOM     15  C   UNL     1       0.002   1.503   0.008  0.00  0.00    +0.063 C 
ATOM     16  C   UNL     1       0.017  -0.004   0.001  0.00  0.00    +0.016 A 
ATOM     17  C   UNL     1       0.031  -0.664  -1.186  0.00  0.00    +0.022 A 
ATOM     18  C   UNL     1       0.045  -2.058  -1.211  0.00  0.00    +0.020 A 
ATOM     19  C   UNL     1       0.045  -2.755  -0.004  0.00  0.00    +0.101 A 
ATOM     20  C   UNL     1       0.031  -2.021   1.210  0.00  0.00    +0.261 A 
ATOM     21  O   UNL     1       0.030  -2.606   2.279  0.00  0.00    -0.267 OA
ATOM     22  N   UNL     1       0.022  -0.674   1.177  0.00  0.00    -0.326 N 
ATOM     23  H   UNL     1       0.016  -0.177   2.010  0.00  0.00    +0.169 HD
ENDBRANCH  11  19
ENDBRANCH   1  13
BRANCH   2  24
ATOM     24  C   UNL     1       0.436  -6.578   3.646  0.00  0.00    +0.342 C 
ATOM     25  O   UNL     1      -0.606  -6.452   4.261  0.00  0.00    -0.245 OA
BRANCH  24  26
ATOM     26  O   UNL     1       1.605  -6.232   4.223  0.00  0.00    -0.464 OA
ATOM     27  C   UNL     1       1.545  -5.725   5.558  0.00  0.00    +0.280 C 
ENDBRANCH  24  26
ENDBRANCH   2  24
TORSDOF 4
