REMARK  Name = ZINC63896826
REMARK  14 active torsions:
REMARK  status: ('A' for Active; 'I' for Inactive)
REMARK    1  A    between atoms: C_1  and  C_2
REMARK    2  A    between atoms: C_2  and  O_3
REMARK    3  A    between atoms: O_3  and  C_4
REMARK    4  A    between atoms: C_6  and  C_15
REMARK    5  A    between atoms: C_9  and  O_10
REMARK    6  A    between atoms: O_10  and  C_11
REMARK    7  A    between atoms: C_11  and  C_12
REMARK    8  A    between atoms: C_12  and  C_13
REMARK    9  A    between atoms: C_12  and  C_14
REMARK   10  A    between atoms: C_16  and  C_17
REMARK   11  A    between atoms: N_19  and  C_20
REMARK   12  A    between atoms: C_20  and  C_21
REMARK   13  A    between atoms: C_21  and  C_23
REMARK   14  A    between atoms: C_21  and  C_28
REMARK                            x       y       z     vdW  Elec       q    Type
REMARK                         _______ _______ _______ _____ _____    ______ ____
ROOT
ATOM      1  C   UNL     1      -0.661  -7.208   1.275  0.00  0.00    +0.237 C 
ATOM      2  O   UNL     1      -1.225  -6.761   2.257  0.00  0.00    -0.271 OA
ATOM      3  N   UNL     1      -0.553  -8.541   1.109  0.00  0.00    -0.311 N 
ATOM      4  H   UNL     1      -0.103  -8.897   0.327  0.00  0.00    +0.149 HD
ENDROOT
BRANCH   1   6
ATOM      5  C   UNL     1      -0.208  -4.963   0.443  0.00  0.00    +0.013 C 
ATOM      6  C   UNL     1      -0.100  -6.298   0.277  0.00  0.00    +0.068 C 
BRANCH   5   9
ATOM      7  C   UNL     1       0.777  -1.811  -1.336  0.00  0.00    +0.162 A 
ATOM      8  C   UNL     1       0.245  -2.664  -0.390  0.00  0.00    +0.057 A 
ATOM      9  C   UNL     1       0.356  -4.049  -0.561  0.00  0.00    -0.021 A 
ATOM     10  C   UNL     1       1.005  -4.561  -1.690  0.00  0.00    +0.012 A 
ATOM     11  C   UNL     1       1.533  -3.703  -2.629  0.00  0.00    +0.050 A 
ATOM     12  C   UNL     1       1.418  -2.329  -2.461  0.00  0.00    +0.162 A 
BRANCH   7  13
ATOM     13  O   UNL     1       0.671  -0.465  -1.174  0.00  0.00    -0.489 OA
BRANCH  13  15
ATOM     14  C   UNL     1      -0.019   1.526   0.010  0.00  0.00    +0.048 C 
ATOM     15  C   UNL     1       0.002  -0.004   0.002  0.00  0.00    +0.226 C 
ENDBRANCH  13  15
ENDBRANCH   7  13
BRANCH  12  16
ATOM     16  O   UNL     1       1.935  -1.487  -3.393  0.00  0.00    -0.488 OA
BRANCH  16  17
ATOM     17  C   UNL     1       2.578  -2.084  -4.521  0.00  0.00    +0.232 C 
BRANCH  17  18
ATOM     18  C   UNL     1       3.094  -0.987  -5.454  0.00  0.00    +0.020 C 
ATOM     19  C   UNL     1       4.186  -0.185  -4.744  0.00  0.00    +0.010 C 
ATOM     20  C   UNL     1       3.671  -1.624  -6.720  0.00  0.00    +0.010 C 
ENDBRANCH  17  18
ENDBRANCH  16  17
ENDBRANCH  12  16
ENDBRANCH   5   9
ENDBRANCH   1   6
BRANCH   3  21
ATOM     21  C   UNL     1      -1.115  -9.452   2.109  0.00  0.00    +0.117 C 
BRANCH  21  22
ATOM     22  C   UNL     1      -0.858 -10.898   1.683  0.00  0.00    +0.071 C 
BRANCH  22  23
ATOM     23  C   UNL     1      -1.541 -11.835   2.647  0.00  0.00    -0.032 C 
ATOM     24  C   UNL     1      -2.494 -12.748   2.355  0.00  0.00    -0.000 A 
ATOM     25  C   UNL     1      -3.157 -13.129   1.101  0.00  0.00    +0.010 A 
ATOM     26  C   UNL     1      -4.095 -14.102   1.124  0.00  0.00    +0.001 A 
ATOM     27  C   UNL     1      -4.451 -14.755   2.312  0.00  0.00    +0.002 A 
ATOM     28  C   UNL     1      -3.887 -14.461   3.503  0.00  0.00    +0.026 A 
ATOM     29  C   UNL     1      -2.888 -13.453   3.596  0.00  0.00    +0.043 A 
ATOM     30  N   UNL     1      -2.204 -12.993   4.615  0.00  0.00    -0.380 N 
ATOM     31  C   UNL     1      -1.294 -11.947   4.135  0.00  0.00    +0.145 C 
ATOM     32  H   UNL     1      -2.284 -13.296   5.533  0.00  0.00    +0.160 HD
ENDBRANCH  22  23
BRANCH  22  33
ATOM     33  C   UNL     1       0.625 -11.167   1.688  0.00  0.00    -0.002 A 
ATOM     34  C   UNL     1       1.427 -11.544   0.662  0.00  0.00    +0.012 A 
ATOM     35  C   UNL     1       2.775 -11.735   0.900  0.00  0.00    +0.008 A 
ATOM     36  C   UNL     1       3.255 -11.540   2.153  0.00  0.00    +0.045 A 
ATOM     37  S   UNL     1       1.782 -11.065   3.043  0.00  0.00    -0.101 S 
ENDBRANCH  22  33
ENDBRANCH  21  22
ENDBRANCH   3  21
TORSDOF 11
