REMARK  Name = ZINC39663663
REMARK  13 active torsions:
REMARK  status: ('A' for Active; 'I' for Inactive)
REMARK    1  A    between atoms: C_1  and  C_2
REMARK    2  A    between atoms: C_2  and  C_3
REMARK    3  A    between atoms: C_3  and  C_4
REMARK    4  A    between atoms: C_4  and  C_5
REMARK    5  A    between atoms: C_9  and  C_18
REMARK    6  A    between atoms: N_20  and  C_21
REMARK    7  A    between atoms: C_21  and  C_22
REMARK    8  A    between atoms: C_22  and  C_24
REMARK    9  A    between atoms: C_22  and  N_32
REMARK   10  A    between atoms: C_27  and  O_30
REMARK   11  A    between atoms: O_30  and  C_31
REMARK   12  A    between atoms: N_32  and  C_33
REMARK   13  A    between atoms: N_32  and  C_34
REMARK                            x       y       z     vdW  Elec       q    Type
REMARK                         _______ _______ _______ _____ _____    ______ ____
ROOT
ATOM      1  C   UNL     1      -3.080  -2.502   1.569  0.00  0.00    +0.216 C 
ATOM      2  O   UNL     1      -4.035  -1.792   1.804  0.00  0.00    -0.276 OA
ATOM      3  N   UNL     1      -3.252  -3.829   1.405  0.00  0.00    -0.300 N 
ATOM      4  C   UNL     1      -2.216  -4.850   1.121  0.00  0.00    +0.121 C 
ATOM      5  C   UNL     1      -2.630  -6.072   1.970  0.00  0.00    +0.100 C 
ATOM      6  C   UNL     1      -4.141  -5.901   2.194  0.00  0.00    -0.004 C 
ATOM      7  C   UNL     1      -4.518  -4.597   1.476  0.00  0.00    +0.115 C 
ATOM      8  C   UNL     1      -4.902  -7.077   1.588  0.00  0.00    -0.010 C 
ATOM      9  C   UNL     1      -6.397  -6.914   1.874  0.00  0.00    -0.082 C 
ATOM     10  N   UNL     1      -6.617  -6.858   3.325  0.00  0.00    +0.379 N 
ATOM     11  C   UNL     1      -5.959  -5.672   3.885  0.00  0.00    -0.082 C 
ATOM     12  C   UNL     1      -4.445  -5.783   3.684  0.00  0.00    -0.010 C 
ATOM     13  H   UNL     1      -7.607  -6.812   3.512  0.00  0.00    -0.086 HD
ATOM     14  H   UNL     1      -6.235  -7.688   3.754  0.00  0.00    -0.086 HD
ENDROOT
BRANCH   5  15
ATOM     15  C   UNL     1      -2.349  -7.350   1.222  0.00  0.00    +0.218 C 
ATOM     16  O   UNL     1      -2.409  -7.370   0.011  0.00  0.00    -0.275 OA
ATOM     17  N   UNL     1      -2.031  -8.471   1.899  0.00  0.00    -0.316 N 
ATOM     18  H   UNL     1      -1.982  -8.456   2.868  0.00  0.00    +0.149 HD
BRANCH  17  19
ATOM     19  C   UNL     1      -1.758  -9.714   1.172  0.00  0.00    +0.093 C 
BRANCH  19  20
ATOM     20  C   UNL     1      -1.546 -10.853   2.171  0.00  0.00    -0.021 C 
BRANCH  20  21
ATOM     21  C   UNL     1      -2.822 -11.094   2.936  0.00  0.00    -0.059 A 
ATOM     22  C   UNL     1      -3.840 -11.835   2.365  0.00  0.00    +0.005 A 
ATOM     23  C   UNL     1      -5.010 -12.056   3.065  0.00  0.00    +0.046 A 
ATOM     24  C   UNL     1      -5.164 -11.534   4.341  0.00  0.00    +0.120 A 
ATOM     25  C   UNL     1      -4.141 -10.791   4.912  0.00  0.00    +0.046 A 
ATOM     26  C   UNL     1      -2.970 -10.577   4.210  0.00  0.00    +0.005 A 
BRANCH  24  27
ATOM     27  O   UNL     1      -6.314 -11.750   5.031  0.00  0.00    -0.495 OA
ATOM     28  C   UNL     1      -6.402 -11.183   6.340  0.00  0.00    +0.277 C 
ENDBRANCH  24  27
ENDBRANCH  20  21
BRANCH  20  29
ATOM     29  N   UNL     1      -1.172 -12.075   1.447  0.00  0.00    +0.382 N 
ATOM     30  C   UNL     1       0.094 -11.854   0.734  0.00  0.00    -0.096 C 
ATOM     31  C   UNL     1      -1.010 -13.180   2.402  0.00  0.00    -0.096 C 
ATOM     32  H   UNL     1      -1.895 -12.308   0.783  0.00  0.00    -0.082 HD
ENDBRANCH  20  29
ENDBRANCH  19  20
ENDBRANCH  17  19
ENDBRANCH   5  15
BRANCH   1  33
ATOM     33  C   UNL     1      -1.703  -1.901   1.459  0.00  0.00    +0.096 C 
BRANCH  33  34
ATOM     34  C   UNL     1      -1.787  -0.390   1.684  0.00  0.00    +0.009 C 
BRANCH  34  36
ATOM     35  C   UNL     1      -0.472   1.732   1.798  0.00  0.00    +0.004 C 
ATOM     36  C   UNL     1      -0.388   0.221   1.573  0.00  0.00    -0.003 C 
ENDBRANCH  34  36
ENDBRANCH  33  34
ENDBRANCH   1  33
TORSDOF 9
