REMARK  Name = ZINC42081127
REMARK  4 active torsions:
REMARK  status: ('A' for Active; 'I' for Inactive)
REMARK    1  A    between atoms: C_1  and  C_2
REMARK    2  A    between atoms: C_2  and  C_3
REMARK    3  A    between atoms: C_9  and  N_11
REMARK    4  A    between atoms: N_11  and  C_12
REMARK                            x       y       z     vdW  Elec       q    Type
REMARK                         _______ _______ _______ _____ _____    ______ ____
ROOT
ATOM      1  C   UNL     1      -0.853  -3.899   1.183  0.00  0.00    +0.049 C 
ATOM      2  C   UNL     1      -0.410  -4.287  -0.209  0.00  0.00    -0.030 A 
ATOM      3  C   UNL     1       0.783  -4.154  -0.883  0.00  0.00    +0.004 A 
ATOM      4  C   UNL     1       0.896  -4.613  -2.184  0.00  0.00    +0.001 A 
ATOM      5  C   UNL     1      -0.191  -5.203  -2.803  0.00  0.00    +0.017 A 
ATOM      6  C   UNL     1      -1.389  -5.336  -2.130  0.00  0.00    +0.039 A 
ATOM      7  C   UNL     1      -1.510  -4.877  -0.819  0.00  0.00    +0.049 A 
ATOM      8  N   UNL     1      -2.595  -4.896   0.058  0.00  0.00    -0.285 N 
ATOM      9  C   UNL     1      -2.297  -4.346   1.251  0.00  0.00    +0.208 C 
ATOM     10  O   UNL     1      -3.044  -4.229   2.200  0.00  0.00    -0.277 OA
ATOM     11 BR   UNL     1      -2.868  -6.144  -2.987  0.00  0.00    -0.048 Br
ATOM     12  H   UNL     1      -3.464  -5.264  -0.165  0.00  0.00    +0.155 HD
ENDROOT
BRANCH   1  13
ATOM     13  N   UNL     1      -0.754  -2.446   1.369  0.00  0.00    +0.391 N 
ATOM     14  H   UNL     1      -1.227  -2.183   2.220  0.00  0.00    -0.084 HD
ATOM     15  H   UNL     1      -1.185  -1.976   0.586  0.00  0.00    -0.084 HD
BRANCH  13  21
ATOM     16  C   UNL     1       0.767  -0.533   1.530  0.00  0.00    -0.025 C 
ATOM     17  C   UNL     1       2.240  -0.129   1.619  0.00  0.00    +0.002 C 
ATOM     18  C   UNL     1       2.864  -0.748   2.871  0.00  0.00    +0.000 C 
ATOM     19  C   UNL     1       2.757  -2.272   2.795  0.00  0.00    -0.002 C 
ATOM     20  C   UNL     1       1.284  -2.676   2.706  0.00  0.00    -0.015 C 
ATOM     21  C   UNL     1       0.660  -2.058   1.454  0.00  0.00    -0.067 C 
BRANCH  16  23
ATOM     22  C   UNL     1       0.137   1.610   0.410  0.00  0.00    +0.004 C 
ATOM     23  C   UNL     1       0.143   0.085   0.278  0.00  0.00    -0.002 C 
ENDBRANCH  16  23
ENDBRANCH  13  21
ENDBRANCH   1  13
TORSDOF 3
