REMARK  Name = ZINC54211480
REMARK  5 active torsions:
REMARK  status: ('A' for Active; 'I' for Inactive)
REMARK    1  A    between atoms: C_2  and  C_3
REMARK    2  A    between atoms: C_3  and  N_4
REMARK    3  A    between atoms: C_5  and  C_7
REMARK    4  A    between atoms: C_7  and  N_8
REMARK    5  A    between atoms: C_12  and  C_15
REMARK                            x       y       z     vdW  Elec       q    Type
REMARK                         _______ _______ _______ _____ _____    ______ ____
ROOT
ATOM      1  N   UNL     1       2.979   5.294   0.008  0.00  0.00    +0.386 N 
ATOM      2  C   UNL     1       2.393   5.768   1.268  0.00  0.00    -0.078 C 
ATOM      3  C   UNL     1       2.295   7.295   1.246  0.00  0.00    -0.018 C 
ATOM      4  C   UNL     1       3.697   7.888   1.079  0.00  0.00    +0.009 C 
ATOM      5  C   UNL     1       4.328   7.329  -0.199  0.00  0.00    +0.059 C 
ATOM      6  C   UNL     1       4.350   5.801  -0.125  0.00  0.00    -0.065 C 
ATOM      7  H   UNL     1       2.422   5.626  -0.765  0.00  0.00    -0.081 HD
ENDROOT
BRANCH   5   8
ATOM      8  C   UNL     1       5.736   7.848  -0.334  0.00  0.00    +0.220 C 
ATOM      9  O   UNL     1       6.667   7.072  -0.370  0.00  0.00    -0.275 OA
ATOM     10  N   UNL     1       5.961   9.175  -0.413  0.00  0.00    -0.270 N 
ATOM     11  C   UNL     1       7.268   9.660  -0.431  0.00  0.00    +0.125 A 
ATOM     12  C   UNL     1       7.493  11.032  -0.407  0.00  0.00    +0.045 A 
ATOM     13  C   UNL     1       8.795  11.501  -0.424  0.00  0.00    +0.020 A 
ATOM     14  C   UNL     1       9.831  10.577  -0.465  0.00  0.00    +0.036 A 
ATOM     15  C   UNL     1       9.534   9.228  -0.488  0.00  0.00    +0.128 A 
ATOM     16  N   UNL     1       8.283   8.811  -0.465  0.00  0.00    -0.239 NA
ATOM     17 BR   UNL     1      11.630  11.160  -0.491  0.00  0.00    -0.049 Br
ATOM     18  H   UNL     1       5.214   9.791  -0.459  0.00  0.00    +0.156 HD
ENDBRANCH   5   8
BRANCH   1  19
ATOM     19  C   UNL     1       2.999   3.825   0.001  0.00  0.00    +0.019 C 
BRANCH  19  21
ATOM     20  N   UNL     1       1.356   1.976   0.010  0.00  0.00    -0.306 N 
ATOM     21  C   UNL     1       1.585   3.304   0.014  0.00  0.00    +0.197 C 
ATOM     22  O   UNL     1       0.652   4.079   0.028  0.00  0.00    -0.278 OA
ATOM     23  H   UNL     1       2.102   1.355  -0.000  0.00  0.00    +0.150 HD
BRANCH  20  24
ATOM     24  C   UNL     1      -0.018   1.469   0.023  0.00  0.00    +0.193 C 
BRANCH  24  26
ATOM     25  C   UNL     1       0.018  -1.177   0.010  0.00  0.00    +0.005 C 
ATOM     26  C   UNL     1       0.002  -0.003   0.016  0.00  0.00    -0.087 C 
ENDBRANCH  24  26
ENDBRANCH  20  24
ENDBRANCH  19  21
ENDBRANCH   1  19
TORSDOF 5
