REMARK  Name = ZINC04376843
REMARK  4 active torsions:
REMARK  status: ('A' for Active; 'I' for Inactive)
REMARK    1  A    between atoms: C_4  and  C_7
REMARK    2  A    between atoms: C_7  and  S_8
REMARK    3  A    between atoms: S_8  and  C_9
REMARK    4  A    between atoms: C_15  and  C_18
REMARK                            x       y       z     vdW  Elec       q    Type
REMARK                         _______ _______ _______ _____ _____    ______ ____
ROOT
ATOM      1  C   UNL     1       5.754  -1.850  -1.609  0.00  0.00    +0.213 A 
ATOM      2  N   UNL     1       6.357  -2.180  -0.487  0.00  0.00    -0.120 NA
ATOM      3  N   UNL     1       7.456  -2.800  -0.738  0.00  0.00    -0.127 NA
ATOM      4  C   UNL     1       7.624  -2.895  -2.044  0.00  0.00    +0.179 A 
ATOM      5  N   UNL     1       6.534  -2.286  -2.633  0.00  0.00    -0.187 N 
ATOM      6  N   UNL     1       6.430  -2.229  -4.024  0.00  0.00    -0.162 NA
ATOM      7  C   UNL     1       7.368  -2.753  -4.784  0.00  0.00    +0.098 A 
ATOM      8  C   UNL     1       8.497  -3.384  -4.211  0.00  0.00    +0.034 A 
ATOM      9  C   UNL     1       8.626  -3.455  -2.861  0.00  0.00    +0.052 A 
ENDROOT
BRANCH   7  10
ATOM     10  C   UNL     1       7.240  -2.682  -6.254  0.00  0.00    +0.039 A 
ATOM     11  C   UNL     1       6.238  -2.129  -7.008  0.00  0.00    +0.018 A 
ATOM     12  C   UNL     1       6.338  -2.180  -8.380  0.00  0.00    +0.008 A 
ATOM     13  C   UNL     1       7.416  -2.783  -8.944  0.00  0.00    +0.046 A 
ATOM     14  S   UNL     1       8.346  -3.302  -7.511  0.00  0.00    -0.095 S 
ENDBRANCH   7  10
BRANCH   1  15
ATOM     15  S   UNL     1       4.221  -0.993  -1.756  0.00  0.00    -0.080 S 
BRANCH  15  16
ATOM     16  C   UNL     1       3.711  -0.707  -0.039  0.00  0.00    +0.112 C 
BRANCH  16  20
ATOM     17  C   UNL     1      -0.017   1.378   0.010  0.00  0.00    +0.000 A 
ATOM     18  C   UNL     1       1.171   2.086   0.002  0.00  0.00    +0.000 A 
ATOM     19  C   UNL     1       2.377   1.411  -0.014  0.00  0.00    +0.004 A 
ATOM     20  C   UNL     1       2.396   0.029  -0.022  0.00  0.00    -0.037 A 
ATOM     21  C   UNL     1       1.208  -0.679  -0.014  0.00  0.00    +0.004 A 
ATOM     22  C   UNL     1       0.002  -0.004   0.002  0.00  0.00    +0.000 A 
ENDBRANCH  16  20
ENDBRANCH  15  16
ENDBRANCH   1  15
TORSDOF 4
