REMARK  Name = ZINC39675782
REMARK  11 active torsions:
REMARK  status: ('A' for Active; 'I' for Inactive)
REMARK    1  A    between atoms: C_1  and  N_2
REMARK    2  A    between atoms: N_2  and  C_3
REMARK    3  A    between atoms: N_2  and  C_4
REMARK    4  A    between atoms: C_4  and  C_6
REMARK    5  A    between atoms: C_4  and  C_27
REMARK    6  A    between atoms: C_6  and  N_7
REMARK    7  A    between atoms: C_8  and  C_10
REMARK    8  A    between atoms: C_21  and  C_23
REMARK    9  A    between atoms: C_23  and  C_24
REMARK   10  A    between atoms: C_24  and  S_25
REMARK   11  A    between atoms: S_25  and  C_26
REMARK                            x       y       z     vdW  Elec       q    Type
REMARK                         _______ _______ _______ _____ _____    ______ ____
ROOT
ATOM      1  C   UNL     1      -2.446   3.743  -2.908  0.00  0.00    +0.100 C 
ATOM      2  C   UNL     1      -3.032   4.521  -1.709  0.00  0.00    +0.121 C 
ATOM      3  N   UNL     1      -3.754   5.662  -2.319  0.00  0.00    -0.300 N 
ATOM      4  C   UNL     1      -4.396   5.089  -3.526  0.00  0.00    +0.115 C 
ATOM      5  C   UNL     1      -3.345   4.118  -4.099  0.00  0.00    -0.004 C 
ATOM      6  C   UNL     1      -4.026   2.873  -4.659  0.00  0.00    -0.010 C 
ATOM      7  C   UNL     1      -4.868   3.262  -5.877  0.00  0.00    -0.082 C 
ATOM      8  N   UNL     1      -4.005   3.871  -6.896  0.00  0.00    +0.379 N 
ATOM      9  C   UNL     1      -3.427   5.118  -6.381  0.00  0.00    -0.082 C 
ATOM     10  C   UNL     1      -2.524   4.808  -5.184  0.00  0.00    -0.010 C 
ATOM     11  C   UNL     1      -3.813   6.934  -1.877  0.00  0.00    +0.216 C 
ATOM     12  O   UNL     1      -4.452   7.761  -2.493  0.00  0.00    -0.276 OA
ATOM     13  H   UNL     1      -3.263   3.231  -7.134  0.00  0.00    -0.086 HD
ATOM     14  H   UNL     1      -4.551   4.071  -7.721  0.00  0.00    -0.086 HD
ENDROOT
BRANCH   1  16
ATOM     15  N   UNL     1      -1.591   1.442  -3.207  0.00  0.00    -0.316 N 
ATOM     16  C   UNL     1      -2.506   2.260  -2.652  0.00  0.00    +0.218 C 
ATOM     17  O   UNL     1      -3.379   1.802  -1.945  0.00  0.00    -0.275 OA
ATOM     18  H   UNL     1      -0.893   1.808  -3.773  0.00  0.00    +0.149 HD
BRANCH  15  19
ATOM     19  C   UNL     1      -1.650  -0.001  -2.958  0.00  0.00    +0.093 C 
BRANCH  19  20
ATOM     20  C   UNL     1      -0.575  -0.706  -3.788  0.00  0.00    -0.021 C 
BRANCH  20  21
ATOM     21  C   UNL     1       0.789  -0.263  -3.325  0.00  0.00    -0.059 A 
ATOM     22  C   UNL     1       1.351  -0.824  -2.193  0.00  0.00    +0.002 A 
ATOM     23  C   UNL     1       2.602  -0.418  -1.769  0.00  0.00    +0.000 A 
ATOM     24  C   UNL     1       3.291   0.549  -2.476  0.00  0.00    +0.000 A 
ATOM     25  C   UNL     1       2.730   1.110  -3.608  0.00  0.00    +0.000 A 
ATOM     26  C   UNL     1       1.480   0.701  -4.035  0.00  0.00    +0.002 A 
ENDBRANCH  20  21
BRANCH  20  28
ATOM     27  C   UNL     1      -2.031  -2.592  -4.069  0.00  0.00    -0.096 C 
ATOM     28  N   UNL     1      -0.702  -2.160  -3.618  0.00  0.00    +0.382 N 
ATOM     29  C   UNL     1       0.330  -2.837  -4.416  0.00  0.00    -0.096 C 
ATOM     30  H   UNL     1      -0.583  -2.397  -2.645  0.00  0.00    -0.082 HD
ENDBRANCH  20  28
ENDBRANCH  19  20
ENDBRANCH  15  19
ENDBRANCH   1  16
BRANCH  11  31
ATOM     31  C   UNL     1      -3.086   7.329  -0.618  0.00  0.00    +0.106 C 
BRANCH  31  32
ATOM     32  C   UNL     1      -3.315   8.816  -0.342  0.00  0.00    +0.078 C 
BRANCH  32  33
ATOM     33  S   UNL     1      -2.439   9.291   1.174  0.00  0.00    -0.164 S 
ATOM     34  C   UNL     1      -2.807  11.058   1.358  0.00  0.00    +0.084 C 
ENDBRANCH  32  33
ENDBRANCH  31  32
ENDBRANCH  11  31
TORSDOF 8
