REMARK  Name = ZINC39532247
REMARK  7 active torsions:
REMARK  status: ('A' for Active; 'I' for Inactive)
REMARK    1  A    between atoms: C_1  and  C_2
REMARK    2  A    between atoms: C_2  and  C_3
REMARK    3  A    between atoms: C_6  and  C_9
REMARK    4  A    between atoms: C_9  and  C_11
REMARK    5  A    between atoms: C_9  and  N_14
REMARK    6  A    between atoms: C_11  and  N_12
REMARK    7  A    between atoms: C_18  and  O_21
REMARK                            x       y       z     vdW  Elec       q    Type
REMARK                         _______ _______ _______ _____ _____    ______ ____
ROOT
ATOM      1  C   UNL     1       2.707  -1.868  -4.752  0.00  0.00    +0.101 C 
ENDROOT
BRANCH   1   2
ATOM      2  N   UNL     1       3.811  -2.774  -4.410  0.00  0.00    -0.295 NA
ATOM      3  C   UNL     1       5.012  -2.019  -4.026  0.00  0.00    +0.066 C 
ATOM      4  C   UNL     1       6.118  -2.997  -3.621  0.00  0.00    -0.063 C 
ATOM      5  N   UNL     1       6.419  -3.889  -4.748  0.00  0.00    +0.398 N 
ATOM      6  C   UNL     1       5.217  -4.654  -5.105  0.00  0.00    +0.073 C 
ATOM      7  C   UNL     1       4.104  -3.690  -5.522  0.00  0.00    +0.096 C 
ATOM      8  H   UNL     1       6.716  -3.341  -5.541  0.00  0.00    -0.082 HD
ATOM      9  H   UNL     1       7.157  -4.526  -4.485  0.00  0.00    -0.082 HD
BRANCH   6  10
ATOM     10  O   UNL     1       5.517  -5.534  -6.190  0.00  0.00    -0.409 OA
ATOM     11  H   UNL     1       6.215  -6.174  -5.997  0.00  0.00    +0.207 HD
ENDBRANCH   6  10
ENDBRANCH   1   2
BRANCH   1  15
ATOM     12  C   UNL     1       1.034  -0.249  -1.171  0.00  0.00    -0.048 A 
ATOM     13  C   UNL     1       0.426  -0.006  -2.389  0.00  0.00    +0.004 A 
ATOM     14  C   UNL     1       0.968  -0.530  -3.548  0.00  0.00    +0.005 A 
ATOM     15  C   UNL     1       2.117  -1.296  -3.489  0.00  0.00    -0.029 A 
ATOM     16  C   UNL     1       2.725  -1.538  -2.271  0.00  0.00    +0.005 A 
ATOM     17  C   UNL     1       2.186  -1.011  -1.113  0.00  0.00    +0.004 A 
BRANCH  12  19
ATOM     18  C   UNL     1       1.040   1.707   0.354  0.00  0.00    +0.009 C 
ATOM     19  C   UNL     1       0.443   0.322   0.093  0.00  0.00    +0.032 C 
ENDBRANCH  12  19
ENDBRANCH   1  15
BRANCH   1  20
ATOM     20  C   UNL     1       3.233  -0.731  -5.630  0.00  0.00    +0.115 C 
BRANCH  20  21
ATOM     21  N   UNL     1       3.838  -1.290  -6.846  0.00  0.00    -0.259 NA
ATOM     22  I   UNL     1       4.561   0.197  -8.058  0.00  0.00    +0.018 I 
ATOM     23  H   UNL     1       3.181  -1.873  -7.341  0.00  0.00    +0.134 HD
ENDBRANCH  20  21
ENDBRANCH   1  20
TORSDOF 6
