REMARK  Name = ZINC03419085
REMARK  14 active torsions:
REMARK  status: ('A' for Active; 'I' for Inactive)
REMARK    1  A    between atoms: C_1  and  N_2
REMARK    2  A    between atoms: N_2  and  C_3
REMARK    3  A    between atoms: N_2  and  C_4
REMARK    4  A    between atoms: C_4  and  C_6
REMARK    5  A    between atoms: C_4  and  C_31
REMARK    6  A    between atoms: C_6  and  N_7
REMARK    7  A    between atoms: N_7  and  C_8
REMARK    8  A    between atoms: N_18  and  C_21
REMARK    9  A    between atoms: C_24  and  O_29
REMARK   10  A    between atoms: C_25  and  O_27
REMARK   11  A    between atoms: O_27  and  C_28
REMARK   12  A    between atoms: O_29  and  C_30
REMARK   13  A    between atoms: C_34  and  O_37
REMARK   14  A    between atoms: O_37  and  C_38
REMARK                            x       y       z     vdW  Elec       q    Type
REMARK                         _______ _______ _______ _____ _____    ______ ____
ROOT
ATOM      1  C   UNL     1       4.565   0.493   0.581  0.00  0.00    +0.081 C 
ATOM      2  C   UNL     1       3.344   0.320   1.196  0.00  0.00    +0.059 C 
ATOM      3  C   UNL     1       2.598   1.473   1.743  0.00  0.00    +0.000 A 
ATOM      4  C   UNL     1       3.092   2.769   1.662  0.00  0.00    +0.009 A 
ATOM      5  C   UNL     1       2.358   3.812   2.189  0.00  0.00    +0.001 A 
ATOM      6  C   UNL     1       1.134   3.575   2.797  0.00  0.00    +0.001 A 
ATOM      7  C   UNL     1       0.628   2.297   2.887  0.00  0.00    +0.014 A 
ATOM      8  C   UNL     1       1.354   1.228   2.360  0.00  0.00    +0.046 A 
ATOM      9  C   UNL     1       0.852  -0.149   2.435  0.00  0.00    +0.258 C 
ATOM     10  O   UNL     1      -0.221  -0.367   2.967  0.00  0.00    -0.269 OA
ATOM     11  N   UNL     1       1.556  -1.174   1.927  0.00  0.00    -0.202 N 
ATOM     12  C   UNL     1       2.746  -1.013   1.326  0.00  0.00    +0.259 C 
ATOM     13  O   UNL     1       3.335  -1.984   0.886  0.00  0.00    -0.269 OA
ENDROOT
BRANCH  11  14
ATOM     14  C   UNL     1       1.025  -2.468   2.028  0.00  0.00    +0.048 A 
ATOM     15  C   UNL     1       0.888  -3.066   3.273  0.00  0.00    +0.028 A 
ATOM     16  C   UNL     1       0.365  -4.341   3.374  0.00  0.00    +0.051 A 
ATOM     17  C   UNL     1      -0.023  -5.025   2.233  0.00  0.00    +0.162 A 
ATOM     18  C   UNL     1       0.113  -4.428   0.984  0.00  0.00    +0.163 A 
ATOM     19  C   UNL     1       0.632  -3.148   0.883  0.00  0.00    +0.073 A 
BRANCH  18  20
ATOM     20  O   UNL     1      -0.268  -5.098  -0.136  0.00  0.00    -0.491 OA
ATOM     21  C   UNL     1      -0.100  -4.423  -1.385  0.00  0.00    +0.277 C 
ENDBRANCH  18  20
BRANCH  17  22
ATOM     22  O   UNL     1      -0.538  -6.280   2.335  0.00  0.00    -0.491 OA
ATOM     23  C   UNL     1      -0.650  -6.832   3.648  0.00  0.00    +0.277 C 
ENDBRANCH  17  22
ENDBRANCH  11  14
BRANCH   1  24
ATOM     24  N   UNL     1       4.857   1.670  -0.031  0.00  0.00    -0.350 N 
ATOM     25  H   UNL     1       4.081   2.443  -0.136  0.00  0.00    +0.145 HD
BRANCH  24  26
ATOM     26  C   UNL     1       6.205   1.910  -0.551  0.00  0.00    +0.090 C 
BRANCH  26  27
ATOM     27  C   UNL     1       6.224   3.227  -1.331  0.00  0.00    -0.021 C 
BRANCH  27  28
ATOM     28  C   UNL     1       7.641   3.561  -1.718  0.00  0.00    -0.059 A 
ATOM     29  C   UNL     1       8.183   3.033  -2.876  0.00  0.00    +0.005 A 
ATOM     30  C   UNL     1       9.480   3.343  -3.236  0.00  0.00    +0.046 A 
ATOM     31  C   UNL     1      10.243   4.175  -2.430  0.00  0.00    +0.120 A 
ATOM     32  C   UNL     1       9.700   4.698  -1.266  0.00  0.00    +0.046 A 
ATOM     33  C   UNL     1       8.400   4.390  -0.913  0.00  0.00    +0.005 A 
BRANCH  31  34
ATOM     34  O   UNL     1      11.522   4.476  -2.780  0.00  0.00    -0.495 OA
ATOM     35  C   UNL     1      12.016   3.901  -3.991  0.00  0.00    +0.277 C 
ENDBRANCH  31  34
ENDBRANCH  27  28
BRANCH  27  37
ATOM     36  C   UNL     1       5.438   1.712  -3.048  0.00  0.00    -0.096 C 
ATOM     37  N   UNL     1       5.404   3.090  -2.542  0.00  0.00    +0.382 N 
ATOM     38  C   UNL     1       4.024   3.527  -2.296  0.00  0.00    -0.096 C 
ATOM     39  H   UNL     1       5.833   3.745  -3.316  0.00  0.00    -0.082 HD
ENDBRANCH  27  37
ENDBRANCH  26  27
ENDBRANCH  24  26
ENDBRANCH   1  24
TORSDOF 9
