REMARK  Name = ZINC61888287
REMARK  4 active torsions:
REMARK  status: ('A' for Active; 'I' for Inactive)
REMARK    1  A    between atoms: C_3  and  C_11
REMARK    2  A    between atoms: C_6  and  N_7
REMARK    3  A    between atoms: N_13  and  C_14
REMARK    4  A    between atoms: C_19  and  C_21
REMARK                            x       y       z     vdW  Elec       q    Type
REMARK                         _______ _______ _______ _____ _____    ______ ____
ROOT
ATOM      1  C   UNL     1       3.655   2.165  -0.022  0.00  0.00    +0.247 C 
ATOM      2  O   UNL     1       4.715   1.570  -0.035  0.00  0.00    -0.270 OA
ATOM      3  N   UNL     1       3.638   3.513  -0.015  0.00  0.00    -0.307 N 
ATOM      4  H   UNL     1       2.792   3.987  -0.004  0.00  0.00    +0.149 HD
ENDROOT
BRANCH   1   7
ATOM      5  C   UNL     1      -0.017   1.380   0.010  0.00  0.00    +0.033 A 
ATOM      6  C   UNL     1       1.165   2.090   0.002  0.00  0.00    +0.018 A 
ATOM      7  C   UNL     1       2.385   1.411  -0.013  0.00  0.00    +0.072 A 
ATOM      8  C   UNL     1       2.398   0.012  -0.021  0.00  0.00    +0.138 A 
ATOM      9  C   UNL     1       1.204  -0.686  -0.013  0.00  0.00    +0.071 A 
ATOM     10  C   UNL     1       0.002  -0.004   0.002  0.00  0.00    +0.129 A 
ATOM     11  F   UNL     1       3.573  -0.654  -0.036  0.00  0.00    -0.205 F 
BRANCH  10  12
ATOM     12  N   UNL     1      -1.272  -0.758   0.010  0.00  0.00    +0.057 N 
ATOM     13  O   UNL     1      -2.325  -0.165   0.023  0.00  0.00    -0.126 OA
ATOM     14  O   UNL     1      -1.259  -1.967   0.004  0.00  0.00    -0.126 OA
ENDBRANCH  10  12
ENDBRANCH   1   7
BRANCH   3  15
ATOM     15  C   UNL     1       4.898   4.261  -0.023  0.00  0.00    +0.090 C 
ATOM     16  C   UNL     1       5.404   4.460   1.420  0.00  0.00    +0.023 C 
ATOM     17  C   UNL     1       6.019   5.881   1.414  0.00  0.00    +0.003 C 
ATOM     18  C   UNL     1       5.049   6.670   0.501  0.00  0.00    +0.020 C 
ATOM     19  C   UNL     1       4.672   5.665  -0.609  0.00  0.00    +0.112 C 
BRANCH  19  20
ATOM     20  C   UNL     1       3.259   5.835  -0.985  0.00  0.00    +0.068 C 
ATOM     21  N   UNL     1       2.168   5.965  -1.274  0.00  0.00    -0.196 NA
ENDBRANCH  19  20
ENDBRANCH   3  15
TORSDOF 4
