REMARK  Name = ZINC39431514
REMARK  7 active torsions:
REMARK  status: ('A' for Active; 'I' for Inactive)
REMARK    1  A    between atoms: C_1  and  C_2
REMARK    2  A    between atoms: C_2  and  C_3
REMARK    3  A    between atoms: C_8  and  C_12
REMARK    4  A    between atoms: C_12  and  C_14
REMARK    5  A    between atoms: C_14  and  N_15
REMARK    6  A    between atoms: C_18  and  C_20
REMARK    7  A    between atoms: C_23  and  C_26
REMARK                            x       y       z     vdW  Elec       q    Type
REMARK                         _______ _______ _______ _____ _____    ______ ____
ROOT
ATOM      1  C   UNL     1      -5.758  -1.714  -4.267  0.00  0.00    +0.226 C 
ENDROOT
BRANCH   1   2
ATOM      2  N   UNL     1      -7.131  -2.209  -4.392  0.00  0.00    -0.163 N 
ATOM      3  N   UNL     1      -7.509  -3.513  -4.555  0.00  0.00    -0.143 NA
ATOM      4  N   UNL     1      -8.874  -3.530  -4.626  0.00  0.00    -0.246 N 
ATOM      5  C   UNL     1      -9.323  -2.215  -4.504  0.00  0.00    +0.160 C 
ATOM      6  N   UNL     1      -8.297  -1.432  -4.360  0.00  0.00    -0.151 NA
ATOM      7  H   UNL     1      -7.098  -3.907  -5.388  0.00  0.00    +0.169 HD
ATOM      8  H   UNL     1      -9.431  -4.316  -4.741  0.00  0.00    +0.169 HD
BRANCH   5   9
ATOM      9  C   UNL     1     -10.737  -1.784  -4.529  0.00  0.00    +0.018 A 
ATOM     10  C   UNL     1     -11.755  -2.727  -4.678  0.00  0.00    +0.011 A 
ATOM     11  C   UNL     1     -13.073  -2.318  -4.700  0.00  0.00    +0.004 A 
ATOM     12  C   UNL     1     -13.386  -0.976  -4.574  0.00  0.00    -0.050 A 
ATOM     13  C   UNL     1     -12.381  -0.036  -4.426  0.00  0.00    +0.004 A 
ATOM     14  C   UNL     1     -11.060  -0.432  -4.396  0.00  0.00    +0.011 A 
ATOM     15  C   UNL     1     -14.827  -0.536  -4.600  0.00  0.00    +0.044 C 
ENDBRANCH   5   9
ENDBRANCH   1   2
BRANCH   1  16
ATOM     16  C   UNL     1      -5.357  -1.706  -2.814  0.00  0.00    +0.182 C 
ATOM     17  O   UNL     1      -6.142  -2.078  -1.966  0.00  0.00    -0.291 OA
BRANCH  16  23
ATOM     18  C   UNL     1      -1.412  -0.526   0.013  0.00  0.00    -0.024 A 
ATOM     19  C   UNL     1      -2.010  -0.859   1.177  0.00  0.00    +0.005 A 
ATOM     20  C   UNL     1      -3.325  -1.347   1.223  0.00  0.00    +0.001 A 
ATOM     21  C   UNL     1      -4.077  -1.516   0.112  0.00  0.00    +0.010 A 
ATOM     22  C   UNL     1      -3.548  -1.198  -1.161  0.00  0.00    +0.006 A 
ATOM     23  C   UNL     1      -4.069  -1.267  -2.441  0.00  0.00    +0.025 C 
ATOM     24  C   UNL     1      -2.969  -0.774  -3.355  0.00  0.00    +0.152 C 
ATOM     25  N   UNL     1      -1.837  -0.441  -2.485  0.00  0.00    -0.380 N 
ATOM     26  C   UNL     1      -2.162  -0.673  -1.245  0.00  0.00    +0.046 A 
ATOM     27  H   UNL     1      -0.981  -0.097  -2.785  0.00  0.00    +0.160 HD
BRANCH  18  29
ATOM     28  C   UNL     1      -0.019   1.526   0.010  0.00  0.00    +0.009 C 
ATOM     29  C   UNL     1       0.002  -0.004   0.002  0.00  0.00    +0.034 C 
ENDBRANCH  18  29
ENDBRANCH  16  23
ENDBRANCH   1  16
TORSDOF 5
