REMARK  Name = ZINC20032102
REMARK  10 active torsions:
REMARK  status: ('A' for Active; 'I' for Inactive)
REMARK    1  A    between atoms: C_1  and  C_2
REMARK    2  A    between atoms: C_6  and  O_8
REMARK    3  A    between atoms: O_8  and  C_9
REMARK    4  A    between atoms: C_9  and  C_10
REMARK    5  A    between atoms: C_10  and  C_11
REMARK    6  A    between atoms: C_11  and  N_12
REMARK    7  A    between atoms: C_16  and  C_17
REMARK    8  A    between atoms: C_28  and  S_29
REMARK    9  A    between atoms: S_29  and  C_30
REMARK   10  A    between atoms: C_30  and  C_31
REMARK                            x       y       z     vdW  Elec       q    Type
REMARK                         _______ _______ _______ _____ _____    ______ ____
ROOT
ATOM      1  C   UNL     1      -2.606  -6.845   5.166  0.00  0.00    +0.042 C 
ATOM      2  C   UNL     1      -3.702  -7.223   5.923  0.00  0.00    +0.079 C 
ATOM      3  C   UNL     1      -5.095  -7.069   5.420  0.00  0.00    +0.116 C 
ATOM      4  N   UNL     1      -5.421  -7.179   4.159  0.00  0.00    -0.386 N 
ATOM      5  N   UNL     1      -6.027  -6.794   6.441  0.00  0.00    -0.212 N 
ATOM      6  C   UNL     1      -5.714  -7.168   7.733  0.00  0.00    +0.183 C 
ATOM      7  N   UNL     1      -4.574  -7.676   8.146  0.00  0.00    -0.152 NA
ATOM      8  C   UNL     1      -3.552  -7.807   7.276  0.00  0.00    +0.273 C 
ATOM      9  O   UNL     1      -2.528  -8.390   7.594  0.00  0.00    -0.268 OA
ATOM     10  S   UNL     1      -7.098  -6.799   8.586  0.00  0.00    +0.048 S 
ATOM     11  N   UNL     1      -7.997  -6.095   7.360  0.00  0.00    -0.185 NA
ATOM     12  C   UNL     1      -7.237  -6.196   6.304  0.00  0.00    +0.176 C 
ATOM     13  H   UNL     1      -4.739  -7.370   3.497  0.00  0.00    +0.157 HD
ATOM     14  H   UNL     1      -6.346  -7.070   3.886  0.00  0.00    +0.157 HD
ENDROOT
BRANCH   1  19
ATOM     15  N   UNL     1      -0.163  -6.381   5.163  0.00  0.00    -0.347 N 
ATOM     16  C   UNL     1       0.784  -6.155   6.107  0.00  0.00    +0.086 A 
ATOM     17  C   UNL     1       0.208  -6.216   7.334  0.00  0.00    +0.020 A 
ATOM     18  C   UNL     1      -1.149  -6.489   7.159  0.00  0.00    +0.027 A 
ATOM     19  C   UNL     1      -1.372  -6.585   5.793  0.00  0.00    +0.043 A 
BRANCH  15  20
ATOM     20  C   UNL     1       0.060  -6.399   3.715  0.00  0.00    +0.125 C 
BRANCH  20  21
ATOM     21  C   UNL     1      -0.245  -5.016   3.135  0.00  0.00    +0.062 C 
BRANCH  21  22
ATOM     22  C   UNL     1      -0.132  -5.066   1.610  0.00  0.00    +0.231 C 
BRANCH  22  23
ATOM     23  O   UNL     1      -0.528  -3.808   1.061  0.00  0.00    -0.492 OA
BRANCH  23  29
ATOM     24  C   UNL     1      -1.215  -1.069  -2.920  0.00  0.00    +0.044 C 
ATOM     25  C   UNL     1      -0.811  -2.366  -2.267  0.00  0.00    -0.047 A 
ATOM     26  C   UNL     1      -0.397  -3.431  -3.045  0.00  0.00    +0.003 A 
ATOM     27  C   UNL     1      -0.026  -4.622  -2.449  0.00  0.00    +0.004 A 
ATOM     28  C   UNL     1      -0.069  -4.751  -1.074  0.00  0.00    +0.045 A 
ATOM     29  C   UNL     1      -0.485  -3.684  -0.292  0.00  0.00    +0.121 A 
ATOM     30  C   UNL     1      -0.850  -2.487  -0.892  0.00  0.00    +0.049 A 
ENDBRANCH  23  29
ENDBRANCH  22  23
ENDBRANCH  21  22
ENDBRANCH  20  21
ENDBRANCH  15  20
ENDBRANCH   1  19
BRANCH  12  31
ATOM     31  S   UNL     1      -7.766  -5.571   4.744  0.00  0.00    -0.084 S 
BRANCH  31  32
ATOM     32  C   UNL     1      -9.411  -4.884   5.082  0.00  0.00    +0.112 C 
BRANCH  32  33
ATOM     33  C   UNL     1      -9.985  -4.309   3.813  0.00  0.00    -0.037 A 
ATOM     34  C   UNL     1      -9.749  -2.987   3.484  0.00  0.00    +0.004 A 
ATOM     35  C   UNL     1     -10.275  -2.460   2.320  0.00  0.00    +0.000 A 
ATOM     36  C   UNL     1     -11.039  -3.254   1.484  0.00  0.00    +0.000 A 
ATOM     37  C   UNL     1     -11.274  -4.576   1.813  0.00  0.00    +0.000 A 
ATOM     38  C   UNL     1     -10.744  -5.105   2.975  0.00  0.00    +0.004 A 
ENDBRANCH  32  33
ENDBRANCH  31  32
ENDBRANCH  12  31
TORSDOF 9
