REMARK  Name = ZINC37360316
REMARK  6 active torsions:
REMARK  status: ('A' for Active; 'I' for Inactive)
REMARK    1  A    between atoms: C_4  and  C_7
REMARK    2  A    between atoms: C_7  and  C_8
REMARK    3  A    between atoms: C_16  and  C_31
REMARK    4  A    between atoms: C_18  and  N_30
REMARK    5  A    between atoms: N_19  and  C_23
REMARK    6  A    between atoms: C_23  and  C_24
REMARK                            x       y       z     vdW  Elec       q    Type
REMARK                         _______ _______ _______ _____ _____    ______ ____
ROOT
ATOM      1  C   UNL     1       3.466  -1.901   3.210  0.00  0.00    -0.004 C 
ATOM      2  C   UNL     1       3.882  -0.433   3.326  0.00  0.00    +0.023 C 
ATOM      3  C   UNL     1       4.603  -0.215   4.660  0.00  0.00    +0.108 C 
ATOM      4  N   UNL     1       5.718  -1.167   4.756  0.00  0.00    -0.300 N 
ATOM      5  C   UNL     1       5.443  -2.598   4.569  0.00  0.00    +0.108 C 
ATOM      6  C   UNL     1       4.713  -2.789   3.236  0.00  0.00    +0.023 C 
ATOM      7  C   UNL     1       7.003  -0.724   5.017  0.00  0.00    +0.220 A 
ATOM      8  N   UNL     1       7.976  -1.626   5.088  0.00  0.00    -0.214 NA
ATOM      9  C   UNL     1       9.236  -1.288   5.334  0.00  0.00    +0.089 A 
ATOM     10  C   UNL     1       9.537   0.079   5.524  0.00  0.00    +0.086 A 
ATOM     11  C   UNL     1      10.682   0.818   5.792  0.00  0.00    +0.126 A 
ATOM     12  N   UNL     1      10.322   2.111   5.863  0.00  0.00    -0.244 N 
ATOM     13  N   UNL     1       8.946   2.236   5.645  0.00  0.00    -0.149 NA
ATOM     14  C   UNL     1       8.428   1.046   5.437  0.00  0.00    +0.188 A 
ATOM     15  N   UNL     1       7.195   0.570   5.176  0.00  0.00    -0.193 NA
ENDROOT
BRANCH   9  16
ATOM     16  C   UNL     1      10.297  -2.317   5.408  0.00  0.00    +0.004 A 
ATOM     17  C   UNL     1      11.229  -2.289   6.446  0.00  0.00    +0.010 A 
ATOM     18  C   UNL     1      12.217  -3.250   6.511  0.00  0.00    +0.003 A 
ATOM     19  C   UNL     1      12.285  -4.242   5.549  0.00  0.00    +0.038 A 
ATOM     20  C   UNL     1      11.364  -4.277   4.515  0.00  0.00    +0.124 A 
ATOM     21  C   UNL     1      10.367  -3.322   4.443  0.00  0.00    +0.048 A 
ATOM     22  F   UNL     1      11.436  -5.248   3.579  0.00  0.00    -0.205 F 
ENDBRANCH   9  16
BRANCH  11  23
ATOM     23  N   UNL     1      11.960   0.316   5.955  0.00  0.00    -0.343 N 
ATOM     24  H   UNL     1      12.178  -0.571   5.628  0.00  0.00    +0.144 HD
ATOM     25  H   UNL     1      12.639   0.850   6.397  0.00  0.00    +0.144 HD
ENDBRANCH  11  23
BRANCH   1  26
ATOM     26  C   UNL     1       2.715  -2.116   1.895  0.00  0.00    +0.038 C 
BRANCH  26  30
ATOM     27  C   UNL     1      -0.940   0.094   1.963  0.00  0.00    +0.000 A 
ATOM     28  C   UNL     1       0.214   0.681   1.478  0.00  0.00    +0.000 A 
ATOM     29  C   UNL     1       1.397  -0.034   1.456  0.00  0.00    +0.003 A 
ATOM     30  C   UNL     1       1.426  -1.336   1.919  0.00  0.00    -0.047 A 
ATOM     31  C   UNL     1       0.273  -1.923   2.405  0.00  0.00    +0.003 A 
ATOM     32  C   UNL     1      -0.911  -1.208   2.426  0.00  0.00    +0.000 A 
ENDBRANCH  26  30
ENDBRANCH   1  26
BRANCH  12  33
ATOM     33  C   UNL     1      11.236   3.225   6.130  0.00  0.00    +0.180 C 
BRANCH  33  34
ATOM     34  C   UNL     1      11.783   3.749   4.827  0.00  0.00    -0.026 A 
ATOM     35  C   UNL     1      12.946   3.217   4.302  0.00  0.00    +0.005 A 
ATOM     36  C   UNL     1      13.448   3.698   3.107  0.00  0.00    +0.000 A 
ATOM     37  C   UNL     1      12.787   4.710   2.437  0.00  0.00    +0.000 A 
ATOM     38  C   UNL     1      11.623   5.242   2.962  0.00  0.00    +0.000 A 
ATOM     39  C   UNL     1      11.119   4.758   4.154  0.00  0.00    +0.005 A 
ENDBRANCH  33  34
ENDBRANCH  12  33
TORSDOF 6
