REMARK  Name = ZINC12698384
REMARK  7 active torsions:
REMARK  status: ('A' for Active; 'I' for Inactive)
REMARK    1  A    between atoms: C_1  and  C_2
REMARK    2  A    between atoms: C_6  and  C_8
REMARK    3  A    between atoms: N_14  and  C_15
REMARK    4  A    between atoms: C_15  and  C_16
REMARK    5  A    between atoms: C_16  and  C_17
REMARK    6  A    between atoms: N_19  and  N_20
REMARK    7  A    between atoms: C_21  and  C_23
REMARK                            x       y       z     vdW  Elec       q    Type
REMARK                         _______ _______ _______ _____ _____    ______ ____
ROOT
ATOM      1  C   UNL     1       5.070   5.466  -0.264  0.00  0.00    +0.231 C 
ATOM      2  O   UNL     1       6.095   4.868  -0.011  0.00  0.00    -0.274 OA
ATOM      3  N   UNL     1       3.935   4.783  -0.511  0.00  0.00    -0.234 N 
ATOM      4  H   UNL     1       3.116   5.261  -0.714  0.00  0.00    +0.173 HD
ENDROOT
BRANCH   3   5
ATOM      5  N   UNL     1       3.938   3.382  -0.476  0.00  0.00    -0.230 N 
ATOM      6  C   UNL     1       2.803   2.699  -0.724  0.00  0.00    +0.267 C 
ATOM      7  O   UNL     1       1.775   3.299  -0.978  0.00  0.00    -0.268 OA
ATOM      8  H   UNL     1       4.758   2.904  -0.274  0.00  0.00    +0.173 HD
BRANCH   6   9
ATOM      9  C   UNL     1       2.806   1.234  -0.688  0.00  0.00    +0.076 A 
ATOM     10  C   UNL     1       1.769   0.355  -0.908  0.00  0.00    +0.024 A 
ATOM     11  C   UNL     1       2.032  -1.015  -0.827  0.00  0.00    -0.036 A 
ATOM     12  C   UNL     1       3.283  -1.379  -0.478  0.00  0.00    -0.006 A 
ATOM     13  S   UNL     1       4.153   0.119  -0.347  0.00  0.00    -0.088 S 
ATOM     14  C   UNL     1       3.909  -2.711  -0.159  0.00  0.00    +0.043 C 
ATOM     15  C   UNL     1       2.903  -3.860  -0.239  0.00  0.00    +0.005 C 
ATOM     16  C   UNL     1       2.677  -4.279  -1.683  0.00  0.00    +0.000 C 
ATOM     17  C   UNL     1       2.666  -3.103  -2.639  0.00  0.00    +0.000 C 
ATOM     18  C   UNL     1       1.246  -2.528  -2.627  0.00  0.00    +0.005 C 
ATOM     19  C   UNL     1       0.939  -1.995  -1.227  0.00  0.00    +0.036 C 
ENDBRANCH   6   9
ENDBRANCH   3   5
BRANCH   1  20
ATOM     20  C   UNL     1       5.067   6.972  -0.301  0.00  0.00    +0.119 C 
BRANCH  20  21
ATOM     21  C   UNL     1       6.471   7.493   0.013  0.00  0.00    +0.135 C 
BRANCH  21  28
ATOM     22  C   UNL     1       6.308   9.794   1.064  0.00  0.00    +0.163 A 
ATOM     23  N   UNL     1       6.360  11.028   0.649  0.00  0.00    -0.153 NA
ATOM     24  N   UNL     1       6.558  11.012  -0.738  0.00  0.00    -0.254 N 
ATOM     25  H   UNL     1       6.636  11.787  -1.315  0.00  0.00    +0.191 HD
ATOM     26  C   UNL     1       6.625   9.721  -1.123  0.00  0.00    +0.176 A 
ATOM     27  S   UNL     1       6.863   9.154  -2.721  0.00  0.00    -0.011 S 
ATOM     28  N   UNL     1       6.467   8.958  -0.023  0.00  0.00    -0.303 N 
BRANCH  22  34
ATOM     29  C   UNL     1       6.508  10.771   5.955  0.00  0.00    +0.044 C 
ATOM     30  C   UNL     1       6.206   9.827   4.819  0.00  0.00    -0.050 A 
ATOM     31  C   UNL     1       5.743   8.550   5.088  0.00  0.00    +0.003 A 
ATOM     32  C   UNL     1       5.464   7.678   4.052  0.00  0.00    +0.001 A 
ATOM     33  C   UNL     1       5.640   8.078   2.743  0.00  0.00    +0.011 A 
ATOM     34  C   UNL     1       6.111   9.361   2.466  0.00  0.00    +0.019 A 
ATOM     35  C   UNL     1       6.391  10.236   3.515  0.00  0.00    +0.015 A 
ENDBRANCH  22  34
ENDBRANCH  21  28
ENDBRANCH  20  21
ENDBRANCH   1  20
TORSDOF 6
