REMARK  Name = ZINC20080876
REMARK  16 active torsions:
REMARK  status: ('A' for Active; 'I' for Inactive)
REMARK    1  A    between atoms: C_1  and  C_2
REMARK    2  A    between atoms: C_5  and  C_38
REMARK    3  A    between atoms: C_6  and  N_8
REMARK    4  A    between atoms: C_9  and  C_11
REMARK    5  A    between atoms: C_11  and  S_12
REMARK    6  A    between atoms: S_12  and  C_13
REMARK    7  A    between atoms: C_14  and  C_36
REMARK    8  A    between atoms: C_15  and  C_27
REMARK    9  A    between atoms: C_17  and  C_21
REMARK   10  A    between atoms: C_18  and  C_20
REMARK   11  A    between atoms: C_21  and  O_23
REMARK   12  A    between atoms: O_23  and  C_24
REMARK   13  A    between atoms: C_24  and  C_25
REMARK   14  A    between atoms: C_30  and  O_35
REMARK   15  A    between atoms: C_31  and  O_33
REMARK   16  A    between atoms: O_33  and  C_34
REMARK                            x       y       z     vdW  Elec       q    Type
REMARK                         _______ _______ _______ _____ _____    ______ ____
ROOT
ATOM      1  C   UNL     1      -2.684   4.458   0.008  0.00  0.00    +0.080 C 
ATOM      2  C   UNL     1      -2.921   5.797   0.017  0.00  0.00    +0.069 C 
ATOM      3  C   UNL     1      -4.321   6.341   0.001  0.00  0.00    +0.100 C 
ATOM      4  C   UNL     1      -5.311   5.276   0.376  0.00  0.00    +0.066 C 
ATOM      5  C   UNL     1      -4.987   3.972   0.357  0.00  0.00    +0.016 C 
ATOM      6  N   UNL     1      -3.731   3.563   0.002  0.00  0.00    -0.312 N 
ATOM      7  C   UNL     1      -6.023   2.945   0.733  0.00  0.00    +0.061 C 
ATOM      8  H   UNL     1      -3.559   2.517  -0.289  0.00  0.00    +0.152 HD
ENDROOT
BRANCH   3   9
ATOM      9  C   UNL     1      -4.643   6.853  -1.380  0.00  0.00    -0.031 A 
ATOM     10  C   UNL     1      -4.632   5.986  -2.457  0.00  0.00    +0.008 A 
ATOM     11  C   UNL     1      -4.927   6.451  -3.725  0.00  0.00    +0.049 A 
ATOM     12  C   UNL     1      -5.234   7.788  -3.919  0.00  0.00    +0.158 A 
ATOM     13  C   UNL     1      -5.245   8.661  -2.835  0.00  0.00    +0.162 A 
ATOM     14  C   UNL     1      -4.953   8.187  -1.566  0.00  0.00    +0.054 A 
BRANCH  13  15
ATOM     15  O   UNL     1      -5.545   9.974  -3.020  0.00  0.00    -0.491 OA
ATOM     16  C   UNL     1      -5.537  10.811  -1.862  0.00  0.00    +0.277 C 
ENDBRANCH  13  15
BRANCH  12  17
ATOM     17  O   UNL     1      -5.525   8.246  -5.166  0.00  0.00    -0.503 OA
ATOM     18  H   UNL     1      -5.769   9.308  -5.318  0.00  0.00    +0.292 HD
ENDBRANCH  12  17
ENDBRANCH   3   9
BRANCH   4  19
ATOM     19  C   UNL     1      -6.618   5.655   0.758  0.00  0.00    +0.338 C 
ATOM     20  O   UNL     1      -7.433   4.805   1.065  0.00  0.00    -0.245 OA
BRANCH  19  21
ATOM     21  O   UNL     1      -6.962   6.960   0.783  0.00  0.00    -0.457 OA
BRANCH  21  22
ATOM     22  C   UNL     1      -8.300   7.270   1.179  0.00  0.00    +0.259 C 
BRANCH  22  23
ATOM     23  C   UNL     1      -8.499   8.764   1.147  0.00  0.00    +0.006 C 
ATOM     24  C   UNL     1      -9.582   9.269   0.611  0.00  0.00    +0.007 C 
ENDBRANCH  22  23
ENDBRANCH  21  22
ENDBRANCH  19  21
ENDBRANCH   4  19
BRANCH   2  25
ATOM     25  C   UNL     1      -1.814   6.706   0.038  0.00  0.00    +0.098 C 
ATOM     26  N   UNL     1      -0.936   7.426   0.055  0.00  0.00    -0.191 NA
ENDBRANCH   2  25
BRANCH   1  27
ATOM     27  S   UNL     1      -1.026   3.863   0.011  0.00  0.00    -0.100 S 
BRANCH  27  28
ATOM     28  C   UNL     1      -1.332   2.079   0.005  0.00  0.00    +0.171 C 
BRANCH  28  30
ATOM     29  N   UNL     1       0.002  -0.004   0.002  0.00  0.00    -0.285 N 
ATOM     30  C   UNL     1      -0.017   1.344   0.006  0.00  0.00    +0.227 C 
ATOM     31  O   UNL     1       1.025   1.964   0.006  0.00  0.00    -0.275 OA
ATOM     32  H   UNL     1      -0.938  -0.567   0.094  0.00  0.00    +0.155 HD
BRANCH  29  38
ATOM     33  C   UNL     1       4.678  -0.084  -1.514  0.00  0.00    +0.044 C 
ATOM     34  C   UNL     1       3.501  -0.749  -0.850  0.00  0.00    -0.049 A 
ATOM     35  C   UNL     1       3.621  -2.036  -0.358  0.00  0.00    +0.004 A 
ATOM     36  C   UNL     1       2.543  -2.650   0.253  0.00  0.00    +0.005 A 
ATOM     37  C   UNL     1       1.344  -1.977   0.379  0.00  0.00    -0.029 A 
ATOM     38  C   UNL     1       1.218  -0.687  -0.119  0.00  0.00    +0.037 A 
ATOM     39  C   UNL     1       2.302  -0.073  -0.732  0.00  0.00    +0.027 A 
ATOM     40  C   UNL     1       0.171  -2.644   1.050  0.00  0.00    +0.045 C 
ENDBRANCH  29  38
ENDBRANCH  28  30
ENDBRANCH  27  28
ENDBRANCH   1  27
TORSDOF 12
