REMARK  Name = ZINC13211478
REMARK  8 active torsions:
REMARK  status: ('A' for Active; 'I' for Inactive)
REMARK    1  A    between atoms: C_3  and  N_16
REMARK    2  A    between atoms: C_4  and  N_13
REMARK    3  A    between atoms: C_6  and  C_7
REMARK    4  A    between atoms: N_9  and  C_10
REMARK    5  A    between atoms: C_10  and  C_11
REMARK    6  A    between atoms: N_16  and  C_17
REMARK    7  A    between atoms: C_17  and  C_18
REMARK    8  A    between atoms: C_18  and  N_59
REMARK                            x       y       z     vdW  Elec       q    Type
REMARK                         _______ _______ _______ _____ _____    ______ ____
ROOT
ATOM      1  C   UNL     1      -5.497   6.083  -4.101  0.00  0.00    +0.015 A 
ATOM      2  C   UNL     1      -4.704   6.047  -2.976  0.00  0.00    +0.026 A 
ATOM      3  C   UNL     1      -4.952   5.111  -1.977  0.00  0.00    +0.058 A 
ATOM      4  C   UNL     1      -6.000   4.205  -2.113  0.00  0.00    +0.148 A 
ATOM      5  C   UNL     1      -6.800   4.239  -3.232  0.00  0.00    +0.047 A 
ATOM      6  C   UNL     1      -6.553   5.177  -4.238  0.00  0.00    +0.039 A 
ENDROOT
BRANCH   6   7
ATOM      7  C   UNL     1      -7.405   5.213  -5.441  0.00  0.00    +0.245 C 
ATOM      8  O   UNL     1      -8.324   4.425  -5.559  0.00  0.00    -0.270 OA
ATOM      9  N   UNL     1      -7.166   6.118  -6.410  0.00  0.00    -0.301 N 
ATOM     10  H   UNL     1      -6.433   6.747  -6.316  0.00  0.00    +0.150 HD
BRANCH   9  11
ATOM     11  C   UNL     1      -8.012   6.154  -7.606  0.00  0.00    +0.229 C 
BRANCH  11  12
ATOM     12  C   UNL     1      -7.537   7.248  -8.526  0.00  0.00    +0.373 C 
ATOM     13  O   UNL     1      -6.589   7.930  -8.215  0.00  0.00    -0.245 OA
ATOM     14  O   UNL     1      -8.167   7.467  -9.690  0.00  0.00    -0.245 OA
ENDBRANCH  11  12
ENDBRANCH   9  11
ENDBRANCH   6   7
BRANCH   4  15
ATOM     15  N   UNL     1      -6.258   3.207  -1.050  0.00  0.00    +0.058 N 
ATOM     16  O   UNL     1      -5.325   2.684  -0.467  0.00  0.00    -0.126 OA
ATOM     17  O   UNL     1      -7.402   2.909  -0.759  0.00  0.00    -0.126 OA
ENDBRANCH   4  15
BRANCH   3  18
ATOM     18  N   UNL     1      -4.149   5.078  -0.842  0.00  0.00    -0.343 N 
ATOM     19  H   UNL     1      -4.372   4.485  -0.108  0.00  0.00    +0.146 HD
BRANCH  18  20
ATOM     20  C   UNL     1      -2.966   5.938  -0.757  0.00  0.00    +0.089 C 
BRANCH  20  21
ATOM     21  C   UNL     1      -2.264   5.708   0.583  0.00  0.00    -0.050 C 
ATOM     22  C   UNL     1      -1.028   6.606   0.672  0.00  0.00    -0.010 C 
ATOM     23  C   UNL     1      -1.454   8.072   0.564  0.00  0.00    -0.001 C 
ATOM     24  C   UNL     1      -2.414   8.409   1.707  0.00  0.00    -0.000 C 
ATOM     25  C   UNL     1      -3.650   7.511   1.618  0.00  0.00    -0.001 C 
ATOM     26  C   UNL     1      -3.224   6.046   1.726  0.00  0.00    -0.010 C 
BRANCH  21  32
ATOM     27  C   UNL     1      -0.931   3.940  -0.397  0.00  0.00    -0.078 C 
ATOM     28  C   UNL     1      -0.642   2.438  -0.343  0.00  0.00    -0.019 C 
ATOM     29  C   UNL     1      -0.026   2.090   1.015  0.00  0.00    -0.004 C 
ATOM     30  C   UNL     1      -0.986   2.520   2.128  0.00  0.00    -0.019 C 
ATOM     31  C   UNL     1      -1.266   4.019   2.002  0.00  0.00    -0.078 C 
ATOM     32  N   UNL     1      -1.880   4.285   0.684  0.00  0.00    +0.384 N 
ATOM     33  H   UNL     1      -2.722   3.705   0.586  0.00  0.00    -0.081 HD
ENDBRANCH  21  32
ENDBRANCH  20  21
ENDBRANCH  18  20
ENDBRANCH   3  18
TORSDOF 8
