REMARK  Name = ZINC16685098
REMARK  4 active torsions:
REMARK  status: ('A' for Active; 'I' for Inactive)
REMARK    1  A    between atoms: C_3  and  S_8
REMARK    2  A    between atoms: S_8  and  N_11
REMARK    3  A    between atoms: C_15  and  C_17
REMARK    4  A    between atoms: C_23  and  C_25
REMARK                            x       y       z     vdW  Elec       q    Type
REMARK                         _______ _______ _______ _____ _____    ______ ____
ROOT
ATOM      1  C   UNL     1      -2.327  -0.452   0.021  0.00  0.00    +0.238 C 
ATOM      2  O   UNL     1      -2.545   0.741   0.030  0.00  0.00    -0.274 OA
ATOM      3  N   UNL     1      -1.058  -0.905   0.007  0.00  0.00    -0.262 N 
ATOM      4  C   UNL     1       0.002  -0.004   0.002  0.00  0.00    +0.188 A 
ATOM      5  N   UNL     1      -0.016   1.318   0.009  0.00  0.00    -0.126 NA
ATOM      6  N   UNL     1       1.047   1.999   0.003  0.00  0.00    -0.144 NA
ATOM      7  C   UNL     1       2.224   1.407  -0.012  0.00  0.00    +0.110 A 
ATOM      8  S   UNL     1       1.715  -0.307  -0.016  0.00  0.00    -0.035 S 
ATOM      9  H   UNL     1      -0.883  -1.859  -0.000  0.00  0.00    +0.157 HD
ENDROOT
BRANCH   7  10
ATOM     10  C   UNL     1       3.607   2.006  -0.021  0.00  0.00    +0.022 C 
ATOM     11  C   UNL     1       4.648   0.884  -0.037  0.00  0.00    +0.017 C 
ATOM     12  C   UNL     1       6.052   1.491  -0.046  0.00  0.00    -0.010 C 
ATOM     13  C   UNL     1       6.246   2.349   1.206  0.00  0.00    +0.007 C 
ATOM     14  C   UNL     1       5.205   3.471   1.221  0.00  0.00    -0.010 C 
ATOM     15  C   UNL     1       3.801   2.864   1.231  0.00  0.00    +0.017 C 
ATOM     16  C   UNL     1       5.376   4.342  -0.025  0.00  0.00    +0.007 C 
ATOM     17  C   UNL     1       5.182   3.484  -1.277  0.00  0.00    -0.010 C 
ATOM     18  C   UNL     1       6.223   2.362  -1.293  0.00  0.00    +0.007 C 
ATOM     19  C   UNL     1       3.778   2.877  -1.268  0.00  0.00    +0.017 C 
ENDBRANCH   7  10
BRANCH   1  24
ATOM     20  N   UNL     1      -4.751  -0.699   0.043  0.00  0.00    -0.165 NA
ATOM     21  C   UNL     1      -5.503  -1.033  -1.181  0.00  0.00    +0.110 C 
ATOM     22  C   UNL     1      -4.952  -2.413  -1.619  0.00  0.00    +0.019 C 
ATOM     23  C   UNL     1      -3.449  -2.277  -1.262  0.00  0.00    +0.031 C 
ATOM     24  C   UNL     1      -3.475  -1.428   0.027  0.00  0.00    +0.166 C 
BRANCH  20  25
ATOM     25  S   UNL     1      -5.261   0.328   1.238  0.00  0.00    +0.062 S 
ATOM     26  O   UNL     1      -6.680   0.364   1.165  0.00  0.00    -0.153 OA
ATOM     27  O   UNL     1      -4.569  -0.050   2.421  0.00  0.00    -0.153 OA
BRANCH  25  30
ATOM     28  C   UNL     1      -5.043   4.039  -0.284  0.00  0.00    +0.040 A 
ATOM     29  C   UNL     1      -5.487   2.773   0.047  0.00  0.00    +0.031 A 
ATOM     30  C   UNL     1      -4.694   1.942   0.816  0.00  0.00    +0.106 A 
ATOM     31  C   UNL     1      -3.459   2.377   1.259  0.00  0.00    +0.031 A 
ATOM     32  C   UNL     1      -3.011   3.641   0.924  0.00  0.00    +0.040 A 
ATOM     33  C   UNL     1      -3.804   4.475   0.154  0.00  0.00    +0.124 A 
ATOM     34  F   UNL     1      -3.369   5.713  -0.169  0.00  0.00    -0.205 F 
ENDBRANCH  25  30
ENDBRANCH  20  25
ENDBRANCH   1  24
TORSDOF 4
