REMARK  Name = ZINC06638744
REMARK  7 active torsions:
REMARK  status: ('A' for Active; 'I' for Inactive)
REMARK    1  A    between atoms: C_1  and  C_2
REMARK    2  A    between atoms: C_8  and  N_10
REMARK    3  A    between atoms: C_14  and  C_16
REMARK    4  A    between atoms: C_16  and  O_17
REMARK    5  A    between atoms: O_17  and  C_18
REMARK    6  A    between atoms: C_18  and  C_20
REMARK    7  A    between atoms: C_23  and  C_26
REMARK                            x       y       z     vdW  Elec       q    Type
REMARK                         _______ _______ _______ _____ _____    ______ ____
ROOT
ATOM      1  N   UNL     1      -9.648   1.496   0.054  0.00  0.00    -0.296 N 
ATOM      2  C   UNL     1      -8.409   2.028   0.052  0.00  0.00    +0.306 C 
ATOM      3  O   UNL     1      -8.267   3.235   0.058  0.00  0.00    -0.252 OA
ATOM      4  N   UNL     1      -7.330   1.221   0.042  0.00  0.00    -0.237 N 
ATOM      5  C   UNL     1      -6.091   1.753   0.040  0.00  0.00    +0.258 C 
ATOM      6  O   UNL     1      -5.949   2.957   0.046  0.00  0.00    -0.272 OA
ATOM      7  H   UNL     1      -9.762   0.532   0.050  0.00  0.00    +0.151 HD
ATOM      8  H   UNL     1      -7.444   0.258   0.037  0.00  0.00    +0.159 HD
ENDROOT
BRANCH   1  15
ATOM      9  C   UNL     1     -11.670   1.212   2.109  0.00  0.00    +0.009 C 
ATOM     10  C   UNL     1     -12.010   1.626   0.676  0.00  0.00    +0.006 C 
ATOM     11  C   UNL     1     -12.312   0.379  -0.158  0.00  0.00    +0.005 C 
ATOM     12  C   UNL     1     -12.652   0.793  -1.591  0.00  0.00    +0.000 C 
ATOM     13  C   UNL     1     -11.464   1.539  -2.201  0.00  0.00    +0.002 C 
ATOM     14  C   UNL     1     -11.162   2.786  -1.368  0.00  0.00    +0.022 C 
ATOM     15  C   UNL     1     -10.822   2.372   0.065  0.00  0.00    +0.077 C 
ENDBRANCH   1  15
BRANCH   5  16
ATOM     16  C   UNL     1      -4.884   0.852   0.029  0.00  0.00    +0.328 C 
BRANCH  16  17
ATOM     17  O   UNL     1      -3.677   1.659   0.028  0.00  0.00    -0.452 OA
BRANCH  17  18
ATOM     18  C   UNL     1      -2.501   1.001   0.019  0.00  0.00    +0.340 C 
ATOM     19  O   UNL     1      -2.485  -0.213   0.012  0.00  0.00    -0.245 OA
BRANCH  18  20
ATOM     20  C   UNL     1      -1.232   1.758   0.017  0.00  0.00    +0.059 A 
ATOM     21  C   UNL     1      -0.013   1.076   0.008  0.00  0.00    +0.016 A 
ATOM     22  C   UNL     1       1.171   1.781   0.000  0.00  0.00    +0.019 A 
ATOM     23  C   UNL     1       1.152   3.177   0.008  0.00  0.00    +0.052 A 
ATOM     24  C   UNL     1      -0.067   3.859   0.023  0.00  0.00    +0.019 A 
ATOM     25  C   UNL     1      -1.250   3.154   0.031  0.00  0.00    +0.016 A 
BRANCH  23  26
ATOM     26  C   UNL     1       2.382   3.910  -0.000  0.00  0.00    +0.099 C 
ATOM     27  N   UNL     1       3.358   4.491  -0.007  0.00  0.00    -0.191 NA
ENDBRANCH  23  26
ENDBRANCH  18  20
ENDBRANCH  17  18
ENDBRANCH  16  17
ENDBRANCH   5  16
TORSDOF 6
