REMARK  Name = ZINC39694203
REMARK  8 active torsions:
REMARK  status: ('A' for Active; 'I' for Inactive)
REMARK    1  A    between atoms: C_1  and  C_2
REMARK    2  A    between atoms: C_2  and  O_3
REMARK    3  A    between atoms: O_3  and  C_4
REMARK    4  A    between atoms: C_8  and  C_10
REMARK    5  A    between atoms: C_14  and  C_23
REMARK    6  A    between atoms: N_25  and  C_26
REMARK    7  A    between atoms: C_26  and  C_27
REMARK    8  A    between atoms: C_31  and  N_33
REMARK                            x       y       z     vdW  Elec       q    Type
REMARK                         _______ _______ _______ _____ _____    ______ ____
ROOT
ATOM      1  C   UNL     1      -4.293  -4.372   0.009  0.00  0.00    +0.247 C 
ATOM      2  O   UNL     1      -5.269  -3.658   0.127  0.00  0.00    -0.270 OA
ATOM      3  N   UNL     1      -4.444  -5.707  -0.101  0.00  0.00    -0.296 N 
ATOM      4  C   UNL     1      -3.383  -6.742  -0.123  0.00  0.00    +0.121 C 
ATOM      5  C   UNL     1      -3.959  -7.909   0.709  0.00  0.00    +0.100 C 
ATOM      6  C   UNL     1      -5.485  -7.727   0.636  0.00  0.00    -0.004 C 
ATOM      7  C   UNL     1      -5.708  -6.472  -0.219  0.00  0.00    +0.115 C 
ATOM      8  C   UNL     1      -6.059  -7.515   2.034  0.00  0.00    -0.010 C 
ATOM      9  C   UNL     1      -7.583  -7.393   1.942  0.00  0.00    -0.082 C 
ATOM     10  N   UNL     1      -8.137  -8.614   1.344  0.00  0.00    +0.379 N 
ATOM     11  C   UNL     1      -7.652  -8.762  -0.034  0.00  0.00    -0.082 C 
ATOM     12  C   UNL     1      -6.131  -8.940  -0.025  0.00  0.00    -0.010 C 
ATOM     13  H   UNL     1      -7.850  -9.414   1.887  0.00  0.00    -0.086 HD
ATOM     14  H   UNL     1      -9.144  -8.557   1.340  0.00  0.00    -0.086 HD
ENDROOT
BRANCH   1  19
ATOM     15  C   UNL     1      -0.624  -3.887  -0.654  0.00  0.00    +0.121 A 
ATOM     16  C   UNL     1      -0.405  -2.654  -0.055  0.00  0.00    +0.046 A 
ATOM     17  C   UNL     1      -1.445  -1.984   0.561  0.00  0.00    +0.004 A 
ATOM     18  C   UNL     1      -2.709  -2.537   0.585  0.00  0.00    +0.013 A 
ATOM     19  C   UNL     1      -2.940  -3.776  -0.015  0.00  0.00    +0.040 A 
ATOM     20  C   UNL     1      -1.890  -4.448  -0.642  0.00  0.00    +0.058 A 
BRANCH  15  21
ATOM     21  O   UNL     1       0.403  -4.541  -1.258  0.00  0.00    -0.492 OA
BRANCH  21  23
ATOM     22  C   UNL     1       2.703  -4.784  -1.957  0.00  0.00    +0.048 C 
ATOM     23  C   UNL     1       1.682  -3.904  -1.234  0.00  0.00    +0.225 C 
ENDBRANCH  21  23
ENDBRANCH  15  21
ENDBRANCH   1  19
BRANCH   5  24
ATOM     24  C   UNL     1      -3.486  -7.820   2.137  0.00  0.00    +0.218 C 
ATOM     25  O   UNL     1      -3.330  -6.736   2.658  0.00  0.00    -0.275 OA
ATOM     26  N   UNL     1      -3.234  -8.945   2.835  0.00  0.00    -0.311 N 
ATOM     27  H   UNL     1      -3.358  -9.812   2.418  0.00  0.00    +0.149 HD
BRANCH  26  28
ATOM     28  C   UNL     1      -2.773  -8.858   4.223  0.00  0.00    +0.139 C 
BRANCH  28  29
ATOM     29  C   UNL     1      -2.568 -10.247   4.771  0.00  0.00    -0.028 A 
ATOM     30  C   UNL     1      -3.611 -10.905   5.396  0.00  0.00    +0.005 A 
ATOM     31  C   UNL     1      -3.426 -12.179   5.900  0.00  0.00    +0.002 A 
ATOM     32  C   UNL     1      -2.197 -12.798   5.782  0.00  0.00    +0.026 A 
ATOM     33  C   UNL     1      -1.148 -12.141   5.155  0.00  0.00    +0.046 A 
ATOM     34  C   UNL     1      -1.338 -10.864   4.645  0.00  0.00    +0.031 A 
BRANCH  33  35
ATOM     35  N   UNL     1       0.101 -12.767   5.033  0.00  0.00    -0.323 N 
ATOM     36  C   UNL     1       1.209 -12.226   4.446  0.00  0.00    +0.091 A 
ATOM     37  C   UNL     1       2.209 -13.127   4.524  0.00  0.00    +0.019 A 
ATOM     38  C   UNL     1       1.702 -14.266   5.182  0.00  0.00    +0.019 A 
ATOM     39  C   UNL     1       0.412 -14.017   5.487  0.00  0.00    +0.091 A 
ENDBRANCH  33  35
ENDBRANCH  28  29
ENDBRANCH  26  28
ENDBRANCH   5  24
TORSDOF 7
