REMARK  Name = ZINC21548906
REMARK  5 active torsions:
REMARK  status: ('A' for Active; 'I' for Inactive)
REMARK    1  A    between atoms: C_1  and  C_2
REMARK    2  A    between atoms: N_5  and  C_7
REMARK    3  A    between atoms: C_25  and  C_27
REMARK    4  A    between atoms: C_33  and  O_38
REMARK    5  A    between atoms: O_38  and  C_39
REMARK                            x       y       z     vdW  Elec       q    Type
REMARK                         _______ _______ _______ _____ _____    ______ ____
ROOT
ATOM      1  C   UNL     1       3.347   8.491   0.218  0.00  0.00    +0.068 C 
ATOM      2  C   UNL     1       4.182   7.238   0.142  0.00  0.00    +0.068 A 
ATOM      3  C   UNL     1       3.707   5.940   0.256  0.00  0.00    +0.043 A 
ATOM      4  C   UNL     1       4.780   5.074   0.134  0.00  0.00    +0.141 A 
ATOM      5  N   UNL     1       5.889   5.853  -0.053  0.00  0.00    -0.216 N 
ATOM      6  N   UNL     1       5.479   7.193  -0.042  0.00  0.00    -0.169 NA
ATOM      7  N   UNL     1       4.598   3.739   0.206  0.00  0.00    -0.328 N 
ATOM      8  C   UNL     1       3.435   3.146   0.394  0.00  0.00    +0.105 C 
ATOM      9  C   UNL     1       3.402   1.728   0.449  0.00  0.00    +0.043 C 
ATOM     10  C   UNL     1       2.237   1.070   0.640  0.00  0.00    +0.013 C 
ATOM     11  C   UNL     1       1.000   1.839   0.790  0.00  0.00    -0.004 A 
ATOM     12  C   UNL     1      -0.228   1.201   0.989  0.00  0.00    +0.010 A 
ATOM     13  C   UNL     1      -1.373   1.954   1.121  0.00  0.00    +0.001 A 
ATOM     14  C   UNL     1      -1.313   3.339   1.068  0.00  0.00    +0.002 A 
ATOM     15  C   UNL     1      -0.110   3.984   0.873  0.00  0.00    +0.024 A 
ATOM     16  C   UNL     1       1.058   3.244   0.731  0.00  0.00    +0.043 A 
ATOM     17  N   UNL     1       2.273   3.868   0.535  0.00  0.00    -0.274 N 
ATOM     18  C   UNL     1       2.337   5.339   0.473  0.00  0.00    +0.152 C 
ATOM     19  H   UNL     1       5.512   3.135   0.097  0.00  0.00    +0.169 HD
ENDROOT
BRANCH  18  20
ATOM     20  C   UNL     1       1.784   5.886   1.764  0.00  0.00    +0.060 A 
ATOM     21  C   UNL     1       0.919   6.917   1.747  0.00  0.00    +0.205 A 
ATOM     22  O   UNL     1       0.392   7.440   2.858  0.00  0.00    -0.462 OA
ATOM     23  C   UNL     1       0.697   6.980   4.090  0.00  0.00    +0.139 A 
ATOM     24  C   UNL     1       0.135   7.551   5.225  0.00  0.00    +0.050 A 
ATOM     25  C   UNL     1       0.461   7.066   6.473  0.00  0.00    +0.049 A 
ATOM     26  C   UNL     1       1.352   6.006   6.612  0.00  0.00    +0.121 A 
ATOM     27  C   UNL     1       1.921   5.425   5.494  0.00  0.00    +0.061 A 
ATOM     28  C   UNL     1       1.596   5.910   4.228  0.00  0.00    +0.068 A 
ATOM     29  C   UNL     1       2.178   5.322   3.006  0.00  0.00    +0.198 A 
ATOM     30  O   UNL     1       2.964   4.391   3.061  0.00  0.00    -0.287 OA
BRANCH  26  31
ATOM     31  O   UNL     1       1.663   5.540   7.851  0.00  0.00    -0.495 OA
ATOM     32  C   UNL     1       1.040   6.185   8.962  0.00  0.00    +0.277 C 
ENDBRANCH  26  31
ENDBRANCH  18  20
BRANCH   5  33
ATOM     33  C   UNL     1       7.201   5.394  -0.225  0.00  0.00    +0.068 A 
ATOM     34  C   UNL     1       7.637   4.263   0.454  0.00  0.00    +0.029 A 
ATOM     35  C   UNL     1       8.929   3.809   0.279  0.00  0.00    +0.022 A 
ATOM     36  C   UNL     1       9.793   4.486  -0.564  0.00  0.00    +0.041 A 
ATOM     37  C   UNL     1       9.364   5.616  -1.238  0.00  0.00    +0.022 A 
ATOM     38  C   UNL     1       8.070   6.071  -1.070  0.00  0.00    +0.029 A 
ATOM     39 CL   UNL     1      11.419   3.917  -0.777  0.00  0.00    -0.084 Cl
ENDBRANCH   5  33
TORSDOF 3
