REMARK  Name = ZINC12205132
REMARK  7 active torsions:
REMARK  status: ('A' for Active; 'I' for Inactive)
REMARK    1  A    between atoms: C_1  and  C_2
REMARK    2  A    between atoms: N_8  and  C_11
REMARK    3  A    between atoms: C_15  and  C_17
REMARK    4  A    between atoms: N_19  and  C_20
REMARK    5  A    between atoms: C_20  and  C_21
REMARK    6  A    between atoms: C_24  and  S_27
REMARK    7  A    between atoms: S_27  and  N_30
REMARK                            x       y       z     vdW  Elec       q    Type
REMARK                         _______ _______ _______ _____ _____    ______ ____
ROOT
ATOM      1  C   UNL     1      -0.016   1.344   0.009  0.00  0.00    +0.246 C 
ATOM      2  O   UNL     1       1.028   1.966   0.003  0.00  0.00    -0.270 OA
ATOM      3  N   UNL     1       0.002  -0.004   0.002  0.00  0.00    -0.307 N 
ATOM      4  H   UNL     1      -0.831  -0.500   0.007  0.00  0.00    +0.149 HD
ENDROOT
BRANCH   1   9
ATOM      5  C   UNL     1      -3.712   2.037   0.030  0.00  0.00    +0.060 A 
ATOM      6  C   UNL     1      -3.723   3.427   0.037  0.00  0.00    +0.027 A 
ATOM      7  C   UNL     1      -2.536   4.133   0.036  0.00  0.00    +0.022 A 
ATOM      8  C   UNL     1      -1.328   3.462   0.027  0.00  0.00    +0.053 A 
ATOM      9  C   UNL     1      -1.306   2.065   0.019  0.00  0.00    +0.057 A 
ATOM     10  C   UNL     1      -2.506   1.353   0.015  0.00  0.00    +0.039 A 
ATOM     11 CL   UNL     1       0.161   4.354   0.026  0.00  0.00    -0.083 Cl
BRANCH   5  18
ATOM     12  C   UNL     1      -6.498  -1.483  -0.836  0.00  0.00    +0.019 C 
ATOM     13  C   UNL     1      -6.461  -0.536   0.366  0.00  0.00    +0.097 C 
ATOM     14  C   UNL     1      -7.501   0.599   0.169  0.00  0.00    +0.201 C 
ATOM     15  S   UNL     1      -6.392   1.888  -0.533  0.00  0.00    +0.053 S 
ATOM     16  O   UNL     1      -6.598   3.139   0.110  0.00  0.00    -0.155 OA
ATOM     17  O   UNL     1      -6.326   1.786  -1.948  0.00  0.00    -0.155 OA
ATOM     18  N   UNL     1      -4.918   1.327   0.031  0.00  0.00    -0.144 N 
ATOM     19  C   UNL     1      -5.097   0.075   0.478  0.00  0.00    +0.243 C 
ATOM     20  O   UNL     1      -4.177  -0.547   0.965  0.00  0.00    -0.273 OA
ENDBRANCH   5  18
ENDBRANCH   1   9
BRANCH   3  21
ATOM     21  C   UNL     1       1.281  -0.719  -0.014  0.00  0.00    +0.139 C 
BRANCH  21  22
ATOM     22  C   UNL     1       1.025  -2.204  -0.020  0.00  0.00    -0.030 A 
ATOM     23  C   UNL     1       0.925  -2.893   1.175  0.00  0.00    +0.007 A 
ATOM     24  C   UNL     1       0.687  -4.255   1.170  0.00  0.00    +0.029 A 
ATOM     25  C   UNL     1       0.557  -4.929  -0.030  0.00  0.00    +0.105 A 
ATOM     26  C   UNL     1       0.663  -4.242  -1.224  0.00  0.00    +0.029 A 
ATOM     27  C   UNL     1       0.897  -2.879  -1.219  0.00  0.00    +0.007 A 
BRANCH  25  28
ATOM     28  S   UNL     1       0.258  -6.666  -0.036  0.00  0.00    +0.056 S 
ATOM     29  O   UNL     1      -0.341  -6.979   1.214  0.00  0.00    -0.153 OA
ATOM     30  O   UNL     1      -0.367  -6.965  -1.277  0.00  0.00    -0.153 OA
BRANCH  28  31
ATOM     31  N   UNL     1       1.733  -7.417  -0.056  0.00  0.00    -0.204 NA
ATOM     32  H   UNL     1       1.840  -8.288   0.359  0.00  0.00    +0.144 HD
ATOM     33  H   UNL     1       2.491  -6.987  -0.481  0.00  0.00    +0.144 HD
ENDBRANCH  28  31
ENDBRANCH  25  28
ENDBRANCH  21  22
ENDBRANCH   3  21
TORSDOF 6
