REMARK  Name = ZINC66919677
REMARK  8 active torsions:
REMARK  status: ('A' for Active; 'I' for Inactive)
REMARK    1  A    between atoms: C_1  and  C_2
REMARK    2  A    between atoms: C_2  and  N_3
REMARK    3  A    between atoms: N_3  and  C_4
REMARK    4  A    between atoms: N_3  and  S_13
REMARK    5  A    between atoms: C_10  and  C_12
REMARK    6  A    between atoms: S_13  and  C_16
REMARK    7  A    between atoms: C_20  and  S_22
REMARK    8  A    between atoms: S_22  and  N_25
REMARK                            x       y       z     vdW  Elec       q    Type
REMARK                         _______ _______ _______ _____ _____    ______ ____
ROOT
ATOM      1  S   UNL     1      -1.997  -0.815   1.634  0.00  0.00    +0.061 S 
ATOM      2  O   UNL     1      -3.024  -1.780   1.455  0.00  0.00    -0.153 OA
ATOM      3  O   UNL     1      -0.893  -1.029   2.502  0.00  0.00    -0.153 OA
ENDROOT
BRANCH   1   4
ATOM      4  C   UNL     1      -2.785   0.665   2.176  0.00  0.00    +0.107 A 
ATOM      5  C   UNL     1      -2.068   1.609   2.887  0.00  0.00    +0.028 A 
ATOM      6  C   UNL     1      -2.686   2.770   3.313  0.00  0.00    +0.004 A 
ATOM      7  C   UNL     1      -4.021   2.987   3.026  0.00  0.00    +0.028 A 
ATOM      8  C   UNL     1      -4.737   2.044   2.314  0.00  0.00    +0.107 A 
ATOM      9  C   UNL     1      -4.118   0.885   1.885  0.00  0.00    +0.057 A 
BRANCH   8  10
ATOM     10  S   UNL     1      -6.439   2.320   1.950  0.00  0.00    +0.056 S 
ATOM     11  O   UNL     1      -7.023   1.041   1.745  0.00  0.00    -0.153 OA
ATOM     12  O   UNL     1      -6.921   3.230   2.929  0.00  0.00    -0.153 OA
BRANCH  10  13
ATOM     13  N   UNL     1      -6.506   3.110   0.496  0.00  0.00    -0.204 NA
ATOM     14  H   UNL     1      -5.687   3.327   0.024  0.00  0.00    +0.144 HD
ATOM     15  H   UNL     1      -7.365   3.355   0.117  0.00  0.00    +0.144 HD
ENDBRANCH  10  13
ENDBRANCH   8  10
ENDBRANCH   1   4
BRANCH   1  16
ATOM     16  N   UNL     1      -1.366  -0.512   0.133  0.00  0.00    -0.174 NA
BRANCH  16  17
ATOM     17  C   UNL     1      -2.173  -0.760  -1.065  0.00  0.00    +0.083 C 
ATOM     18  C   UNL     1      -2.231   0.512  -1.913  0.00  0.00    +0.021 C 
ATOM     19  C   UNL     1      -3.074   0.252  -3.164  0.00  0.00    +0.002 C 
ATOM     20  C   UNL     1      -2.441  -0.877  -3.980  0.00  0.00    +0.000 C 
ATOM     21  C   UNL     1      -2.382  -2.148  -3.131  0.00  0.00    +0.005 C 
ATOM     22  C   UNL     1      -1.539  -1.889  -1.881  0.00  0.00    +0.005 C 
ATOM     23  C   UNL     1      -1.481  -3.161  -1.032  0.00  0.00    +0.009 C 
ENDBRANCH  16  17
BRANCH  16  25
ATOM     24  C   UNL     1      -0.038   1.533  -0.064  0.00  0.00    +0.022 C 
ATOM     25  C   UNL     1      -0.001   0.005   0.002  0.00  0.00    +0.106 C 
ENDBRANCH  16  25
ENDBRANCH   1  16
TORSDOF 6
