REMARK  Name = ZINC02351992
REMARK  5 active torsions:
REMARK  status: ('A' for Active; 'I' for Inactive)
REMARK    1  A    between atoms: C_1  and  C_2
REMARK    2  A    between atoms: C_11  and  N_26
REMARK    3  A    between atoms: C_13  and  S_15
REMARK    4  A    between atoms: S_15  and  C_16
REMARK    5  A    between atoms: C_16  and  C_17
REMARK                            x       y       z     vdW  Elec       q    Type
REMARK                         _______ _______ _______ _____ _____    ______ ____
ROOT
ATOM      1  C   UNL     1      -1.600  18.076  -1.909  0.00  0.00    +0.008 C 
ATOM      2  C   UNL     1      -1.565  16.546  -1.899  0.00  0.00    -0.009 C 
ATOM      3  C   UNL     1      -0.535  16.062  -0.875  0.00  0.00    +0.008 C 
ATOM      4  C   UNL     1      -0.316  14.557  -1.030  0.00  0.00    +0.037 C 
ATOM      5  C   UNL     1      -1.670  13.855  -0.984  0.00  0.00    -0.025 A 
ATOM      6  C   UNL     1      -2.809  14.541  -1.201  0.00  0.00    -0.004 A 
ATOM      7  S   UNL     1      -4.107  13.342  -1.050  0.00  0.00    -0.073 S 
ATOM      8  C   UNL     1      -3.114  11.916  -0.697  0.00  0.00    +0.115 A 
ATOM      9  C   UNL     1      -1.799  12.422  -0.706  0.00  0.00    +0.051 A 
ATOM     10  C   UNL     1      -0.773  11.472  -0.445  0.00  0.00    +0.129 A 
ATOM     11  N   UNL     1      -1.103  10.213  -0.210  0.00  0.00    -0.207 NA
ATOM     12  C   UNL     1      -2.365   9.800  -0.221  0.00  0.00    +0.191 A 
ATOM     13  N   UNL     1      -3.362  10.642  -0.459  0.00  0.00    -0.214 NA
ATOM     14  C   UNL     1      -2.946  16.002  -1.503  0.00  0.00    +0.046 C 
ENDROOT
BRANCH  10  15
ATOM     15  N   UNL     1       0.554  11.861  -0.430  0.00  0.00    -0.343 N 
ATOM     16  H   UNL     1       1.222  11.294  -0.013  0.00  0.00    +0.144 HD
ATOM     17  H   UNL     1       0.818  12.701  -0.838  0.00  0.00    +0.144 HD
ENDBRANCH  10  15
BRANCH  12  18
ATOM     18  S   UNL     1      -2.723   8.104   0.093  0.00  0.00    -0.077 S 
BRANCH  18  19
ATOM     19  C   UNL     1      -1.045   7.469   0.337  0.00  0.00    +0.173 C 
BRANCH  19  20
ATOM     20  C   UNL     1      -1.105   5.992   0.628  0.00  0.00    +0.229 C 
ATOM     21  O   UNL     1      -2.176   5.424   0.667  0.00  0.00    -0.275 OA
ATOM     22  N   UNL     1       0.032   5.301   0.845  0.00  0.00    -0.270 N 
ATOM     23  C   UNL     1      -0.013   3.918   1.011  0.00  0.00    +0.125 A 
ATOM     24  C   UNL     1       1.171   3.197   1.112  0.00  0.00    +0.044 A 
ATOM     25  C   UNL     1       1.112   1.825   1.281  0.00  0.00    +0.005 A 
ATOM     26  C   UNL     1      -0.135   1.217   1.333  0.00  0.00    +0.020 A 
ATOM     27  C   UNL     1      -1.271   1.995   1.226  0.00  0.00    +0.113 A 
ATOM     28  N   UNL     1      -1.183   3.303   1.070  0.00  0.00    -0.240 NA
ATOM     29  H   UNL     1       0.882   5.767   0.886  0.00  0.00    +0.156 HD
ENDBRANCH  19  20
ENDBRANCH  18  19
ENDBRANCH  12  18
TORSDOF 4
