REMARK  Name = ZINC01372486
REMARK  11 active torsions:
REMARK  status: ('A' for Active; 'I' for Inactive)
REMARK    1  A    between atoms: C_1  and  O_2
REMARK    2  A    between atoms: O_2  and  C_3
REMARK    3  A    between atoms: C_8  and  C_9
REMARK    4  A    between atoms: C_9  and  N_10
REMARK    5  A    between atoms: N_10  and  C_11
REMARK    6  A    between atoms: C_11  and  C_13
REMARK    7  A    between atoms: C_11  and  C_20
REMARK    8  A    between atoms: N_22  and  C_23
REMARK    9  A    between atoms: C_23  and  C_24
REMARK   10  A    between atoms: C_30  and  C_32
REMARK   11  A    between atoms: C_32  and  N_33
REMARK                            x       y       z     vdW  Elec       q    Type
REMARK                         _______ _______ _______ _____ _____    ______ ____
ROOT
ATOM      1  N   UNL     1       0.867  -2.695  -0.831  0.00  0.00    -0.280 N 
ATOM      2  C   UNL     1       0.588  -1.657  -1.644  0.00  0.00    +0.238 C 
ATOM      3  O   UNL     1       1.062  -1.616  -2.760  0.00  0.00    -0.274 OA
ENDROOT
BRANCH   1   4
ATOM      4  C   UNL     1       0.213  -2.798   0.476  0.00  0.00    +0.147 C 
BRANCH   4  10
ATOM      5  C   UNL     1      -0.881  -5.051   0.345  0.00  0.00    +0.125 A 
ATOM      6  C   UNL     1      -2.010  -5.850   0.241  0.00  0.00    +0.046 A 
ATOM      7  C   UNL     1      -3.260  -5.270   0.145  0.00  0.00    +0.004 A 
ATOM      8  C   UNL     1      -3.386  -3.893   0.153  0.00  0.00    +0.001 A 
ATOM      9  C   UNL     1      -2.262  -3.094   0.256  0.00  0.00    +0.009 A 
ATOM     10  C   UNL     1      -1.010  -3.670   0.358  0.00  0.00    +0.012 A 
BRANCH   5  12
ATOM     11  C   UNL     1       0.400  -7.044   0.537  0.00  0.00    +0.277 C 
ATOM     12  O   UNL     1       0.350  -5.620   0.440  0.00  0.00    -0.495 OA
ENDBRANCH   5  12
ENDBRANCH   4  10
ENDBRANCH   1   4
BRANCH   1  13
ATOM     13  C   UNL     1       1.825  -3.719  -1.254  0.00  0.00    +0.195 C 
BRANCH  13  14
ATOM     14  C   UNL     1       3.202  -3.113  -1.346  0.00  0.00    +0.017 A 
ATOM     15  C   UNL     1       3.349  -1.740  -1.409  0.00  0.00    +0.009 A 
ATOM     16  C   UNL     1       4.612  -1.183  -1.494  0.00  0.00    +0.001 A 
ATOM     17  C   UNL     1       5.728  -1.999  -1.514  0.00  0.00    +0.003 A 
ATOM     18  C   UNL     1       5.583  -3.372  -1.451  0.00  0.00    +0.039 A 
ATOM     19  C   UNL     1       4.319  -3.930  -1.361  0.00  0.00    +0.129 A 
ATOM     20  F   UNL     1       4.176  -5.272  -1.294  0.00  0.00    -0.205 F 
ENDBRANCH  13  14
BRANCH  13  21
ATOM     21  C   UNL     1       1.422  -4.258  -2.603  0.00  0.00    +0.238 C 
ATOM     22  O   UNL     1       0.480  -3.772  -3.192  0.00  0.00    -0.273 OA
ATOM     23  N   UNL     1       2.109  -5.278  -3.153  0.00  0.00    -0.309 N 
ATOM     24  H   UNL     1       2.862  -5.667  -2.682  0.00  0.00    +0.149 HD
BRANCH  23  25
ATOM     25  C   UNL     1       1.717  -5.801  -4.465  0.00  0.00    +0.139 C 
BRANCH  25  26
ATOM     26  C   UNL     1       2.638  -6.930  -4.850  0.00  0.00    -0.030 A 
ATOM     27  C   UNL     1       3.798  -6.666  -5.554  0.00  0.00    +0.005 A 
ATOM     28  C   UNL     1       4.642  -7.702  -5.908  0.00  0.00    +0.000 A 
ATOM     29  C   UNL     1       4.327  -9.002  -5.558  0.00  0.00    +0.000 A 
ATOM     30  C   UNL     1       3.167  -9.265  -4.854  0.00  0.00    +0.000 A 
ATOM     31  C   UNL     1       2.325  -8.229  -4.496  0.00  0.00    +0.005 A 
ENDBRANCH  25  26
ENDBRANCH  23  25
ENDBRANCH  13  21
ENDBRANCH   1  13
BRANCH   2  32
ATOM     32  C   UNL     1      -0.314  -0.547  -1.167  0.00  0.00    +0.241 C 
BRANCH  32  33
ATOM     33  N   UNL     1      -0.545   0.399  -2.261  0.00  0.00    -0.235 N 
ATOM     34  C   UNL     1       0.210   1.507  -2.563  0.00  0.00    +0.090 A 
ATOM     35  C   UNL     1       1.348   2.083  -2.007  0.00  0.00    +0.029 A 
ATOM     36  C   UNL     1       1.871   3.220  -2.556  0.00  0.00    +0.002 A 
ATOM     37  C   UNL     1       1.277   3.808  -3.665  0.00  0.00    +0.002 A 
ATOM     38  C   UNL     1       0.161   3.263  -4.229  0.00  0.00    +0.032 A 
ATOM     39  C   UNL     1      -0.396   2.097  -3.686  0.00  0.00    +0.113 A 
ATOM     40  N   UNL     1      -1.465   1.346  -4.016  0.00  0.00    -0.129 NA
ATOM     41  N   UNL     1      -1.576   0.349  -3.211  0.00  0.00    -0.064 NA
ENDBRANCH  32  33
ENDBRANCH   2  32
TORSDOF 10
