REMARK  Name = ZINC06177964
REMARK  10 active torsions:
REMARK  status: ('A' for Active; 'I' for Inactive)
REMARK    1  A    between atoms: C_1  and  C_2
REMARK    2  A    between atoms: C_4  and  C_41
REMARK    3  A    between atoms: C_9  and  C_14
REMARK    4  A    between atoms: C_14  and  C_16
REMARK    5  A    between atoms: C_14  and  N_74
REMARK    6  A    between atoms: N_20  and  C_21
REMARK    7  A    between atoms: C_21  and  C_22
REMARK    8  A    between atoms: N_30  and  C_33
REMARK    9  A    between atoms: C_38  and  O_39
REMARK   10  A    between atoms: O_39  and  C_40
REMARK                            x       y       z     vdW  Elec       q    Type
REMARK                         _______ _______ _______ _____ _____    ______ ____
ROOT
ATOM      1  C   UNL     1       3.751   2.138  -0.006  0.00  0.00    +0.039 C 
ENDROOT
BRANCH   1  10
ATOM      2  C   UNL     1      -3.705   2.105  -0.158  0.00  0.00    +0.044 C 
ATOM      3  C   UNL     1      -2.389   1.374  -0.095  0.00  0.00    -0.050 A 
ATOM      4  C   UNL     1      -2.374  -0.012  -0.026  0.00  0.00    +0.008 A 
ATOM      5  C   UNL     1      -1.182  -0.701   0.033  0.00  0.00    -0.026 A 
ATOM      6  C   UNL     1       0.021  -0.002   0.022  0.00  0.00    +0.052 A 
ATOM      7  C   UNL     1       0.002   1.404  -0.049  0.00  0.00    -0.001 A 
ATOM      8  C   UNL     1      -1.220   2.082  -0.102  0.00  0.00    +0.013 A 
ATOM      9  C   UNL     1       1.273   2.131  -0.059  0.00  0.00    +0.017 A 
ATOM     10  C   UNL     1       2.426   1.420   0.001  0.00  0.00    +0.011 A 
ATOM     11  C   UNL     1       2.390   0.011   0.071  0.00  0.00    +0.251 A 
ATOM     12  O   UNL     1       3.438  -0.608   0.124  0.00  0.00    -0.268 OA
ATOM     13  N   UNL     1       1.228  -0.665   0.081  0.00  0.00    -0.322 N 
ATOM     14  H   UNL     1       1.239  -1.634   0.129  0.00  0.00    +0.169 HD
ATOM     15  C   UNL     1      -1.181  -2.206   0.108  0.00  0.00    +0.046 C 
ENDBRANCH   1  10
BRANCH   1  21
ATOM     16  C   UNL     1       5.959   2.139  -1.002  0.00  0.00    -0.058 C 
ATOM     17  C   UNL     1       6.826   1.489  -2.083  0.00  0.00    +0.086 C 
ATOM     18  N   UNL     1       6.232   1.745  -3.403  0.00  0.00    -0.331 N 
ATOM     19  C   UNL     1       4.870   1.201  -3.479  0.00  0.00    +0.086 C 
ATOM     20  C   UNL     1       4.002   1.850  -2.398  0.00  0.00    -0.058 C 
ATOM     21  N   UNL     1       4.598   1.566  -1.075  0.00  0.00    +0.391 N 
ATOM     22  H   UNL     1       4.657   0.549  -0.947  0.00  0.00    -0.080 HD
BRANCH  18  23
ATOM     23  C   UNL     1       7.037   1.227  -4.424  0.00  0.00    +0.072 A 
ATOM     24  C   UNL     1       8.108   0.402  -4.114  0.00  0.00    +0.027 A 
ATOM     25  C   UNL     1       8.902  -0.108  -5.125  0.00  0.00    +0.002 A 
ATOM     26  C   UNL     1       8.631   0.201  -6.444  0.00  0.00    +0.004 A 
ATOM     27  C   UNL     1       7.565   1.023  -6.761  0.00  0.00    +0.047 A 
ATOM     28  C   UNL     1       6.761   1.534  -5.755  0.00  0.00    +0.141 A 
BRANCH  28  29
ATOM     29  O   UNL     1       5.709   2.338  -6.065  0.00  0.00    -0.493 OA
ATOM     30  C   UNL     1       5.487   2.610  -7.450  0.00  0.00    +0.277 C 
ENDBRANCH  28  29
ENDBRANCH  18  23
ENDBRANCH   1  21
BRANCH   1  31
ATOM     31  C   UNL     1       4.436   1.942   1.321  0.00  0.00    +0.143 A 
ATOM     32  N   UNL     1       5.028   0.852   1.743  0.00  0.00    -0.115 NA
ATOM     33  N   UNL     1       5.492   1.082   2.923  0.00  0.00    -0.023 NA
ATOM     34  N   UNL     1       5.205   2.288   3.268  0.00  0.00    -0.044 NA
ATOM     35  N   UNL     1       4.554   2.852   2.307  0.00  0.00    -0.228 N 
BRANCH  35  36
ATOM     36  C   UNL     1       4.040   4.223   2.291  0.00  0.00    +0.178 C 
BRANCH  36  37
ATOM     37  C   UNL     1       2.619   4.242   2.857  0.00  0.00    +0.140 C 
ATOM     38  C   UNL     1       2.026   5.663   2.738  0.00  0.00    +0.035 C 
ATOM     39  C   UNL     1       1.248   5.808   4.074  0.00  0.00    +0.031 C 
ATOM     40  C   UNL     1       2.156   4.998   5.033  0.00  0.00    +0.160 C 
ATOM     41  O   UNL     1       2.646   3.899   4.247  0.00  0.00    -0.375 OA
ENDBRANCH  36  37
ENDBRANCH  35  36
ENDBRANCH   1  31
TORSDOF 7
