REMARK  Name = ZINC40734800
REMARK  7 active torsions:
REMARK  status: ('A' for Active; 'I' for Inactive)
REMARK    1  A    between atoms: C_1  and  C_2
REMARK    2  A    between atoms: C_7  and  C_9
REMARK    3  A    between atoms: C_7  and  C_10
REMARK    4  A    between atoms: C_14  and  N_27
REMARK    5  A    between atoms: C_15  and  N_19
REMARK    6  A    between atoms: N_19  and  C_20
REMARK    7  A    between atoms: N_19  and  C_21
REMARK                            x       y       z     vdW  Elec       q    Type
REMARK                         _______ _______ _______ _____ _____    ______ ____
ROOT
ATOM      1  C   UNL     1       0.096   1.898  -0.452  0.00  0.00    +0.013 C 
ATOM      2  C   UNL     1       0.008   0.368  -0.345  0.00  0.00    -0.014 C 
ATOM      3  C   UNL     1      -1.458  -0.144  -0.391  0.00  0.00    +0.030 C 
ATOM      4  C   UNL     1      -1.202  -1.627  -0.760  0.00  0.00    +0.076 C 
ATOM      5  C   UNL     1      -0.699  -2.327   0.499  0.00  0.00    +0.029 C 
ATOM      6  C   UNL     1       0.521  -1.672   1.123  0.00  0.00    -0.033 C 
ATOM      7  C   UNL     1       0.637  -0.171   0.939  0.00  0.00    +0.014 C 
ATOM      8  C   UNL     1       1.796  -2.364   0.618  0.00  0.00    +0.011 C 
ATOM      9  C   UNL     1       0.452  -1.941   2.647  0.00  0.00    +0.011 C 
ATOM     10  N   UNL     1      -0.115  -1.587  -1.759  0.00  0.00    -0.310 N 
ATOM     11  C   UNL     1       0.644  -0.343  -1.561  0.00  0.00    +0.113 C 
ATOM     12  C   UNL     1       0.142  -2.552  -2.727  0.00  0.00    +0.147 A 
ATOM     13  C   UNL     1       1.123  -2.338  -3.697  0.00  0.00    +0.104 A 
ATOM     14  C   UNL     1       1.340  -3.340  -4.645  0.00  0.00    +0.128 A 
ATOM     15  N   UNL     1       0.610  -4.451  -4.588  0.00  0.00    -0.333 N 
ATOM     16  C   UNL     1      -0.306  -4.612  -3.656  0.00  0.00    +0.200 A 
ATOM     17  N   UNL     1      -0.539  -3.695  -2.739  0.00  0.00    -0.221 NA
ATOM     18  H   UNL     1       0.754  -5.152  -5.243  0.00  0.00    +0.168 HD
ENDROOT
BRANCH  13  19
ATOM     19  N   UNL     1       1.869  -1.150  -3.719  0.00  0.00    -0.353 N 
ATOM     20  H   UNL     1       1.776  -0.505  -3.000  0.00  0.00    +0.143 HD
ATOM     21  H   UNL     1       2.478  -0.973  -4.453  0.00  0.00    +0.143 HD
ENDBRANCH  13  19
BRANCH  14  22
ATOM     22  N   UNL     1       2.305  -3.178  -5.634  0.00  0.00    -0.288 N 
ATOM     23  C   UNL     1       1.973  -2.469  -6.872  0.00  0.00    +0.137 C 
BRANCH  22  24
ATOM     24  C   UNL     1       3.590  -3.693  -5.447  0.00  0.00    +0.035 A 
ATOM     25  C   UNL     1       3.872  -4.475  -4.334  0.00  0.00    +0.023 A 
ATOM     26  C   UNL     1       5.143  -4.982  -4.152  0.00  0.00    +0.002 A 
ATOM     27  C   UNL     1       6.136  -4.711  -5.075  0.00  0.00    +0.000 A 
ATOM     28  C   UNL     1       5.860  -3.932  -6.184  0.00  0.00    +0.002 A 
ATOM     29  C   UNL     1       4.588  -3.428  -6.375  0.00  0.00    +0.023 A 
ENDBRANCH  22  24
ENDBRANCH  14  22
TORSDOF 3
