REMARK  Name = ZINC32983724
REMARK  8 active torsions:
REMARK  status: ('A' for Active; 'I' for Inactive)
REMARK    1  A    between atoms: C_1  and  C_2
REMARK    2  A    between atoms: C_8  and  C_12
REMARK    3  A    between atoms: C_12  and  C_13
REMARK    4  A    between atoms: C_13  and  N_14
REMARK    5  A    between atoms: C_15  and  C_17
REMARK    6  A    between atoms: C_27  and  C_28
REMARK    7  A    between atoms: C_33  and  O_34
REMARK    8  A    between atoms: O_34  and  C_35
REMARK                            x       y       z     vdW  Elec       q    Type
REMARK                         _______ _______ _______ _____ _____    ______ ____
ROOT
ATOM      1  C   UNL     1       3.461   1.655   0.379  0.00  0.00    +0.039 A 
ATOM      2  C   UNL     1       3.450   3.030   0.623  0.00  0.00    +0.017 A 
ATOM      3  C   UNL     1       2.252   3.696   0.765  0.00  0.00    +0.049 A 
ATOM      4  C   UNL     1       1.054   3.003   0.665  0.00  0.00    +0.150 A 
ATOM      5  C   UNL     1       1.056   1.628   0.421  0.00  0.00    +0.077 A 
ATOM      6  C   UNL     1       2.256   0.955   0.279  0.00  0.00    +0.040 A 
ATOM      7  N   UNL     1      -0.155   0.929   0.319  0.00  0.00    -0.276 N 
ATOM      8  C   UNL     1      -1.305   1.632   0.181  0.00  0.00    +0.284 C 
ATOM      9  O   UNL     1      -2.378   1.070   0.070  0.00  0.00    -0.266 OA
ATOM     10  C   UNL     1      -1.206   3.105   0.174  0.00  0.00    +0.191 C 
ATOM     11  C   UNL     1      -2.140   3.870  -0.437  0.00  0.00    +0.063 C 
ATOM     12  O   UNL     1      -0.129   3.663   0.807  0.00  0.00    -0.449 OA
ATOM     13  H   UNL     1      -0.159  -0.171   0.351  0.00  0.00    +0.155 HD
ENDROOT
BRANCH  11  14
ATOM     14  C   UNL     1      -2.096   5.332  -0.299  0.00  0.00    +0.020 A 
ATOM     15  C   UNL     1      -1.349   5.921   0.727  0.00  0.00    +0.011 A 
ATOM     16  C   UNL     1      -1.312   7.293   0.849  0.00  0.00    +0.001 A 
ATOM     17  C   UNL     1      -2.012   8.093  -0.039  0.00  0.00    +0.004 A 
ATOM     18  C   UNL     1      -2.755   7.525  -1.056  0.00  0.00    +0.046 A 
ATOM     19  C   UNL     1      -2.800   6.148  -1.199  0.00  0.00    +0.127 A 
BRANCH  19  20
ATOM     20  O   UNL     1      -3.524   5.589  -2.202  0.00  0.00    -0.495 OA
ATOM     21  C   UNL     1      -4.214   6.482  -3.079  0.00  0.00    +0.277 C 
ENDBRANCH  19  20
ENDBRANCH  11  14
BRANCH   1  23
ATOM     22  N   UNL     1       5.907   1.618   0.324  0.00  0.00    -0.311 N 
ATOM     23  C   UNL     1       4.745   0.942   0.227  0.00  0.00    +0.244 C 
ATOM     24  O   UNL     1       4.754  -0.255   0.014  0.00  0.00    -0.270 OA
ATOM     25  H   UNL     1       5.899   2.701   0.517  0.00  0.00    +0.149 HD
BRANCH  22  26
ATOM     26  C   UNL     1       7.181   0.910   0.173  0.00  0.00    +0.109 C 
BRANCH  26  27
ATOM     27  C   UNL     1       8.336   1.901   0.327  0.00  0.00    +0.056 C 
BRANCH  27  35
ATOM     28  C   UNL     1      10.603   0.960  -4.849  0.00  0.00    +0.044 C 
ATOM     29  C   UNL     1      10.912   0.692  -3.398  0.00  0.00    -0.050 A 
ATOM     30  C   UNL     1      12.074   0.015  -3.055  0.00  0.00    +0.005 A 
ATOM     31  C   UNL     1      12.375  -0.240  -1.736  0.00  0.00    +0.026 A 
ATOM     32  C   UNL     1      11.507   0.184  -0.735  0.00  0.00    +0.047 A 
ATOM     33  C   UNL     1      10.328   0.864  -1.088  0.00  0.00    +0.003 A 
ATOM     34  C   UNL     1      10.045   1.118  -2.431  0.00  0.00    +0.013 A 
ATOM     35  C   UNL     1       9.646   1.173   0.172  0.00  0.00    -0.021 A 
ATOM     36  C   UNL     1      10.408   0.680   1.161  0.00  0.00    +0.087 A 
ATOM     37  N   UNL     1      11.524   0.086   0.639  0.00  0.00    -0.360 N 
ATOM     38  H   UNL     1      12.361  -0.419   1.144  0.00  0.00    +0.165 HD
ENDBRANCH  27  35
ENDBRANCH  26  27
ENDBRANCH  22  26
ENDBRANCH   1  23
TORSDOF 6
