REMARK  Name = ZINC45333875
REMARK  6 active torsions:
REMARK  status: ('A' for Active; 'I' for Inactive)
REMARK    1  A    between atoms: C_3  and  O_9
REMARK    2  A    between atoms: C_6  and  C_7
REMARK    3  A    between atoms: O_9  and  C_10
REMARK    4  A    between atoms: C_10  and  C_11
REMARK    5  A    between atoms: N_13  and  N_14
REMARK    6  A    between atoms: C_23  and  O_24
REMARK                            x       y       z     vdW  Elec       q    Type
REMARK                         _______ _______ _______ _____ _____    ______ ____
ROOT
ATOM      1  C   UNL     1       5.942   2.276  -0.202  0.00  0.00    +0.270 C 
ATOM      2  O   UNL     1       5.774   3.454  -0.434  0.00  0.00    -0.270 OA
ATOM      3  N   UNL     1       7.188   1.799  -0.006  0.00  0.00    -0.203 N 
ATOM      4  H   UNL     1       7.322   0.857   0.180  0.00  0.00    +0.177 HD
ENDROOT
BRANCH   3   5
ATOM      5  N   UNL     1       8.200   2.596  -0.067  0.00  0.00    -0.174 NA
ATOM      6  C   UNL     1       9.419   2.116   0.018  0.00  0.00    +0.152 C 
ATOM      7  C   UNL     1       9.839   0.696   0.018  0.00  0.00    +0.035 A 
ATOM      8  C   UNL     1       9.159  -0.511  -0.062  0.00  0.00    +0.032 A 
ATOM      9  C   UNL     1       9.864  -1.700  -0.033  0.00  0.00    +0.043 A 
ATOM     10  C   UNL     1      11.246  -1.688   0.076  0.00  0.00    +0.042 A 
ATOM     11  C   UNL     1      11.938  -0.497   0.156  0.00  0.00    +0.068 A 
ATOM     12  C   UNL     1      11.244   0.718   0.129  0.00  0.00    +0.095 A 
ATOM     13  N   UNL     1      11.668   2.009   0.191  0.00  0.00    -0.210 NA
ATOM     14  C   UNL     1      10.685   2.868   0.127  0.00  0.00    +0.241 C 
ATOM     15 CL   UNL     1      13.668  -0.506   0.291  0.00  0.00    -0.081 Cl
ATOM     16 CL   UNL     1       9.016  -3.211  -0.132  0.00  0.00    -0.083 Cl
BRANCH  14  17
ATOM     17  O   UNL     1      10.806   4.217   0.160  0.00  0.00    -0.491 OA
ATOM     18  H   UNL     1      11.719   4.528   0.235  0.00  0.00    +0.294 HD
ENDBRANCH  14  17
ENDBRANCH   3   5
BRANCH   1  19
ATOM     19  C   UNL     1       4.759   1.346  -0.131  0.00  0.00    +0.326 C 
BRANCH  19  20
ATOM     20  O   UNL     1       3.559   2.083  -0.371  0.00  0.00    -0.483 OA
BRANCH  20  23
ATOM     21  C   UNL     1       0.004   1.343  -0.541  0.00  0.00    +0.022 A 
ATOM     22  C   UNL     1       1.189   2.044  -0.568  0.00  0.00    +0.047 A 
ATOM     23  C   UNL     1       2.393   1.388  -0.342  0.00  0.00    +0.121 A 
ATOM     24  C   UNL     1       2.407   0.021  -0.089  0.00  0.00    +0.047 A 
ATOM     25  C   UNL     1       1.226  -0.688  -0.059  0.00  0.00    +0.022 A 
ATOM     26  C   UNL     1       0.013  -0.031  -0.286  0.00  0.00    +0.052 A 
BRANCH  26  27
ATOM     27  C   UNL     1      -1.216  -0.764  -0.256  0.00  0.00    +0.099 C 
ATOM     28  N   UNL     1      -2.192  -1.346  -0.233  0.00  0.00    -0.191 NA
ENDBRANCH  26  27
ENDBRANCH  20  23
ENDBRANCH  19  20
ENDBRANCH   1  19
TORSDOF 6
