REMARK  Name = ZINC27695868
REMARK  18 active torsions:
REMARK  status: ('A' for Active; 'I' for Inactive)
REMARK    1  A    between atoms: C_1  and  C_2
REMARK    2  A    between atoms: C_2  and  C_3
REMARK    3  A    between atoms: C_3  and  C_5
REMARK    4  A    between atoms: C_3  and  N_6
REMARK    5  A    between atoms: N_6  and  C_7
REMARK    6  A    between atoms: N_6  and  C_36
REMARK    7  A    between atoms: C_7  and  C_8
REMARK    8  A    between atoms: C_8  and  C_10
REMARK    9  A    between atoms: C_8  and  O_35
REMARK   10  A    between atoms: C_10  and  N_11
REMARK   11  A    between atoms: C_19  and  C_20
REMARK   12  A    between atoms: C_20  and  C_22
REMARK   13  A    between atoms: C_20  and  C_23
REMARK   14  A    between atoms: C_28  and  O_33
REMARK   15  A    between atoms: O_33  and  C_34
REMARK   16  A    between atoms: C_36  and  C_38
REMARK   17  A    between atoms: C_36  and  C_39
REMARK   18  A    between atoms: C_39  and  C_40
REMARK                            x       y       z     vdW  Elec       q    Type
REMARK                         _______ _______ _______ _____ _____    ______ ____
ROOT
ATOM      1  N   UNL     1      -0.424  -5.582   3.796  0.00  0.00    -0.325 N 
ATOM      2  C   UNL     1      -0.991  -5.849   5.026  0.00  0.00    +0.069 A 
ATOM      3  C   UNL     1      -0.581  -6.561   6.145  0.00  0.00    +0.028 A 
ATOM      4  C   UNL     1      -1.408  -6.639   7.245  0.00  0.00    +0.002 A 
ATOM      5  C   UNL     1      -2.646  -6.012   7.240  0.00  0.00    +0.002 A 
ATOM      6  C   UNL     1      -3.066  -5.308   6.148  0.00  0.00    +0.030 A 
ATOM      7  C   UNL     1      -2.244  -5.215   5.021  0.00  0.00    +0.089 A 
ATOM      8  N   UNL     1      -2.373  -4.601   3.817  0.00  0.00    -0.232 NA
ATOM      9  C   UNL     1      -1.310  -4.821   3.099  0.00  0.00    +0.118 A 
ENDROOT
BRANCH   9  10
ATOM     10  C   UNL     1      -1.090  -4.301   1.701  0.00  0.00    +0.082 C 
ATOM     11  C   UNL     1      -2.184  -4.841   0.778  0.00  0.00    +0.020 C 
BRANCH  10  12
ATOM     12  C   UNL     1      -1.140  -2.795   1.711  0.00  0.00    -0.037 A 
ATOM     13  C   UNL     1      -2.299  -2.150   2.139  0.00  0.00    +0.005 A 
ATOM     14  C   UNL     1      -2.377  -0.791   2.160  0.00  0.00    +0.009 A 
ATOM     15  C   UNL     1      -1.274  -0.025   1.745  0.00  0.00    -0.014 A 
ATOM     16  C   UNL     1      -1.318   1.379   1.753  0.00  0.00    +0.054 A 
ATOM     17  C   UNL     1      -0.227   2.091   1.343  0.00  0.00    +0.121 A 
ATOM     18  C   UNL     1       0.935   1.441   0.915  0.00  0.00    +0.046 A 
ATOM     19  C   UNL     1       1.009   0.084   0.895  0.00  0.00    +0.012 A 
ATOM     20  C   UNL     1      -0.095  -0.681   1.311  0.00  0.00    -0.017 A 
ATOM     21  C   UNL     1      -0.052  -2.086   1.303  0.00  0.00    +0.012 A 
BRANCH  17  22
ATOM     22  O   UNL     1      -0.271   3.450   1.351  0.00  0.00    -0.495 OA
ATOM     23  C   UNL     1       0.900   4.139   0.910  0.00  0.00    +0.277 C 
ENDBRANCH  17  22
ENDBRANCH  10  12
ENDBRANCH   9  10
BRANCH   1  24
ATOM     24  C   UNL     1       0.888  -6.034   3.328  0.00  0.00    +0.153 C 
BRANCH  24  25
ATOM     25  C   UNL     1       1.949  -4.997   3.702  0.00  0.00    +0.118 C 
BRANCH  25  26
ATOM     26  O   UNL     1       1.695  -3.780   2.997  0.00  0.00    -0.392 OA
ATOM     27  H   UNL     1       0.742  -3.250   3.141  0.00  0.00    +0.210 HD
ENDBRANCH  25  26
BRANCH  25  28
ATOM     28  C   UNL     1       3.334  -5.525   3.325  0.00  0.00    -0.045 C 
BRANCH  28  29
ATOM     29  N   UNL     1       4.353  -4.532   3.690  0.00  0.00    +0.385 N 
ATOM     30  H   UNL     1       4.003  -3.547   3.348  0.00  0.00    -0.081 HD
BRANCH  29  31
ATOM     31  C   UNL     1       4.527  -4.467   5.148  0.00  0.00    -0.072 C 
ATOM     32  C   UNL     1       5.241  -5.731   5.632  0.00  0.00    -0.013 C 
BRANCH  31  34
ATOM     33  C   UNL     1       4.592  -1.970   5.143  0.00  0.00    +0.002 C 
ATOM     34  C   UNL     1       5.365  -3.239   5.508  0.00  0.00    -0.019 C 
ENDBRANCH  31  34
ENDBRANCH  29  31
BRANCH  29  35
ATOM     35  C   UNL     1       5.629  -4.815   3.020  0.00  0.00    -0.072 C 
ATOM     36  C   UNL     1       5.849  -6.328   2.960  0.00  0.00    -0.013 C 
BRANCH  35  37
ATOM     37  C   UNL     1       5.595  -4.248   1.599  0.00  0.00    -0.019 C 
ATOM     38  C   UNL     1       5.494  -2.722   1.661  0.00  0.00    +0.002 C 
ENDBRANCH  35  37
ENDBRANCH  29  35
ENDBRANCH  28  29
ENDBRANCH  25  28
ENDBRANCH  24  25
ENDBRANCH   1  24
TORSDOF 12
