REMARK  Name = ZINC06442228
REMARK  15 active torsions:
REMARK  status: ('A' for Active; 'I' for Inactive)
REMARK    1  A    between atoms: C_1  and  C_2
REMARK    2  A    between atoms: C_7  and  C_15
REMARK    3  A    between atoms: C_13  and  C_14
REMARK    4  A    between atoms: C_15  and  C_17
REMARK    5  A    between atoms: C_15  and  N_73
REMARK    6  A    between atoms: N_21  and  C_22
REMARK    7  A    between atoms: C_22  and  C_23
REMARK    8  A    between atoms: C_22  and  C_24
REMARK    9  A    between atoms: C_22  and  C_25
REMARK   10  A    between atoms: C_26  and  C_27
REMARK   11  A    between atoms: C_26  and  N_73
REMARK   12  A    between atoms: C_30  and  O_33
REMARK   13  A    between atoms: O_33  and  C_34
REMARK   14  A    between atoms: C_35  and  C_36
REMARK   15  A    between atoms: C_35  and  N_73
REMARK                            x       y       z     vdW  Elec       q    Type
REMARK                         _______ _______ _______ _____ _____    ______ ____
ROOT
ATOM      1  C   UNL     1       5.303   1.539  -0.174  0.00  0.00    +0.040 C 
ENDROOT
BRANCH   1   8
ATOM      2  C   UNL     1      -2.494   2.241   1.355  0.00  0.00    +0.044 C 
ATOM      3  C   UNL     1      -1.079   1.913   0.952  0.00  0.00    -0.046 A 
ATOM      4  C   UNL     1      -0.825   0.773   0.201  0.00  0.00    +0.004 A 
ATOM      5  C   UNL     1       0.450   0.455  -0.170  0.00  0.00    +0.010 A 
ATOM      6  C   UNL     1       1.509   1.290   0.202  0.00  0.00    -0.001 A 
ATOM      7  C   UNL     1       2.888   0.981  -0.183  0.00  0.00    +0.017 A 
ATOM      8  C   UNL     1       3.874   1.827   0.206  0.00  0.00    +0.011 A 
ATOM      9  C   UNL     1       3.566   2.976   0.966  0.00  0.00    +0.251 A 
ATOM     10  O   UNL     1       4.467   3.723   1.305  0.00  0.00    -0.268 OA
ATOM     11  N   UNL     1       2.303   3.268   1.323  0.00  0.00    -0.322 N 
ATOM     12  H   UNL     1       2.126   4.066   1.845  0.00  0.00    +0.169 HD
ATOM     13  C   UNL     1       1.256   2.448   0.960  0.00  0.00    +0.052 A 
ATOM     14  C   UNL     1      -0.051   2.749   1.330  0.00  0.00    -0.024 A 
ATOM     15  C   UNL     1      -0.341   3.985   2.142  0.00  0.00    +0.046 C 
ENDBRANCH   1   8
BRANCH   1  16
ATOM     16  C   UNL     1       5.757   2.533  -1.213  0.00  0.00    +0.143 A 
ATOM     17  N   UNL     1       5.893   3.826  -1.052  0.00  0.00    -0.115 NA
ATOM     18  N   UNL     1       6.299   4.326  -2.167  0.00  0.00    -0.023 NA
ATOM     19  N   UNL     1       6.426   3.384  -3.036  0.00  0.00    -0.043 NA
ATOM     20  N   UNL     1       6.106   2.263  -2.484  0.00  0.00    -0.225 N 
BRANCH  20  21
ATOM     21  C   UNL     1       6.117   0.944  -3.123  0.00  0.00    +0.059 C 
ATOM     22  C   UNL     1       4.708   0.349  -3.089  0.00  0.00    +0.036 C 
ATOM     23  C   UNL     1       6.577   1.085  -4.575  0.00  0.00    +0.036 C 
ATOM     24  C   UNL     1       7.078   0.021  -2.370  0.00  0.00    +0.036 C 
ENDBRANCH  20  21
ENDBRANCH   1  16
BRANCH   1  25
ATOM     25  N   UNL     1       6.150   1.674   1.030  0.00  0.00    +0.397 N 
ATOM     26  H   UNL     1       5.873   2.520   1.540  0.00  0.00    -0.079 HD
BRANCH  25  27
ATOM     27  C   UNL     1       5.967   0.501   1.910  0.00  0.00    -0.041 C 
BRANCH  27  28
ATOM     28  C   UNL     1       4.689   0.678   2.690  0.00  0.00    -0.064 A 
ATOM     29  C   UNL     1       4.678   1.465   3.827  0.00  0.00    +0.005 A 
ATOM     30  C   UNL     1       3.507   1.634   4.540  0.00  0.00    +0.046 A 
ATOM     31  C   UNL     1       2.344   1.004   4.120  0.00  0.00    +0.120 A 
ATOM     32  C   UNL     1       2.359   0.210   2.982  0.00  0.00    +0.046 A 
ATOM     33  C   UNL     1       3.531   0.049   2.270  0.00  0.00    +0.005 A 
BRANCH  31  34
ATOM     34  O   UNL     1       1.192   1.164   4.823  0.00  0.00    -0.495 OA
ATOM     35  C   UNL     1       1.222   2.082   5.918  0.00  0.00    +0.277 C 
ENDBRANCH  31  34
ENDBRANCH  27  28
ENDBRANCH  25  27
BRANCH  25  36
ATOM     36  C   UNL     1       7.570   1.794   0.638  0.00  0.00    -0.001 C 
BRANCH  36  37
ATOM     37  C   UNL     1       8.362   2.273   1.827  0.00  0.00    +0.089 A 
ATOM     38  C   UNL     1       9.048   1.493   2.681  0.00  0.00    +0.042 A 
ATOM     39  C   UNL     1       9.636   2.352   3.638  0.00  0.00    +0.041 A 
ATOM     40  C   UNL     1       9.275   3.606   3.311  0.00  0.00    +0.195 A 
ATOM     41  O   UNL     1       8.508   3.552   2.209  0.00  0.00    -0.470 OA
ENDBRANCH  36  37
ENDBRANCH  25  36
ENDBRANCH   1  25
TORSDOF 9
