REMARK  Name = ZINC15178955
REMARK  10 active torsions:
REMARK  status: ('A' for Active; 'I' for Inactive)
REMARK    1  A    between atoms: C_1  and  C_2
REMARK    2  A    between atoms: C_5  and  N_33
REMARK    3  A    between atoms: C_7  and  S_8
REMARK    4  A    between atoms: S_8  and  N_11
REMARK    5  A    between atoms: C_14  and  C_17
REMARK    6  A    between atoms: N_19  and  C_20
REMARK    7  A    between atoms: N_19  and  C_21
REMARK    8  A    between atoms: C_21  and  C_23
REMARK    9  A    between atoms: C_21  and  C_24
REMARK   10  A    between atoms: C_28  and  N_30
REMARK                            x       y       z     vdW  Elec       q    Type
REMARK                         _______ _______ _______ _____ _____    ______ ____
ROOT
ATOM      1  N   UNL     1      -2.771   6.130  -5.582  0.00  0.00    -0.177 NA
ATOM      2  C   UNL     1      -1.960   7.275  -5.146  0.00  0.00    +0.110 C 
ATOM      3  C   UNL     1      -1.023   6.816  -4.024  0.00  0.00    +0.030 C 
ATOM      4  C   UNL     1      -1.847   6.168  -2.909  0.00  0.00    +0.078 C 
ATOM      5  C   UNL     1      -2.577   4.941  -3.460  0.00  0.00    +0.030 C 
ATOM      6  C   UNL     1      -3.532   5.378  -4.575  0.00  0.00    +0.110 C 
ENDROOT
BRANCH   4   7
ATOM      7  C   UNL     1      -0.931   5.746  -1.789  0.00  0.00    +0.219 C 
ATOM      8  O   UNL     1       0.266   5.688  -1.973  0.00  0.00    -0.275 OA
ATOM      9  N   UNL     1      -1.443   5.434  -0.582  0.00  0.00    -0.297 N 
ATOM     10  C   UNL     1      -2.881   5.576  -0.336  0.00  0.00    +0.132 C 
BRANCH   9  11
ATOM     11  C   UNL     1      -0.562   4.953   0.485  0.00  0.00    +0.103 C 
ATOM     12  C   UNL     1      -0.757   5.814   1.735  0.00  0.00    +0.033 C 
BRANCH  11  13
ATOM     13  C   UNL     1      -0.898   3.519   0.806  0.00  0.00    -0.025 A 
ATOM     14  C   UNL     1      -2.198   3.167   1.119  0.00  0.00    +0.005 A 
ATOM     15  C   UNL     1      -2.508   1.852   1.409  0.00  0.00    +0.003 A 
ATOM     16  C   UNL     1      -1.515   0.889   1.395  0.00  0.00    +0.033 A 
ATOM     17  C   UNL     1      -0.216   1.241   1.082  0.00  0.00    +0.127 A 
ATOM     18  C   UNL     1       0.093   2.556   0.787  0.00  0.00    +0.038 A 
BRANCH  17  19
ATOM     19  N   UNL     1       0.846   0.210   1.061  0.00  0.00    +0.056 N 
ATOM     20  O   UNL     1       0.574  -0.949   1.321  0.00  0.00    -0.126 OA
ATOM     21  O   UNL     1       1.991   0.519   0.785  0.00  0.00    -0.126 OA
ENDBRANCH  17  19
ENDBRANCH  11  13
ENDBRANCH   9  11
ENDBRANCH   4   7
BRANCH   1  22
ATOM     22  S   UNL     1      -2.825   5.694  -7.179  0.00  0.00    +0.061 S 
ATOM     23  O   UNL     1      -4.082   5.063  -7.385  0.00  0.00    -0.153 OA
ATOM     24  O   UNL     1      -2.413   6.832  -7.924  0.00  0.00    -0.153 OA
BRANCH  22  31
ATOM     25  C   UNL     1       0.152   6.212  -7.051  0.00  0.00    +0.046 C 
ATOM     26  C   UNL     1      -0.255   4.791  -7.346  0.00  0.00    -0.024 A 
ATOM     27  C   UNL     1       0.711   3.820  -7.534  0.00  0.00    +0.007 A 
ATOM     28  C   UNL     1       0.337   2.518  -7.810  0.00  0.00    +0.033 A 
ATOM     29  C   UNL     1      -1.002   2.186  -7.894  0.00  0.00    +0.128 A 
ATOM     30  C   UNL     1      -1.968   3.156  -7.701  0.00  0.00    +0.061 A 
ATOM     31  C   UNL     1      -1.595   4.458  -7.424  0.00  0.00    +0.111 A 
BRANCH  29  32
ATOM     32  N   UNL     1      -1.403   0.792  -8.190  0.00  0.00    +0.056 N 
ATOM     33  O   UNL     1      -2.583   0.500  -8.264  0.00  0.00    -0.126 OA
ATOM     34  O   UNL     1      -0.552  -0.063  -8.360  0.00  0.00    -0.126 OA
ENDBRANCH  29  32
ENDBRANCH  22  31
ENDBRANCH   1  22
TORSDOF 7
