REMARK  Name = ZINC59886206
REMARK  12 active torsions:
REMARK  status: ('A' for Active; 'I' for Inactive)
REMARK    1  A    between atoms: C_1  and  C_2
REMARK    2  A    between atoms: C_5  and  S_24
REMARK    3  A    between atoms: C_7  and  C_8
REMARK    4  A    between atoms: N_10  and  C_11
REMARK    5  A    between atoms: C_11  and  C_12
REMARK    6  A    between atoms: C_12  and  C_14
REMARK    7  A    between atoms: C_12  and  N_21
REMARK    8  A    between atoms: N_21  and  C_22
REMARK    9  A    between atoms: N_21  and  C_23
REMARK   10  A    between atoms: S_24  and  N_27
REMARK   11  A    between atoms: N_27  and  C_28
REMARK   12  A    between atoms: C_28  and  C_29
REMARK                            x       y       z     vdW  Elec       q    Type
REMARK                         _______ _______ _______ _____ _____    ______ ____
ROOT
ATOM      1  C   UNL     1      -1.833  -0.128   0.311  0.00  0.00    +0.044 C 
ATOM      2  C   UNL     1      -1.449  -1.572   0.504  0.00  0.00    -0.038 A 
ATOM      3  C   UNL     1      -1.716  -2.496  -0.486  0.00  0.00    +0.006 A 
ATOM      4  C   UNL     1      -1.364  -3.823  -0.310  0.00  0.00    +0.029 A 
ATOM      5  C   UNL     1      -0.743  -4.232   0.857  0.00  0.00    +0.106 A 
ATOM      6  C   UNL     1      -0.471  -3.318   1.853  0.00  0.00    +0.041 A 
ATOM      7  C   UNL     1      -0.818  -1.978   1.681  0.00  0.00    +0.041 A 
ENDROOT
BRANCH   7   8
ATOM      8  C   UNL     1      -0.524  -0.992   2.743  0.00  0.00    +0.244 C 
ATOM      9  O   UNL     1      -0.722   0.191   2.545  0.00  0.00    -0.270 OA
ATOM     10  N   UNL     1      -0.038  -1.405   3.930  0.00  0.00    -0.313 N 
ATOM     11  H   UNL     1       0.119  -2.349   4.088  0.00  0.00    +0.149 HD
BRANCH  10  12
ATOM     12  C   UNL     1       0.254  -0.428   4.982  0.00  0.00    +0.094 C 
BRANCH  12  13
ATOM     13  C   UNL     1       0.907  -1.137   6.170  0.00  0.00    -0.021 C 
BRANCH  13  14
ATOM     14  C   UNL     1       2.260  -1.661   5.760  0.00  0.00    -0.059 A 
ATOM     15  C   UNL     1       3.348  -0.808   5.721  0.00  0.00    +0.005 A 
ATOM     16  C   UNL     1       4.588  -1.286   5.346  0.00  0.00    +0.038 A 
ATOM     17  C   UNL     1       4.742  -2.620   5.008  0.00  0.00    +0.123 A 
ATOM     18  C   UNL     1       3.652  -3.473   5.047  0.00  0.00    +0.038 A 
ATOM     19  C   UNL     1       2.413  -2.994   5.428  0.00  0.00    +0.005 A 
ATOM     20  F   UNL     1       5.955  -3.089   4.641  0.00  0.00    -0.205 F 
ENDBRANCH  13  14
BRANCH  13  21
ATOM     21  N   UNL     1       1.065  -0.189   7.280  0.00  0.00    +0.382 N 
ATOM     22  C   UNL     1      -0.250   0.346   7.658  0.00  0.00    -0.096 C 
ATOM     23  C   UNL     1       1.663  -0.878   8.432  0.00  0.00    -0.096 C 
ATOM     24  H   UNL     1       1.666   0.569   6.993  0.00  0.00    -0.082 HD
ENDBRANCH  13  21
ENDBRANCH  12  13
ENDBRANCH  10  12
ENDBRANCH   7   8
BRANCH   5  25
ATOM     25  S   UNL     1      -0.301  -5.924   1.070  0.00  0.00    +0.059 S 
ATOM     26  O   UNL     1      -0.227  -6.151   2.471  0.00  0.00    -0.153 OA
ATOM     27  O   UNL     1      -1.155  -6.678   0.221  0.00  0.00    -0.153 OA
BRANCH  25  28
ATOM     28  N   UNL     1       1.235  -6.107   0.479  0.00  0.00    -0.183 NA
ATOM     29  H   UNL     1       1.393  -6.666  -0.298  0.00  0.00    +0.148 HD
BRANCH  28  30
ATOM     30  C   UNL     1       2.356  -5.424   1.129  0.00  0.00    +0.180 C 
BRANCH  30  31
ATOM     31  C   UNL     1       3.654  -6.024   0.654  0.00  0.00    +0.120 A 
ATOM     32  C   UNL     1       4.369  -5.613  -0.408  0.00  0.00    +0.046 A 
ATOM     33  C   UNL     1       5.505  -6.451  -0.487  0.00  0.00    +0.041 A 
ATOM     34  C   UNL     1       5.416  -7.325   0.533  0.00  0.00    +0.195 A 
ATOM     35  O   UNL     1       4.296  -7.058   1.224  0.00  0.00    -0.466 OA
ENDBRANCH  30  31
ENDBRANCH  28  30
ENDBRANCH  25  28
ENDBRANCH   5  25
TORSDOF 9
