REMARK  Name = ZINC05345033
REMARK  5 active torsions:
REMARK  status: ('A' for Active; 'I' for Inactive)
REMARK    1  A    between atoms: C_1  and  N_2
REMARK    2  A    between atoms: N_2  and  C_3
REMARK    3  A    between atoms: C_6  and  N_19
REMARK    4  A    between atoms: N_19  and  S_20
REMARK    5  A    between atoms: S_20  and  C_23
REMARK                            x       y       z     vdW  Elec       q    Type
REMARK                         _______ _______ _______ _____ _____    ______ ____
ROOT
ATOM      1  C   UNL     1       2.530   0.311   0.512  0.00  0.00    +0.039 A 
ATOM      2  C   UNL     1       1.376  -0.473   0.419  0.00  0.00    +0.025 A 
ATOM      3  C   UNL     1       0.151   0.106   0.259  0.00  0.00    +0.027 A 
ATOM      4  C   UNL     1       0.024   1.497   0.186  0.00  0.00    +0.060 A 
ATOM      5  C   UNL     1       1.162   2.303   0.276  0.00  0.00    +0.057 A 
ATOM      6  C   UNL     1       2.430   1.703   0.441  0.00  0.00    +0.056 A 
ATOM      7  C   UNL     1       3.631   2.550   0.536  0.00  0.00    +0.196 C 
ATOM      8  O   UNL     1       4.685   2.081   0.921  0.00  0.00    -0.287 OA
ATOM      9  C   UNL     1       3.540   3.976   0.156  0.00  0.00    +0.033 A 
ATOM     10  C   UNL     1       4.691   4.732  -0.040  0.00  0.00    +0.012 A 
ATOM     11  C   UNL     1       4.587   6.065  -0.395  0.00  0.00    +0.001 A 
ATOM     12  C   UNL     1       3.345   6.653  -0.557  0.00  0.00    +0.001 A 
ATOM     13  C   UNL     1       2.190   5.916  -0.365  0.00  0.00    +0.012 A 
ATOM     14  C   UNL     1       2.277   4.574  -0.008  0.00  0.00    +0.033 A 
ATOM     15  C   UNL     1       1.053   3.769   0.200  0.00  0.00    +0.196 C 
ATOM     16  O   UNL     1      -0.030   4.312   0.308  0.00  0.00    -0.287 OA
ENDROOT
BRANCH   1  18
ATOM     17  C   UNL     1       3.885  -1.750   0.637  0.00  0.00    +0.125 C 
ATOM     18  N   UNL     1       3.769  -0.290   0.674  0.00  0.00    -0.346 N 
ATOM     19  H   UNL     1       4.559   0.256   0.811  0.00  0.00    +0.146 HD
ENDBRANCH   1  18
BRANCH   4  20
ATOM     20  N   UNL     1      -1.226   2.074   0.019  0.00  0.00    -0.216 N 
ATOM     21  H   UNL     1      -1.322   2.875  -0.519  0.00  0.00    +0.174 HD
BRANCH  20  22
ATOM     22  S   UNL     1      -2.554   1.395   0.739  0.00  0.00    +0.072 S 
ATOM     23  O   UNL     1      -3.640   2.280   0.504  0.00  0.00    -0.150 OA
ATOM     24  O   UNL     1      -2.581   0.032   0.336  0.00  0.00    -0.150 OA
BRANCH  22  25
ATOM     25  C   UNL     1      -2.265   1.401   2.477  0.00  0.00    +0.108 A 
ATOM     26  C   UNL     1      -1.647   0.320   3.079  0.00  0.00    +0.029 A 
ATOM     27  C   UNL     1      -1.416   0.327   4.441  0.00  0.00    +0.002 A 
ATOM     28  C   UNL     1      -1.812   1.410   5.204  0.00  0.00    +0.000 A 
ATOM     29  C   UNL     1      -2.434   2.489   4.603  0.00  0.00    +0.002 A 
ATOM     30  C   UNL     1      -2.660   2.484   3.239  0.00  0.00    +0.029 A 
ENDBRANCH  22  25
ENDBRANCH  20  22
ENDBRANCH   4  20
TORSDOF 4
