REMARK  Name = ZINC01802391
REMARK  15 active torsions:
REMARK  status: ('A' for Active; 'I' for Inactive)
REMARK    1  A    between atoms: C_1  and  C_2
REMARK    2  A    between atoms: C_2  and  C_3
REMARK    3  A    between atoms: C_2  and  C_4
REMARK    4  A    between atoms: C_2  and  C_5
REMARK    5  A    between atoms: C_7  and  C_16
REMARK    6  A    between atoms: C_9  and  C_12
REMARK    7  A    between atoms: C_10  and  O_11
REMARK    8  A    between atoms: C_12  and  C_13
REMARK    9  A    between atoms: C_12  and  C_14
REMARK   10  A    between atoms: C_12  and  C_15
REMARK   11  A    between atoms: C_16  and  C_18
REMARK   12  A    between atoms: C_16  and  N_70
REMARK   13  A    between atoms: C_21  and  N_24
REMARK   14  A    between atoms: N_24  and  C_25
REMARK   15  A    between atoms: N_24  and  C_26
REMARK                            x       y       z     vdW  Elec       q    Type
REMARK                         _______ _______ _______ _____ _____    ______ ____
ROOT
ATOM      1  C   UNL     1      -1.374   5.567   2.191  0.00  0.00    -0.000 A 
ATOM      2  C   UNL     1      -1.542   4.211   1.987  0.00  0.00    +0.010 A 
ATOM      3  C   UNL     1      -0.524   3.464   1.422  0.00  0.00    -0.056 A 
ATOM      4  C   UNL     1       0.666   4.072   1.065  0.00  0.00    +0.010 A 
ATOM      5  C   UNL     1       0.836   5.428   1.261  0.00  0.00    -0.000 A 
ATOM      6  C   UNL     1      -0.183   6.180   1.828  0.00  0.00    +0.124 A 
ENDROOT
BRANCH   1   8
ATOM      7  C   UNL     1      -3.674   5.470   3.111  0.00  0.00    +0.015 C 
ATOM      8  C   UNL     1      -2.483   6.380   2.807  0.00  0.00    -0.009 C 
ATOM      9  C   UNL     1      -1.986   7.020   4.105  0.00  0.00    +0.015 C 
ATOM     10  C   UNL     1      -2.914   7.476   1.831  0.00  0.00    +0.015 C 
ENDBRANCH   1   8
BRANCH   5  11
ATOM     11  C   UNL     1       2.131   6.090   0.866  0.00  0.00    -0.009 C 
ATOM     12  C   UNL     1       3.077   5.046   0.270  0.00  0.00    +0.015 C 
ATOM     13  C   UNL     1       1.851   7.177  -0.174  0.00  0.00    +0.015 C 
ATOM     14  C   UNL     1       2.779   6.721   2.100  0.00  0.00    +0.015 C 
ENDBRANCH   5  11
BRANCH   6  15
ATOM     15  O   UNL     1      -0.015   7.513   2.027  0.00  0.00    -0.506 OA
ATOM     16  H   UNL     1       0.361   7.738   2.889  0.00  0.00    +0.292 HD
ENDBRANCH   6  15
BRANCH   3  17
ATOM     17  C   UNL     1      -0.710   1.985   1.201  0.00  0.00    -0.007 C 
BRANCH  17  18
ATOM     18  C   UNL     1      -0.022   1.222   2.303  0.00  0.00    -0.057 A 
ATOM     19  C   UNL     1       1.355   1.098   2.300  0.00  0.00    +0.004 A 
ATOM     20  C   UNL     1       1.990   0.404   3.312  0.00  0.00    +0.023 A 
ATOM     21  C   UNL     1       1.242  -0.179   4.327  0.00  0.00    +0.029 A 
ATOM     22  C   UNL     1      -0.142  -0.056   4.324  0.00  0.00    +0.023 A 
ATOM     23  C   UNL     1      -0.769   0.644   3.313  0.00  0.00    +0.004 A 
BRANCH  21  24
ATOM     24  N   UNL     1       1.880  -0.886   5.348  0.00  0.00    -0.336 N 
ATOM     25  C   UNL     1       1.090  -1.500   6.418  0.00  0.00    +0.129 C 
ATOM     26  C   UNL     1       3.340  -1.014   5.350  0.00  0.00    +0.129 C 
ENDBRANCH  21  24
ENDBRANCH  17  18
BRANCH  17  31
ATOM     27  C   UNL     1      -0.284   0.151  -0.342  0.00  0.00    -0.078 C 
ATOM     28  C   UNL     1      -0.124   0.034  -1.879  0.00  0.00    -0.020 C 
ATOM     29  C   UNL     1      -0.833   1.306  -2.398  0.00  0.00    -0.020 C 
ATOM     30  C   UNL     1      -0.829   2.283  -1.207  0.00  0.00    -0.078 C 
ATOM     31  N   UNL     1      -0.130   1.597  -0.120  0.00  0.00    +0.387 N 
ATOM     32  H   UNL     1       0.866   1.846  -0.136  0.00  0.00    -0.080 HD
ENDBRANCH  17  31
ENDBRANCH   3  17
TORSDOF 7
