REMARK  Name = ZINC01807616
REMARK  4 active torsions:
REMARK  status: ('A' for Active; 'I' for Inactive)
REMARK    1  A    between atoms: C_1  and  O_2
REMARK    2  A    between atoms: O_2  and  C_3
REMARK    3  A    between atoms: C_6  and  C_9
REMARK    4  A    between atoms: C_11  and  C_19
REMARK                            x       y       z     vdW  Elec       q    Type
REMARK                         _______ _______ _______ _____ _____    ______ ____
ROOT
ATOM      1  C   UNL     1       2.577  -2.541   4.295  0.00  0.00    +0.073 C 
ATOM      2  C   UNL     1       2.631  -3.887   4.327  0.00  0.00    +0.030 C 
ATOM      3  C   UNL     1       3.337  -4.531   5.506  0.00  0.00    +0.159 C 
ATOM      4  N   UNL     1       3.899  -3.618   6.509  0.00  0.00    -0.162 N 
ATOM      5  C   UNL     1       3.755  -2.271   6.322  0.00  0.00    +0.227 C 
ATOM      6  N   UNL     1       3.135  -1.784   5.273  0.00  0.00    -0.216 NA
ATOM      7  N   UNL     1       4.367  -1.684   7.396  0.00  0.00    -0.187 N 
ATOM      8  N   UNL     1       4.866  -2.712   8.205  0.00  0.00    -0.058 NA
ATOM      9  N   UNL     1       4.600  -3.810   7.699  0.00  0.00    -0.055 NA
ATOM     10  H   UNL     1       4.441  -0.732   7.565  0.00  0.00    +0.179 HD
ENDROOT
BRANCH   3  11
ATOM     11  C   UNL     1       2.354  -5.439   6.200  0.00  0.00    -0.003 A 
ATOM     12  C   UNL     1       1.631  -4.975   7.283  0.00  0.00    +0.007 A 
ATOM     13  C   UNL     1       0.730  -5.808   7.920  0.00  0.00    +0.000 A 
ATOM     14  C   UNL     1       0.551  -7.104   7.473  0.00  0.00    +0.001 A 
ATOM     15  C   UNL     1       1.273  -7.568   6.391  0.00  0.00    +0.020 A 
ATOM     16  C   UNL     1       2.171  -6.734   5.749  0.00  0.00    +0.046 A 
ATOM     17 CL   UNL     1       3.074  -7.314   4.385  0.00  0.00    -0.083 Cl
ENDBRANCH   3  11
BRANCH   1  21
ATOM     18  C   UNL     1       0.626  -0.618   1.041  0.00  0.00    +0.120 A 
ATOM     19  C   UNL     1       1.202   0.142   2.050  0.00  0.00    +0.046 A 
ATOM     20  C   UNL     1       1.835  -0.479   3.107  0.00  0.00    +0.013 A 
ATOM     21  C   UNL     1       1.896  -1.870   3.160  0.00  0.00    +0.000 A 
ATOM     22  C   UNL     1       1.317  -2.631   2.146  0.00  0.00    +0.013 A 
ATOM     23  C   UNL     1       0.681  -2.005   1.095  0.00  0.00    +0.046 A 
BRANCH  18  25
ATOM     24  C   UNL     1      -0.017   1.425   0.010  0.00  0.00    +0.277 C 
ATOM     25  O   UNL     1       0.002  -0.004   0.002  0.00  0.00    -0.495 OA
ENDBRANCH  18  25
ENDBRANCH   1  21
TORSDOF 3
