REMARK  Name = ZINC02359149
REMARK  5 active torsions:
REMARK  status: ('A' for Active; 'I' for Inactive)
REMARK    1  A    between atoms: C_1  and  C_2
REMARK    2  A    between atoms: C_3  and  N_9
REMARK    3  A    between atoms: C_12  and  C_17
REMARK    4  A    between atoms: C_17  and  S_18
REMARK    5  A    between atoms: S_18  and  C_19
REMARK                            x       y       z     vdW  Elec       q    Type
REMARK                         _______ _______ _______ _____ _____    ______ ____
ROOT
ATOM      1  N   UNL     1      -0.010   0.011  -2.413  0.00  0.00    -0.283 N 
ATOM      2  C   UNL     1       0.098  -0.670  -3.610  0.00  0.00    +0.224 A 
ATOM      3  N   UNL     1       0.188   0.004  -4.754  0.00  0.00    -0.198 NA
ATOM      4  C   UNL     1       0.291  -0.647  -5.899  0.00  0.00    +0.146 A 
ATOM      5  N   UNL     1       0.305  -1.968  -5.914  0.00  0.00    -0.199 NA
ATOM      6  C   UNL     1       0.215  -2.649  -4.774  0.00  0.00    +0.217 A 
ATOM      7  N   UNL     1       0.117  -1.999  -3.620  0.00  0.00    -0.181 NA
ATOM      8  N   UNL     1       0.229  -4.029  -4.790  0.00  0.00    -0.327 N 
ATOM      9  H   UNL     1      -0.110   0.975  -2.411  0.00  0.00    +0.155 HD
ATOM     10  H   UNL     1       0.305  -4.503  -5.633  0.00  0.00    +0.145 HD
ATOM     11  H   UNL     1       0.163  -4.525  -3.959  0.00  0.00    +0.145 HD
ENDROOT
BRANCH   1  14
ATOM     12  C   UNL     1      -1.263   1.183  -0.143  0.00  0.00    +0.047 C 
ATOM     13  C   UNL     1      -0.575  -0.155  -0.071  0.00  0.00    -0.011 A 
ATOM     14  C   UNL     1       0.024  -0.691  -1.204  0.00  0.00    +0.038 A 
ATOM     15  C   UNL     1       0.658  -1.925  -1.133  0.00  0.00    +0.023 A 
ATOM     16  C   UNL     1       0.690  -2.616   0.063  0.00  0.00    +0.003 A 
ATOM     17  C   UNL     1       0.092  -2.082   1.189  0.00  0.00    +0.020 A 
ATOM     18  C   UNL     1      -0.535  -0.849   1.124  0.00  0.00    +0.046 A 
ATOM     19 CL   UNL     1      -1.278  -0.178   2.542  0.00  0.00    -0.083 Cl
ENDBRANCH   1  14
BRANCH   4  20
ATOM     20  C   UNL     1       0.394   0.120  -7.193  0.00  0.00    +0.152 C 
BRANCH  20  21
ATOM     21  S   UNL     1       2.139   0.444  -7.567  0.00  0.00    -0.091 S 
BRANCH  21  22
ATOM     22  C   UNL     1       2.090   1.335  -9.086  0.00  0.00    +0.136 A 
ATOM     23  N   UNL     1       1.045   1.698  -9.797  0.00  0.00    -0.233 NA
ATOM     24  C   UNL     1       1.158   2.385 -10.954  0.00  0.00    +0.079 A 
ATOM     25  C   UNL     1       0.124   2.832 -11.808  0.00  0.00    +0.029 A 
ATOM     26  C   UNL     1       0.413   3.523 -12.956  0.00  0.00    +0.002 A 
ATOM     27  C   UNL     1       1.721   3.807 -13.321  0.00  0.00    +0.001 A 
ATOM     28  C   UNL     1       2.758   3.384 -12.509  0.00  0.00    +0.017 A 
ATOM     29  C   UNL     1       2.478   2.693 -11.358  0.00  0.00    +0.040 A 
ATOM     30  S   UNL     1       3.449   1.983 -10.050  0.00  0.00    -0.061 S 
ENDBRANCH  21  22
ENDBRANCH  20  21
ENDBRANCH   4  20
TORSDOF 4
