REMARK  Name = ZINC08173765
REMARK  7 active torsions:
REMARK  status: ('A' for Active; 'I' for Inactive)
REMARK    1  A    between atoms: C_1  and  C_2
REMARK    2  A    between atoms: C_3  and  O_24
REMARK    3  A    between atoms: C_12  and  C_13
REMARK    4  A    between atoms: C_13  and  N_41
REMARK    5  A    between atoms: C_14  and  C_16
REMARK    6  A    between atoms: C_14  and  C_17
REMARK    7  A    between atoms: C_14  and  N_41
REMARK                            x       y       z     vdW  Elec       q    Type
REMARK                         _______ _______ _______ _____ _____    ______ ____
ROOT
ATOM      1  C   UNL     1       7.166   4.432   2.324  0.00  0.00    +0.051 C 
ATOM      2  C   UNL     1       5.756   3.901   2.380  0.00  0.00    +0.034 A 
ATOM      3  C   UNL     1       4.835   4.467   3.247  0.00  0.00    +0.123 A 
ATOM      4  C   UNL     1       3.530   3.983   3.307  0.00  0.00    +0.046 A 
ATOM      5  C   UNL     1       3.137   2.952   2.503  0.00  0.00    +0.015 A 
ATOM      6  C   UNL     1       4.051   2.377   1.613  0.00  0.00    +0.019 A 
ATOM      7  C   UNL     1       5.372   2.858   1.552  0.00  0.00    +0.146 A 
ATOM      8  O   UNL     1       6.250   2.304   0.687  0.00  0.00    -0.422 OA
ATOM      9  C   UNL     1       5.894   1.294  -0.121  0.00  0.00    +0.337 A 
ATOM     10  O   UNL     1       6.719   0.827  -0.886  0.00  0.00    -0.245 OA
ATOM     11  C   UNL     1       4.589   0.760  -0.109  0.00  0.00    +0.094 A 
ATOM     12  C   UNL     1       3.657   1.271   0.738  0.00  0.00    -0.047 A 
ENDROOT
BRANCH   3  13
ATOM     13  O   UNL     1       5.210   5.493   4.052  0.00  0.00    -0.506 OA
ATOM     14  H   UNL     1       5.561   5.213   4.908  0.00  0.00    +0.292 HD
ENDBRANCH   3  13
BRANCH  12  15
ATOM     15  C   UNL     1       2.256   0.718   0.771  0.00  0.00    -0.045 C 
BRANCH  15  16
ATOM     16  N   UNL     1       1.369   1.603  -0.007  0.00  0.00    +0.386 N 
ATOM     17  H   UNL     1       1.702   1.649  -0.977  0.00  0.00    -0.085 HD
ATOM     18  H   UNL     1       1.383   2.544   0.404  0.00  0.00    -0.085 HD
BRANCH  16  19
ATOM     19  C   UNL     1      -0.013   1.086   0.008  0.00  0.00    -0.044 C 
ATOM     20  C   UNL     1      -0.729   1.579   1.267  0.00  0.00    -0.009 C 
BRANCH  19  21
ATOM     21  C   UNL     1      -0.742   1.585  -1.213  0.00  0.00    -0.060 A 
ATOM     22  C   UNL     1      -0.551   2.883  -1.649  0.00  0.00    +0.002 A 
ATOM     23  C   UNL     1      -1.216   3.340  -2.771  0.00  0.00    +0.002 A 
ATOM     24  C   UNL     1      -2.079   2.503  -3.453  0.00  0.00    +0.020 A 
ATOM     25  C   UNL     1      -2.274   1.206  -3.014  0.00  0.00    +0.041 A 
ATOM     26  C   UNL     1      -1.604   0.747  -1.893  0.00  0.00    +0.022 A 
ATOM     27 CL   UNL     1      -3.358   0.153  -3.869  0.00  0.00    -0.084 Cl
ENDBRANCH  19  21
ENDBRANCH  16  19
ENDBRANCH  15  16
ENDBRANCH  12  15
TORSDOF 5
