REMARK  Name = ZINC36272298
REMARK  4 active torsions:
REMARK  status: ('A' for Active; 'I' for Inactive)
REMARK    1  A    between atoms: C_6  and  C_7
REMARK    2  A    between atoms: C_8  and  C_17
REMARK    3  A    between atoms: C_11  and  N_16
REMARK    4  A    between atoms: C_17  and  N_18
REMARK                            x       y       z     vdW  Elec       q    Type
REMARK                         _______ _______ _______ _____ _____    ______ ____
ROOT
ATOM      1  C   UNL     1      -1.212  -0.907   0.179  0.00  0.00    +0.091 A 
ATOM      2  C   UNL     1      -1.527  -1.901  -0.699  0.00  0.00    +0.035 A 
ATOM      3  N   UNL     1      -2.868  -2.135  -0.575  0.00  0.00    -0.303 N 
ATOM      4  C   UNL     1      -3.711  -3.012  -1.201  0.00  0.00    +0.115 A 
ATOM      5  C   UNL     1      -5.029  -3.043  -0.887  0.00  0.00    +0.041 A 
ATOM      6  C   UNL     1      -5.544  -2.169   0.091  0.00  0.00    +0.028 A 
ATOM      7  C   UNL     1      -4.713  -1.295   0.718  0.00  0.00    +0.048 A 
ATOM      8  C   UNL     1      -3.344  -1.275   0.380  0.00  0.00    +0.138 A 
ATOM      9  N   UNL     1      -2.330  -0.546   0.826  0.00  0.00    -0.228 NA
ENDROOT
BRANCH   1  15
ATOM     10  C   UNL     1       0.295   1.051   0.517  0.00  0.00    +0.011 A 
ATOM     11  C   UNL     1       1.553   1.585   0.711  0.00  0.00    +0.016 A 
ATOM     12  C   UNL     1       2.658   0.753   0.776  0.00  0.00    +0.018 A 
ATOM     13  C   UNL     1       2.507  -0.617   0.647  0.00  0.00    +0.016 A 
ATOM     14  C   UNL     1       1.254  -1.160   0.452  0.00  0.00    +0.011 A 
ATOM     15  C   UNL     1       0.139  -0.328   0.387  0.00  0.00    +0.002 A 
ATOM     16 BR   UNL     1       4.378   1.492   1.041  0.00  0.00    -0.050 Br
ENDBRANCH   1  15
BRANCH   5  17
ATOM     17  N   UNL     1      -5.881  -3.946  -1.536  0.00  0.00    -0.357 N 
ATOM     18  H   UNL     1      -5.527  -4.548  -2.209  0.00  0.00    +0.142 HD
ATOM     19  H   UNL     1      -6.824  -3.970  -1.312  0.00  0.00    +0.142 HD
ENDBRANCH   5  17
BRANCH   2  20
ATOM     20  C   UNL     1      -0.577  -2.608  -1.631  0.00  0.00    -0.022 C 
BRANCH  20  21
ATOM     21  N   UNL     1      -0.648  -1.992  -2.962  0.00  0.00    +0.383 N 
ATOM     22  C   UNL     1      -0.079  -0.621  -2.923  0.00  0.00    -0.078 C 
ATOM     23  C   UNL     1       0.291  -0.349  -4.403  0.00  0.00    -0.020 C 
ATOM     24  C   UNL     1       0.804  -1.724  -4.890  0.00  0.00    -0.020 C 
ATOM     25  C   UNL     1       0.188  -2.749  -3.920  0.00  0.00    -0.078 C 
ATOM     26  H   UNL     1      -1.605  -1.964  -3.283  0.00  0.00    -0.081 HD
ENDBRANCH  20  21
ENDBRANCH   2  20
TORSDOF 4
