REMARK  Name = ZINC37319181
REMARK  7 active torsions:
REMARK  status: ('A' for Active; 'I' for Inactive)
REMARK    1  A    between atoms: C_1  and  C_2
REMARK    2  A    between atoms: C_2  and  C_4
REMARK    3  A    between atoms: C_2  and  N_11
REMARK    4  A    between atoms: C_8  and  O_10
REMARK    5  A    between atoms: N_11  and  C_12
REMARK    6  A    between atoms: C_12  and  C_13
REMARK    7  A    between atoms: C_17  and  N_19
REMARK                            x       y       z     vdW  Elec       q    Type
REMARK                         _______ _______ _______ _____ _____    ______ ____
ROOT
ATOM      1  N   UNL     1       0.713  -0.491   1.192  0.00  0.00    +0.386 N 
ATOM      2  H   UNL     1       0.290  -0.099   2.020  0.00  0.00    -0.085 HD
ATOM      3  H   UNL     1       0.655  -1.497   1.230  0.00  0.00    -0.085 HD
ENDROOT
BRANCH   1   5
ATOM      4  C   UNL     1      -0.019   1.526   0.010  0.00  0.00    -0.009 C 
ATOM      5  C   UNL     1       0.002  -0.004   0.002  0.00  0.00    -0.044 C 
BRANCH   5   6
ATOM      6  C   UNL     1      -1.412  -0.526   0.013  0.00  0.00    -0.058 A 
ATOM      7  C   UNL     1      -2.123  -0.571   1.198  0.00  0.00    +0.002 A 
ATOM      8  C   UNL     1      -3.420  -1.049   1.211  0.00  0.00    +0.004 A 
ATOM      9  C   UNL     1      -4.009  -1.483   0.040  0.00  0.00    +0.045 A 
ATOM     10  C   UNL     1      -3.298  -1.439  -1.151  0.00  0.00    +0.117 A 
ATOM     11  C   UNL     1      -1.998  -0.953  -1.162  0.00  0.00    +0.047 A 
BRANCH  10  12
ATOM     12  O   UNL     1      -3.876  -1.866  -2.305  0.00  0.00    -0.507 OA
ATOM     13  H   UNL     1      -4.345  -1.173  -2.789  0.00  0.00    +0.292 HD
ENDBRANCH  10  12
ENDBRANCH   5   6
ENDBRANCH   1   5
BRANCH   1  14
ATOM     14  C   UNL     1       2.122  -0.083   1.122  0.00  0.00    -0.046 C 
BRANCH  14  15
ATOM     15  C   UNL     1       2.851  -0.582   2.343  0.00  0.00    -0.062 A 
ATOM     16  C   UNL     1       2.914   0.203   3.479  0.00  0.00    +0.003 A 
ATOM     17  C   UNL     1       3.582  -0.254   4.599  0.00  0.00    +0.018 A 
ATOM     18  C   UNL     1       4.187  -1.498   4.583  0.00  0.00    +0.048 A 
ATOM     19  C   UNL     1       4.124  -2.283   3.446  0.00  0.00    +0.140 A 
ATOM     20  C   UNL     1       3.451  -1.827   2.328  0.00  0.00    +0.035 A 
ATOM     21 BR   UNL     1       5.102  -2.124   6.115  0.00  0.00    -0.048 Br
BRANCH  19  22
ATOM     22  N   UNL     1       4.771  -3.614   3.429  0.00  0.00    +0.058 N 
ATOM     23  O   UNL     1       4.715  -4.300   2.435  0.00  0.00    -0.126 OA
ATOM     24  O   UNL     1       5.356  -4.015   4.408  0.00  0.00    -0.126 OA
ENDBRANCH  19  22
ENDBRANCH  14  15
ENDBRANCH   1  14
TORSDOF 6
