REMARK  Name = ZINC50324738
REMARK  6 active torsions:
REMARK  status: ('A' for Active; 'I' for Inactive)
REMARK    1  A    between atoms: C_1  and  C_2
REMARK    2  A    between atoms: C_7  and  C_9
REMARK    3  A    between atoms: C_7  and  C_10
REMARK    4  A    between atoms: C_11  and  C_13
REMARK    5  A    between atoms: C_14  and  N_22
REMARK    6  A    between atoms: C_15  and  C_19
REMARK                            x       y       z     vdW  Elec       q    Type
REMARK                         _______ _______ _______ _____ _____    ______ ____
ROOT
ATOM      1  C   UNL     1      -0.161  -2.228  -3.330  0.00  0.00    +0.141 A 
ATOM      2  C   UNL     1       0.425  -1.583  -4.416  0.00  0.00    +0.078 A 
ATOM      3  C   UNL     1      -0.642  -1.253  -5.267  0.00  0.00    +0.087 A 
ATOM      4  N   UNL     1      -1.746  -1.677  -4.711  0.00  0.00    -0.176 NA
ATOM      5  N   UNL     1      -1.510  -2.253  -3.588  0.00  0.00    -0.271 N 
ATOM      6  H   UNL     1      -2.182  -2.644  -3.008  0.00  0.00    +0.189 HD
ENDROOT
BRANCH   1  16
ATOM      7  C   UNL     1       0.267   1.613  -0.115  0.00  0.00    +0.039 C 
ATOM      8  C   UNL     1       0.207   0.085  -0.075  0.00  0.00    +0.133 C 
ATOM      9  C   UNL     1       0.866  -0.487  -1.336  0.00  0.00    +0.139 C 
ATOM     10  N   UNL     1       0.963  -1.948  -1.187  0.00  0.00    -0.291 N 
ATOM     11  C   UNL     1       1.555  -2.479   0.051  0.00  0.00    +0.142 C 
ATOM     12  C   UNL     1       0.862  -1.811   1.244  0.00  0.00    +0.080 C 
ATOM     13  O   UNL     1       0.904  -0.391   1.079  0.00  0.00    -0.368 OA
ATOM     14  C   UNL     1      -0.595  -2.273   1.314  0.00  0.00    +0.043 C 
ATOM     15  C   UNL     1       1.585  -2.196   2.536  0.00  0.00    +0.043 C 
ATOM     16  C   UNL     1       0.523  -2.775  -2.156  0.00  0.00    +0.266 C 
ATOM     17  O   UNL     1       0.693  -3.976  -2.055  0.00  0.00    -0.268 OA
ENDBRANCH   1  16
BRANCH   3  18
ATOM     18  C   UNL     1      -0.533  -0.537  -6.589  0.00  0.00    +0.041 C 
ATOM     19  C   UNL     1      -1.835  -0.097  -7.263  0.00  0.00    +0.010 C 
ATOM     20  C   UNL     1      -1.037  -1.271  -7.833  0.00  0.00    +0.010 C 
ENDBRANCH   3  18
BRANCH   2  21
ATOM     21  N   UNL     1       1.779  -1.321  -4.615  0.00  0.00    -0.355 N 
ATOM     22  H   UNL     1       2.430  -1.599  -3.952  0.00  0.00    +0.142 HD
ATOM     23  H   UNL     1       2.071  -0.860  -5.417  0.00  0.00    +0.142 HD
ENDBRANCH   2  21
TORSDOF 3
