REMARK  Name = ZINC11673104
REMARK  10 active torsions:
REMARK  status: ('A' for Active; 'I' for Inactive)
REMARK    1  A    between atoms: C_1  and  C_2
REMARK    2  A    between atoms: C_3  and  C_29
REMARK    3  A    between atoms: N_4  and  C_24
REMARK    4  A    between atoms: C_5  and  N_9
REMARK    5  A    between atoms: C_6  and  C_7
REMARK    6  A    between atoms: C_10  and  C_12
REMARK    7  A    between atoms: C_12  and  O_13
REMARK    8  A    between atoms: O_13  and  C_14
REMARK    9  A    between atoms: C_14  and  C_16
REMARK   10  A    between atoms: C_21  and  N_22
REMARK                            x       y       z     vdW  Elec       q    Type
REMARK                         _______ _______ _______ _____ _____    ______ ____
ROOT
ATOM      1  N   UNL     1       4.525   8.356  -0.152  0.00  0.00    -0.268 N 
ATOM      2  C   UNL     1       5.437   7.848   0.701  0.00  0.00    +0.256 C 
ATOM      3  O   UNL     1       6.039   8.584   1.454  0.00  0.00    -0.272 OA
ATOM      4  H   UNL     1       4.014   7.763  -0.725  0.00  0.00    +0.156 HD
ENDROOT
BRANCH   1   9
ATOM      5  C   UNL     1       5.209  13.345  -0.577  0.00  0.00    +0.047 C 
ATOM      6  C   UNL     1       4.590  11.983  -0.396  0.00  0.00    -0.011 A 
ATOM      7  C   UNL     1       3.292  11.713  -0.185  0.00  0.00    +0.022 A 
ATOM      8  N   UNL     1       3.122  10.359  -0.077  0.00  0.00    -0.329 N 
ATOM      9  C   UNL     1       4.316   9.726  -0.209  0.00  0.00    +0.124 A 
ATOM     10  C   UNL     1       5.290  10.693  -0.417  0.00  0.00    +0.095 A 
ATOM     11  C   UNL     1       2.193  12.740  -0.088  0.00  0.00    +0.064 C 
BRANCH   8  12
ATOM     12  C   UNL     1       1.839   9.690   0.150  0.00  0.00    +0.089 C 
ATOM     13  C   UNL     1       1.887   8.888   1.468  0.00  0.00    +0.025 C 
ATOM     14  C   UNL     1       1.067   7.609   1.163  0.00  0.00    +0.002 C 
ATOM     15  C   UNL     1       1.460   7.290  -0.301  0.00  0.00    +0.002 C 
ATOM     16  C   UNL     1       1.567   8.675  -0.973  0.00  0.00    +0.025 C 
ENDBRANCH   8  12
BRANCH  10  17
ATOM     17  C   UNL     1       6.692  10.476  -0.612  0.00  0.00    +0.103 C 
ATOM     18  N   UNL     1       7.804  10.303  -0.766  0.00  0.00    -0.191 NA
ENDBRANCH  10  17
ENDBRANCH   1   9
BRANCH   2  19
ATOM     19  C   UNL     1       5.707   6.366   0.720  0.00  0.00    +0.328 C 
BRANCH  19  20
ATOM     20  O   UNL     1       6.632   6.056   1.796  0.00  0.00    -0.452 OA
BRANCH  20  21
ATOM     21  C   UNL     1       6.980   4.763   1.950  0.00  0.00    +0.341 C 
ATOM     22  O   UNL     1       6.524   3.918   1.206  0.00  0.00    -0.245 OA
BRANCH  21  23
ATOM     23  C   UNL     1       7.914   4.375   3.021  0.00  0.00    +0.081 A 
ATOM     24  C   UNL     1       8.340   5.320   3.959  0.00  0.00    +0.036 A 
ATOM     25  C   UNL     1       9.213   4.950   4.959  0.00  0.00    +0.042 A 
ATOM     26  C   UNL     1       9.668   3.642   5.043  0.00  0.00    +0.022 A 
ATOM     27  C   UNL     1       9.261   2.700   4.122  0.00  0.00    +0.025 A 
ATOM     28  C   UNL     1       8.380   3.054   3.107  0.00  0.00    +0.039 A 
ATOM     29 CL   UNL     1       9.742   6.125   6.123  0.00  0.00    -0.084 Cl
BRANCH  28  30
ATOM     30  N   UNL     1       7.964   2.106   2.182  0.00  0.00    -0.357 N 
ATOM     31  H   UNL     1       7.980   1.163   2.412  0.00  0.00    +0.142 HD
ATOM     32  H   UNL     1       7.658   2.385   1.305  0.00  0.00    +0.142 HD
ENDBRANCH  28  30
ENDBRANCH  21  23
ENDBRANCH  20  21
ENDBRANCH  19  20
ENDBRANCH   2  19
TORSDOF 8
