REMARK  Name = ZINC26671872
REMARK  12 active torsions:
REMARK  status: ('A' for Active; 'I' for Inactive)
REMARK    1  A    between atoms: C_1  and  C_2
REMARK    2  A    between atoms: C_6  and  C_43
REMARK    3  A    between atoms: C_7  and  C_42
REMARK    4  A    between atoms: C_21  and  C_22
REMARK    5  A    between atoms: C_26  and  C_33
REMARK    6  A    between atoms: C_27  and  C_28
REMARK    7  A    between atoms: C_28  and  C_29
REMARK    8  A    between atoms: C_29  and  C_30
REMARK    9  A    between atoms: C_34  and  C_37
REMARK   10  A    between atoms: C_35  and  C_36
REMARK   11  A    between atoms: C_37  and  C_38
REMARK   12  A    between atoms: C_38  and  C_39
REMARK                            x       y       z     vdW  Elec       q    Type
REMARK                         _______ _______ _______ _____ _____    ______ ____
ROOT
ATOM      1  C   UNL     1      -0.018   1.503   0.010  0.00  0.00    +0.046 C 
ATOM      2  C   UNL     1       0.002  -0.004   0.002  0.00  0.00    -0.018 A 
ATOM      3  C   UNL     1       0.008  -0.824  -1.136  0.00  0.00    +0.045 A 
ATOM      4  C   UNL     1      -0.003  -0.342  -2.445  0.00  0.00    +0.052 C 
ATOM      5  C   UNL     1       0.023  -1.180  -3.548  0.00  0.00    +0.049 A 
ATOM      6  C   UNL     1       0.030  -0.729  -4.896  0.00  0.00    +0.003 A 
ATOM      7  C   UNL     1       0.073  -1.848  -5.708  0.00  0.00    -0.018 A 
ATOM      8  C   UNL     1       0.088  -2.982  -4.876  0.00  0.00    +0.045 A 
ATOM      9  N   UNL     1       0.052  -2.554  -3.564  0.00  0.00    -0.354 N 
ATOM     10  H   UNL     1       0.048  -3.129  -2.783  0.00  0.00    +0.166 HD
ATOM     11  C   UNL     1       0.134  -4.282  -5.348  0.00  0.00    +0.051 C 
ATOM     12  C   UNL     1       0.130  -5.408  -4.511  0.00  0.00    +0.045 C 
ATOM     13  N   UNL     1       0.101  -5.442  -3.181  0.00  0.00    -0.355 N 
ATOM     14  C   UNL     1       0.091  -6.705  -2.750  0.00  0.00    +0.045 C 
ATOM     15  C   UNL     1       0.054  -7.174  -1.436  0.00  0.00    +0.051 C 
ATOM     16  C   UNL     1       0.038  -6.346  -0.312  0.00  0.00    +0.045 C 
ATOM     17  N   UNL     1       0.053  -5.012  -0.263  0.00  0.00    -0.355 N 
ATOM     18  C   UNL     1       0.036  -4.597   1.000  0.00  0.00    +0.045 C 
ATOM     19  C   UNL     1       0.044  -3.275   1.478  0.00  0.00    +0.052 C 
ATOM     20  C   UNL     1       0.031  -2.171   0.652  0.00  0.00    +0.049 A 
ATOM     21  C   UNL     1       0.024  -0.825   1.116  0.00  0.00    +0.003 A 
ATOM     22  N   UNL     1       0.025  -2.137  -0.727  0.00  0.00    -0.354 N 
ATOM     23  H   UNL     1       0.033  -2.911  -1.311  0.00  0.00    +0.166 HD
ATOM     24  C   UNL     1       0.001  -5.775   1.875  0.00  0.00    -0.022 C 
ATOM     25  C   UNL     1       0.000  -6.856   1.066  0.00  0.00    -0.019 C 
ATOM     26  C   UNL     1      -0.028  -5.777   3.382  0.00  0.00    +0.046 C 
ATOM     27  C   UNL     1       0.133  -7.591  -3.923  0.00  0.00    -0.019 C 
ATOM     28  C   UNL     1       0.159  -6.789  -5.010  0.00  0.00    -0.022 C 
ATOM     29  C   UNL     1       0.209  -7.226  -6.451  0.00  0.00    +0.046 C 
ATOM     30  C   UNL     1       0.099  -1.851  -7.215  0.00  0.00    +0.046 C 
ATOM     31  H   UNL     1       0.074  -4.429  -1.038  0.00  0.00    +0.166 HD
ATOM     32  H   UNL     1       0.089  -4.661  -2.606  0.00  0.00    +0.166 HD
ENDROOT
BRANCH  21  33
ATOM     33  C   UNL     1       0.038  -0.387   2.523  0.00  0.00    +0.002 C 
ATOM     34  C   UNL     1      -0.828  -0.904   3.389  0.00  0.00    +0.009 C 
ENDBRANCH  21  33
BRANCH   6  35
ATOM     35  C   UNL     1      -0.002   0.674  -5.346  0.00  0.00    +0.002 C 
ATOM     36  C   UNL     1      -0.914   1.508  -4.857  0.00  0.00    +0.009 C 
ENDBRANCH   6  35
BRANCH  25  37
ATOM     37  C   UNL     1      -0.033  -8.302   1.492  0.00  0.00    +0.049 C 
BRANCH  37  38
ATOM     38  C   UNL     1      -1.479  -8.802   1.485  0.00  0.00    +0.130 C 
BRANCH  38  39
ATOM     39  C   UNL     1      -1.513 -10.247   1.912  0.00  0.00    +0.356 C 
ATOM     40  O   UNL     1      -0.477 -10.823   2.195  0.00  0.00    -0.246 OA
ATOM     41  O   UNL     1      -2.577 -10.839   1.973  0.00  0.00    -0.246 OA
ENDBRANCH  38  39
ENDBRANCH  37  38
ENDBRANCH  25  37
BRANCH  27  42
ATOM     42  C   UNL     1       0.145  -9.098  -3.914  0.00  0.00    +0.049 C 
BRANCH  42  43
ATOM     43  C   UNL     1       1.581  -9.597  -3.743  0.00  0.00    +0.130 C 
BRANCH  43  44
ATOM     44  C   UNL     1       1.593 -11.103  -3.734  0.00  0.00    +0.356 C 
ATOM     45  O   UNL     1       0.549 -11.722  -3.854  0.00  0.00    -0.246 OA
ATOM     46  O   UNL     1       2.646 -11.704  -3.607  0.00  0.00    -0.246 OA
ENDBRANCH  43  44
ENDBRANCH  42  43
ENDBRANCH  27  42
TORSDOF 8
