REMARK  Name = ZINC36683534
REMARK  2 active torsions:
REMARK  status: ('A' for Active; 'I' for Inactive)
REMARK    1  A    between atoms: C_5  and  N_7
REMARK    2  A    between atoms: N_9  and  C_11
REMARK                            x       y       z     vdW  Elec       q    Type
REMARK                         _______ _______ _______ _____ _____    ______ ____
ROOT
ATOM      1  C   UNL     1      -0.017   1.377   0.010  0.00  0.00    +0.002 A 
ATOM      2  C   UNL     1       1.170   2.085   0.002  0.00  0.00    +0.005 A 
ATOM      3  C   UNL     1       2.382   1.415  -0.013  0.00  0.00    -0.024 A 
ATOM      4  C   UNL     1       2.408   0.036  -0.021  0.00  0.00    -0.005 A 
ATOM      5  C   UNL     1       1.215  -0.679  -0.013  0.00  0.00    +0.030 A 
ATOM      6  C   UNL     1       0.002  -0.004   0.002  0.00  0.00    +0.023 A 
ATOM      7  C   UNL     1       3.843  -0.426  -0.037  0.00  0.00    +0.142 C 
ATOM      8  N   UNL     1       4.695   0.768  -0.039  0.00  0.00    -0.321 N 
ATOM      9  C   UNL     1       3.800   1.929  -0.024  0.00  0.00    +0.141 C 
ENDROOT
BRANCH   8  10
ATOM     10  C   UNL     1       6.094   0.794  -0.051  0.00  0.00    +0.034 A 
ATOM     11  C   UNL     1       6.811  -0.396  -0.069  0.00  0.00    +0.027 A 
ATOM     12  C   UNL     1       8.192  -0.371  -0.080  0.00  0.00    +0.051 A 
ATOM     13  C   UNL     1       8.867   0.841  -0.074  0.00  0.00    +0.162 A 
ATOM     14  C   UNL     1       8.153   2.033  -0.059  0.00  0.00    +0.164 A 
ATOM     15  C   UNL     1       6.766   2.008  -0.051  0.00  0.00    +0.072 A 
ATOM     16  O   UNL     1       8.798   3.232  -0.061  0.00  0.00    -0.485 OA
ATOM     17  C   UNL     1      10.182   3.218   0.302  0.00  0.00    +0.270 C 
ATOM     18  C   UNL     1      10.867   2.072  -0.455  0.00  0.00    +0.270 C 
ATOM     19  O   UNL     1      10.229   0.845  -0.082  0.00  0.00    -0.485 OA
ENDBRANCH   8  10
BRANCH   5  20
ATOM     20  N   UNL     1       1.238  -2.076  -0.021  0.00  0.00    -0.358 N 
ATOM     21  H   UNL     1       2.086  -2.547  -0.032  0.00  0.00    +0.142 HD
ATOM     22  H   UNL     1       0.406  -2.574  -0.015  0.00  0.00    +0.142 HD
ENDBRANCH   5  20
TORSDOF 2
