REMARK  Name = ZINC65180214
REMARK  10 active torsions:
REMARK  status: ('A' for Active; 'I' for Inactive)
REMARK    1  A    between atoms: C_1  and  C_2
REMARK    2  A    between atoms: C_9  and  C_11
REMARK    3  A    between atoms: C_11  and  O_12
REMARK    4  A    between atoms: O_12  and  C_13
REMARK    5  A    between atoms: C_18  and  C_19
REMARK    6  A    between atoms: N_21  and  N_22
REMARK    7  A    between atoms: N_25  and  C_26
REMARK    8  A    between atoms: C_26  and  C_27
REMARK    9  A    between atoms: C_27  and  C_28
REMARK   10  A    between atoms: C_27  and  C_29
REMARK                            x       y       z     vdW  Elec       q    Type
REMARK                         _______ _______ _______ _____ _____    ______ ____
ROOT
ATOM      1  C   UNL     1       0.104  -2.907   6.611  0.00  0.00    +0.133 A 
ATOM      2  C   UNL     1       0.090  -1.802   7.449  0.00  0.00    +0.046 A 
ATOM      3  C   UNL     1       0.106  -1.973   8.819  0.00  0.00    +0.004 A 
ATOM      4  C   UNL     1       0.134  -3.245   9.367  0.00  0.00    +0.001 A 
ATOM      5  C   UNL     1       0.147  -4.354   8.549  0.00  0.00    +0.017 A 
ATOM      6  C   UNL     1       0.127  -4.196   7.161  0.00  0.00    +0.080 A 
ENDROOT
BRANCH   6   7
ATOM      7  C   UNL     1       0.135  -5.379   6.280  0.00  0.00    +0.264 C 
ATOM      8  O   UNL     1       0.121  -5.237   5.072  0.00  0.00    -0.269 OA
ATOM      9  N   UNL     1       0.157  -6.617   6.813  0.00  0.00    -0.229 N 
ATOM     10  H   UNL     1       0.167  -6.730   7.776  0.00  0.00    +0.173 HD
BRANCH   9  11
ATOM     11  N   UNL     1       0.164  -7.740   5.976  0.00  0.00    -0.218 N 
ATOM     12  C   UNL     1       0.186  -8.978   6.509  0.00  0.00    +0.316 C 
ATOM     13  O   UNL     1       0.193  -9.953   5.782  0.00  0.00    -0.251 OA
ATOM     14  N   UNL     1       0.201  -9.135   7.847  0.00  0.00    -0.298 N 
ATOM     15  H   UNL     1       0.154  -7.627   5.012  0.00  0.00    +0.174 HD
ATOM     16  H   UNL     1       0.196  -8.357   8.427  0.00  0.00    +0.150 HD
BRANCH  14  17
ATOM     17  C   UNL     1       0.225 -10.480   8.427  0.00  0.00    +0.108 C 
BRANCH  17  18
ATOM     18  C   UNL     1       0.238 -10.377   9.954  0.00  0.00    -0.000 C 
ATOM     19  C   UNL     1      -1.073  -9.753  10.434  0.00  0.00    +0.009 C 
ATOM     20  C   UNL     1       0.389 -11.775  10.557  0.00  0.00    +0.009 C 
ENDBRANCH  17  18
ENDBRANCH  14  17
ENDBRANCH   9  11
ENDBRANCH   6   7
BRANCH   1  21
ATOM     21  O   UNL     1       0.089  -2.741   5.265  0.00  0.00    -0.485 OA
BRANCH  21  22
ATOM     22  C   UNL     1       0.066  -1.399   4.777  0.00  0.00    +0.286 C 
BRANCH  22  31
ATOM     23  C   UNL     1      -0.018   1.503   0.010  0.00  0.00    +0.047 C 
ATOM     24  C   UNL     1       0.002  -0.004   0.002  0.00  0.00    -0.008 A 
ATOM     25  C   UNL     1       0.006  -0.685  -1.176  0.00  0.00    +0.008 A 
ATOM     26  C   UNL     1       0.025  -2.089  -1.168  0.00  0.00    +0.018 A 
ATOM     27  C   UNL     1       0.039  -2.763   0.001  0.00  0.00    +0.093 A 
ATOM     28  N   UNL     1       0.035  -2.093   1.190  0.00  0.00    -0.306 N 
ATOM     29  C   UNL     1       0.023  -0.722   1.214  0.00  0.00    +0.141 A 
ATOM     30  N   UNL     1       0.030  -0.334   2.482  0.00  0.00    -0.229 NA
ATOM     31  C   UNL     1       0.051  -1.412   3.270  0.00  0.00    +0.097 A 
ATOM     32  C   UNL     1       0.046  -2.516   2.491  0.00  0.00    +0.119 A 
ENDBRANCH  22  31
ENDBRANCH  21  22
ENDBRANCH   1  21
TORSDOF 7
