REMARK  Name = ZINC34756250
REMARK  5 active torsions:
REMARK  status: ('A' for Active; 'I' for Inactive)
REMARK    1  A    between atoms: C_4  and  C_7
REMARK    2  A    between atoms: C_7  and  S_8
REMARK    3  A    between atoms: S_8  and  C_9
REMARK    4  A    between atoms: N_25  and  C_28
REMARK    5  A    between atoms: C_28  and  C_29
REMARK                            x       y       z     vdW  Elec       q    Type
REMARK                         _______ _______ _______ _____ _____    ______ ____
ROOT
ATOM      1  C   UNL     1       6.076  -3.380   0.809  0.00  0.00    +0.191 A 
ATOM      2  N   UNL     1       6.737  -3.708   1.913  0.00  0.00    -0.206 NA
ATOM      3  C   UNL     1       7.609  -2.892   2.480  0.00  0.00    +0.134 A 
ATOM      4  C   UNL     1       7.850  -1.617   1.894  0.00  0.00    +0.051 A 
ATOM      5  C   UNL     1       8.759  -0.560   2.345  0.00  0.00    -0.025 A 
ATOM      6  C   UNL     1       8.803   0.565   1.604  0.00  0.00    -0.004 A 
ATOM      7  S   UNL     1       7.655   0.294   0.281  0.00  0.00    -0.073 S 
ATOM      8  C   UNL     1       7.115  -1.336   0.726  0.00  0.00    +0.115 A 
ATOM      9  N   UNL     1       6.265  -2.208   0.217  0.00  0.00    -0.215 NA
ATOM     10  C   UNL     1       9.642   1.782   1.851  0.00  0.00    +0.043 C 
ATOM     11  C   UNL     1      10.181   1.716   3.287  0.00  0.00    +0.005 C 
ATOM     12  C   UNL     1      10.758   0.319   3.532  0.00  0.00    +0.005 C 
ATOM     13  C   UNL     1       9.625  -0.707   3.593  0.00  0.00    +0.037 C 
ATOM     14  N   UNL     1       8.277  -3.271   3.629  0.00  0.00    -0.318 N 
ATOM     15  C   UNL     1       9.506  -4.077   3.558  0.00  0.00    +0.088 C 
ATOM     16  C   UNL     1       9.358  -5.272   4.506  0.00  0.00    -0.059 C 
ATOM     17  N   UNL     1       9.027  -4.789   5.853  0.00  0.00    +0.387 N 
ATOM     18  C   UNL     1       7.714  -4.130   5.840  0.00  0.00    -0.059 C 
ATOM     19  C   UNL     1       7.784  -2.874   4.957  0.00  0.00    +0.088 C 
ATOM     20  H   UNL     1       9.729  -4.130   6.155  0.00  0.00    -0.081 HD
ENDROOT
BRANCH   1  21
ATOM     21  S   UNL     1       4.931  -4.524   0.114  0.00  0.00    -0.081 S 
BRANCH  21  22
ATOM     22  C   UNL     1       4.290  -3.668  -1.352  0.00  0.00    +0.112 C 
BRANCH  22  26
ATOM     23  C   UNL     1       1.443  -6.165  -3.330  0.00  0.00    +0.000 A 
ATOM     24  C   UNL     1       1.027  -5.286  -2.348  0.00  0.00    +0.000 A 
ATOM     25  C   UNL     1       1.948  -4.478  -1.707  0.00  0.00    +0.004 A 
ATOM     26  C   UNL     1       3.286  -4.550  -2.049  0.00  0.00    -0.037 A 
ATOM     27  C   UNL     1       3.702  -5.429  -3.031  0.00  0.00    +0.004 A 
ATOM     28  C   UNL     1       2.781  -6.236  -3.672  0.00  0.00    +0.000 A 
ENDBRANCH  22  26
ENDBRANCH  21  22
ENDBRANCH   1  21
BRANCH  17  29
ATOM     29  C   UNL     1       8.993  -5.924   6.784  0.00  0.00    +0.019 C 
BRANCH  29  30
ATOM     30  C   UNL     1       8.775  -5.418   8.187  0.00  0.00    +0.199 C 
ATOM     31  O   UNL     1       8.659  -4.228   8.390  0.00  0.00    -0.278 OA
ATOM     32  N   UNL     1       8.709  -6.287   9.215  0.00  0.00    -0.303 N 
ATOM     33  C   UNL     1       8.854  -7.731   8.985  0.00  0.00    +0.107 C 
ATOM     34  C   UNL     1       9.957  -8.268   9.901  0.00  0.00    +0.019 C 
ATOM     35  C   UNL     1       9.640  -7.891  11.350  0.00  0.00    +0.003 C 
ATOM     36  C   UNL     1       9.599  -6.367  11.486  0.00  0.00    +0.019 C 
ATOM     37  C   UNL     1       8.497  -5.808  10.587  0.00  0.00    +0.107 C 
ENDBRANCH  29  30
ENDBRANCH  17  29
TORSDOF 5
