REMARK  Name = ZINC38547983
REMARK  8 active torsions:
REMARK  status: ('A' for Active; 'I' for Inactive)
REMARK    1  A    between atoms: C_1  and  C_2
REMARK    2  A    between atoms: C_4  and  C_32
REMARK    3  A    between atoms: N_8  and  C_9
REMARK    4  A    between atoms: C_9  and  C_11
REMARK    5  A    between atoms: C_9  and  C_18
REMARK    6  A    between atoms: C_20  and  C_31
REMARK    7  A    between atoms: C_22  and  N_23
REMARK    8  A    between atoms: C_24  and  C_26
REMARK                            x       y       z     vdW  Elec       q    Type
REMARK                         _______ _______ _______ _____ _____    ______ ____
ROOT
ATOM      1  C   UNL     1       0.046  -1.929   3.606  0.00  0.00    +0.136 C 
ENDROOT
BRANCH   1   9
ATOM      2  C   UNL     1      -0.018   1.503   0.010  0.00  0.00    +0.066 C 
ATOM      3  C   UNL     1       0.002  -0.004   0.002  0.00  0.00    +0.044 A 
ATOM      4  C   UNL     1       0.006  -0.699  -1.197  0.00  0.00    +0.046 A 
ATOM      5  C   UNL     1       0.025  -2.084  -1.160  0.00  0.00    +0.044 A 
ATOM      6  N   UNL     1       0.040  -2.698   0.011  0.00  0.00    -0.220 NA
ATOM      7  C   UNL     1       0.035  -2.004   1.140  0.00  0.00    +0.216 A 
ATOM      8  N   UNL     1       0.022  -0.679   1.139  0.00  0.00    -0.220 NA
ATOM      9  N   UNL     1       0.050  -2.679   2.348  0.00  0.00    -0.303 N 
ATOM     10  C   UNL     1       0.030  -2.881  -2.439  0.00  0.00    +0.066 C 
ATOM     11  H   UNL     1       0.063  -3.649   2.362  0.00  0.00    +0.150 HD
ENDBRANCH   1   9
BRANCH   1  12
ATOM     12  C   UNL     1       1.458  -1.546   3.968  0.00  0.00    -0.020 A 
ATOM     13  C   UNL     1       2.491  -2.442   3.763  0.00  0.00    +0.006 A 
ATOM     14  C   UNL     1       3.786  -2.092   4.094  0.00  0.00    +0.003 A 
ATOM     15  C   UNL     1       4.051  -0.846   4.631  0.00  0.00    +0.038 A 
ATOM     16  C   UNL     1       3.017   0.051   4.837  0.00  0.00    +0.124 A 
ATOM     17  C   UNL     1       1.720  -0.298   4.499  0.00  0.00    +0.044 A 
ATOM     18  F   UNL     1       3.274   1.269   5.362  0.00  0.00    -0.205 F 
ENDBRANCH   1  12
BRANCH   1  19
ATOM     19  C   UNL     1      -0.538  -2.786   4.700  0.00  0.00    +0.006 A 
ATOM     20  C   UNL     1      -0.491  -4.165   4.614  0.00  0.00    +0.018 A 
ATOM     21  C   UNL     1      -1.025  -4.905   5.615  0.00  0.00    -0.011 A 
ATOM     22  S   UNL     1      -1.622  -3.647   6.732  0.00  0.00    -0.078 S 
ATOM     23  C   UNL     1      -1.117  -2.215   5.794  0.00  0.00    +0.078 A 
ATOM     24  C   UNL     1      -1.097  -6.405   5.751  0.00  0.00    +0.051 C 
BRANCH  23  25
ATOM     25  N   UNL     1      -1.275  -0.862   6.100  0.00  0.00    -0.273 N 
ATOM     26  C   UNL     1      -1.882  -0.497   7.247  0.00  0.00    +0.284 C 
ATOM     27  O   UNL     1      -2.293  -1.348   8.015  0.00  0.00    -0.266 OA
ATOM     28  H   UNL     1      -0.948  -0.185   5.488  0.00  0.00    +0.156 HD
BRANCH  26  29
ATOM     29  C   UNL     1      -2.048   0.923   7.569  0.00  0.00    +0.189 A 
ATOM     30  C   UNL     1      -2.637   1.428   8.693  0.00  0.00    +0.054 A 
ATOM     31  C   UNL     1      -2.578   2.826   8.586  0.00  0.00    +0.042 A 
ATOM     32  C   UNL     1      -1.963   3.111   7.417  0.00  0.00    +0.196 A 
ATOM     33  O   UNL     1      -1.641   1.961   6.809  0.00  0.00    -0.458 OA
ENDBRANCH  26  29
ENDBRANCH  23  25
ENDBRANCH   1  19
TORSDOF 5
