REMARK  Name = ZINC35967465
REMARK  9 active torsions:
REMARK  status: ('A' for Active; 'I' for Inactive)
REMARK    1  A    between atoms: C_1  and  C_2
REMARK    2  A    between atoms: C_2  and  N_3
REMARK    3  A    between atoms: C_6  and  C_11
REMARK    4  A    between atoms: C_14  and  C_18
REMARK    5  A    between atoms: C_16  and  C_17
REMARK    6  A    between atoms: N_21  and  C_23
REMARK    7  A    between atoms: C_23  and  C_24
REMARK    8  A    between atoms: C_24  and  C_25
REMARK    9  A    between atoms: N_27  and  C_28
REMARK                            x       y       z     vdW  Elec       q    Type
REMARK                         _______ _______ _______ _____ _____    ______ ____
ROOT
ATOM      1  N   UNL     1      -1.064  -0.683   0.912  0.00  0.00    -0.257 N 
ATOM      2  C   UNL     1      -1.745  -1.067   2.032  0.00  0.00    +0.042 C 
ATOM      3  C   UNL     1      -3.015  -1.514   1.958  0.00  0.00    +0.058 C 
ATOM      4  C   UNL     1      -3.662  -1.576   0.590  0.00  0.00    +0.142 C 
ATOM      5  N   UNL     1      -2.845  -1.140  -0.555  0.00  0.00    -0.288 N 
ATOM      6  C   UNL     1      -1.588  -0.712  -0.321  0.00  0.00    +0.307 C 
ATOM      7  O   UNL     1      -0.907  -0.346  -1.258  0.00  0.00    -0.252 OA
ATOM      8  C   UNL     1      -3.493  -1.846   3.243  0.00  0.00    +0.247 C 
ATOM      9  O   UNL     1      -4.608  -2.276   3.472  0.00  0.00    -0.270 OA
ATOM     10  N   UNL     1      -2.555  -1.626   4.182  0.00  0.00    -0.292 N 
ATOM     11  C   UNL     1      -1.361  -1.112   3.494  0.00  0.00    +0.159 C 
ATOM     12  H   UNL     1      -3.203  -1.156  -1.456  0.00  0.00    +0.151 HD
ENDROOT
BRANCH   4  13
ATOM     13  C   UNL     1      -4.904  -0.724   0.624  0.00  0.00    -0.020 A 
ATOM     14  C   UNL     1      -5.053   0.243   1.601  0.00  0.00    +0.006 A 
ATOM     15  C   UNL     1      -6.192   1.025   1.633  0.00  0.00    +0.004 A 
ATOM     16  C   UNL     1      -7.183   0.841   0.687  0.00  0.00    -0.050 A 
ATOM     17  C   UNL     1      -7.035  -0.125  -0.290  0.00  0.00    +0.007 A 
ATOM     18  C   UNL     1      -5.893  -0.904  -0.325  0.00  0.00    -0.045 A 
ATOM     19  C   UNL     1      -5.729  -1.954  -1.394  0.00  0.00    +0.044 C 
ATOM     20  C   UNL     1      -8.426   1.693   0.722  0.00  0.00    +0.044 C 
ENDBRANCH   4  13
BRANCH   1  22
ATOM     21  C   UNL     1       0.307   1.305   1.296  0.00  0.00    +0.025 C 
ATOM     22  C   UNL     1       0.313  -0.207   1.067  0.00  0.00    +0.111 C 
ENDBRANCH   1  22
BRANCH  10  23
ATOM     23  C   UNL     1      -2.696  -1.857   5.622  0.00  0.00    +0.117 C 
BRANCH  23  24
ATOM     24  C   UNL     1      -2.261  -3.285   5.955  0.00  0.00    +0.115 C 
BRANCH  24  25
ATOM     25  C   UNL     1      -2.406  -3.522   7.436  0.00  0.00    +0.219 C 
ATOM     26  O   UNL     1      -2.817  -2.635   8.155  0.00  0.00    -0.275 OA
ATOM     27  N   UNL     1      -2.079  -4.718   7.963  0.00  0.00    -0.285 N 
ATOM     28  H   UNL     1      -1.682  -5.403   7.402  0.00  0.00    +0.155 HD
BRANCH  27  29
ATOM     29  C   UNL     1      -2.312  -4.974   9.320  0.00  0.00    +0.034 A 
ATOM     30  C   UNL     1      -1.529  -5.898   9.998  0.00  0.00    +0.026 A 
ATOM     31  C   UNL     1      -1.760  -6.148  11.336  0.00  0.00    +0.040 A 
ATOM     32  C   UNL     1      -2.774  -5.479  12.001  0.00  0.00    +0.124 A 
ATOM     33  C   UNL     1      -3.556  -4.557  11.327  0.00  0.00    +0.040 A 
ATOM     34  C   UNL     1      -3.324  -4.299   9.990  0.00  0.00    +0.026 A 
ATOM     35  F   UNL     1      -2.999  -5.726  13.310  0.00  0.00    -0.205 F 
ENDBRANCH  27  29
ENDBRANCH  24  25
ENDBRANCH  23  24
ENDBRANCH  10  23
TORSDOF 6
