REMARK  Name = ZINC14476226
REMARK  7 active torsions:
REMARK  status: ('A' for Active; 'I' for Inactive)
REMARK    1  A    between atoms: C_1  and  C_2
REMARK    2  A    between atoms: C_2  and  C_3
REMARK    3  A    between atoms: C_3  and  C_4
REMARK    4  A    between atoms: N_6  and  C_7
REMARK    5  A    between atoms: C_20  and  C_23
REMARK    6  A    between atoms: C_25  and  N_30
REMARK    7  A    between atoms: C_28  and  O_29
REMARK                            x       y       z     vdW  Elec       q    Type
REMARK                         _______ _______ _______ _____ _____    ______ ____
ROOT
ATOM      1  C   UNL     1      -2.608  -4.128  -0.086  0.00  0.00    +0.034 A 
ATOM      2  C   UNL     1      -1.425  -4.855  -0.089  0.00  0.00    +0.025 A 
ATOM      3  C   UNL     1      -1.467  -6.230  -0.192  0.00  0.00    +0.025 A 
ATOM      4  C   UNL     1      -2.690  -6.888  -0.289  0.00  0.00    +0.031 A 
ATOM      5  C   UNL     1      -3.871  -6.168  -0.274  0.00  0.00    -0.018 A 
ATOM      6  C   UNL     1      -3.825  -4.785  -0.173  0.00  0.00    +0.029 A 
ATOM      7  C   UNL     1      -5.218  -6.832  -0.340  0.00  0.00    +0.049 C 
ATOM      8  C   UNL     1      -6.060  -6.287   0.803  0.00  0.00    -0.023 C 
ATOM      9  C   UNL     1      -6.109  -7.145   1.789  0.00  0.00    -0.030 C 
ATOM     10  C   UNL     1      -5.320  -8.395   1.458  0.00  0.00    +0.033 C 
ATOM     11  C   UNL     1      -5.158  -8.336  -0.093  0.00  0.00    +0.029 C 
ATOM     12  C   UNL     1      -3.925  -9.036  -0.582  0.00  0.00    +0.108 C 
ATOM     13  N   UNL     1      -2.702  -8.276  -0.407  0.00  0.00    -0.336 N 
ATOM     14  H   UNL     1      -1.857  -8.751  -0.394  0.00  0.00    +0.147 HD
ENDROOT
BRANCH  12  15
ATOM     15  C   UNL     1      -3.772 -10.324   0.185  0.00  0.00    +0.017 A 
ATOM     16  C   UNL     1      -2.972 -10.368   1.310  0.00  0.00    +0.041 A 
ATOM     17  C   UNL     1      -2.831 -11.550   2.014  0.00  0.00    +0.127 A 
ATOM     18  C   UNL     1      -3.491 -12.691   1.594  0.00  0.00    +0.036 A 
ATOM     19  C   UNL     1      -4.292 -12.652   0.469  0.00  0.00    +0.048 A 
ATOM     20  C   UNL     1      -4.439 -11.465  -0.235  0.00  0.00    +0.122 A 
BRANCH  17  21
ATOM     21  N   UNL     1      -1.973 -11.595   3.219  0.00  0.00    +0.056 N 
ATOM     22  O   UNL     1      -1.395 -10.598   3.587  0.00  0.00    -0.126 OA
ATOM     23  O   UNL     1      -1.849 -12.627   3.835  0.00  0.00    -0.126 OA
ENDBRANCH  17  21
BRANCH  20  24
ATOM     24  O   UNL     1      -5.231 -11.423  -1.339  0.00  0.00    -0.506 OA
ATOM     25  H   UNL     1      -4.769 -11.630  -2.163  0.00  0.00    +0.292 HD
ENDBRANCH  20  24
ENDBRANCH  12  15
BRANCH   1  28
ATOM     26  C   UNL     1      -1.575  -2.039  -0.578  0.00  0.00    +0.217 C 
ATOM     27  O   UNL     1      -0.666  -2.631  -1.122  0.00  0.00    -0.275 OA
ATOM     28  N   UNL     1      -2.571  -2.730   0.012  0.00  0.00    -0.285 N 
ATOM     29  H   UNL     1      -3.262  -2.260   0.504  0.00  0.00    +0.155 HD
BRANCH  26  30
ATOM     30  C   UNL     1      -1.592  -0.533  -0.563  0.00  0.00    +0.096 C 
BRANCH  30  32
ATOM     31  C   UNL     1      -0.375   1.528  -1.280  0.00  0.00    +0.004 C 
ATOM     32  C   UNL     1      -0.358  -0.002  -1.296  0.00  0.00    +0.006 C 
ENDBRANCH  30  32
ENDBRANCH  26  30
ENDBRANCH   1  28
TORSDOF 6
