REMARK  Name = ZINC64959091
REMARK  5 active torsions:
REMARK  status: ('A' for Active; 'I' for Inactive)
REMARK    1  A    between atoms: C_1  and  C_2
REMARK    2  A    between atoms: C_5  and  N_9
REMARK    3  A    between atoms: C_6  and  C_8
REMARK    4  A    between atoms: C_10  and  C_12
REMARK    5  A    between atoms: C_21  and  C_26
REMARK                            x       y       z     vdW  Elec       q    Type
REMARK                         _______ _______ _______ _____ _____    ______ ____
ROOT
ATOM      1  C   UNL     1      -0.134  -6.307  -1.188  0.00  0.00    +0.102 A 
ATOM      2  C   UNL     1      -0.127  -7.021  -2.378  0.00  0.00    +0.031 A 
ATOM      3  C   UNL     1      -0.218  -8.428  -2.329  0.00  0.00    +0.038 A 
ATOM      4  C   UNL     1      -0.319  -9.088  -1.116  0.00  0.00    +0.030 A 
ATOM      5  N   UNL     1      -0.320  -8.395   0.041  0.00  0.00    -0.325 N 
ATOM      6  H   UNL     1      -0.385  -8.879   0.879  0.00  0.00    +0.169 HD
ATOM      7  C   UNL     1      -0.229  -7.056   0.068  0.00  0.00    +0.261 A 
ATOM      8  O   UNL     1      -0.230  -6.464   1.133  0.00  0.00    -0.267 OA
ATOM      9  C   UNL     1      -0.438 -10.589  -1.045  0.00  0.00    +0.062 C 
ATOM     10  C   UNL     1       0.127 -11.250  -2.298  0.00  0.00    +0.032 C 
ATOM     11  C   UNL     1      -0.560 -10.658  -3.536  0.00  0.00    +0.088 C 
ATOM     12  C   UNL     1      -0.199  -9.189  -3.591  0.00  0.00    +0.165 C 
ATOM     13  O   UNL     1       0.097  -8.655  -4.639  0.00  0.00    -0.292 OA
ENDROOT
BRANCH  10  14
ATOM     14  C   UNL     1      -0.127 -12.735  -2.242  0.00  0.00    -0.044 A 
ATOM     15  C   UNL     1      -1.423 -13.212  -2.174  0.00  0.00    +0.004 A 
ATOM     16  C   UNL     1      -1.655 -14.574  -2.123  0.00  0.00    +0.000 A 
ATOM     17  C   UNL     1      -0.593 -15.458  -2.139  0.00  0.00    +0.000 A 
ATOM     18  C   UNL     1       0.702 -14.980  -2.208  0.00  0.00    +0.000 A 
ATOM     19  C   UNL     1       0.935 -13.619  -2.264  0.00  0.00    +0.004 A 
ENDBRANCH  10  14
BRANCH   1  21
ATOM     20  N   UNL     1       0.070  -4.170  -0.022  0.00  0.00    -0.281 N 
ATOM     21  C   UNL     1      -0.042  -4.838  -1.187  0.00  0.00    +0.254 C 
ATOM     22  O   UNL     1      -0.067  -4.226  -2.239  0.00  0.00    -0.270 OA
ATOM     23  H   UNL     1       0.159  -4.660   0.811  0.00  0.00    +0.155 HD
BRANCH  20  28
ATOM     24  C   UNL     1       0.024   1.502   0.013  0.00  0.00    +0.044 C 
ATOM     25  C   UNL     1       0.037  -0.005   0.004  0.00  0.00    -0.050 A 
ATOM     26  C   UNL     1       0.506  -0.685  -1.106  0.00  0.00    +0.005 A 
ATOM     27  C   UNL     1       0.519  -2.065  -1.117  0.00  0.00    +0.024 A 
ATOM     28  C   UNL     1       0.060  -2.772  -0.013  0.00  0.00    +0.037 A 
ATOM     29  C   UNL     1      -0.411  -2.087   1.099  0.00  0.00    -0.029 A 
ATOM     30  C   UNL     1      -0.416  -0.705   1.107  0.00  0.00    +0.008 A 
ATOM     31  C   UNL     1      -0.910  -2.849   2.299  0.00  0.00    +0.045 C 
ENDBRANCH  20  28
ENDBRANCH   1  21
TORSDOF 3
