REMARK  Name = ZINC03267736
REMARK  5 active torsions:
REMARK  status: ('A' for Active; 'I' for Inactive)
REMARK    1  A    between atoms: C_8  and  N_23
REMARK    2  A    between atoms: C_9  and  N_11
REMARK    3  A    between atoms: N_11  and  S_12
REMARK    4  A    between atoms: S_12  and  C_15
REMARK    5  A    between atoms: N_23  and  C_24
REMARK                            x       y       z     vdW  Elec       q    Type
REMARK                         _______ _______ _______ _____ _____    ______ ____
ROOT
ATOM      1  C   UNL     1       0.175  -8.649   0.406  0.00  0.00    +0.002 A 
ATOM      2  C   UNL     1       1.388  -9.285   0.152  0.00  0.00    +0.002 A 
ATOM      3  C   UNL     1       2.481  -8.575  -0.242  0.00  0.00    +0.030 A 
ATOM      4  C   UNL     1       2.390  -7.182  -0.395  0.00  0.00    +0.091 A 
ATOM      5  C   UNL     1       1.157  -6.535  -0.137  0.00  0.00    +0.091 A 
ATOM      6  C   UNL     1       0.051  -7.299   0.268  0.00  0.00    +0.030 A 
ATOM      7  N   UNL     1       1.061  -5.205  -0.275  0.00  0.00    -0.227 NA
ATOM      8  C   UNL     1       2.111  -4.509  -0.659  0.00  0.00    +0.165 A 
ATOM      9  C   UNL     1       3.343  -5.156  -0.918  0.00  0.00    +0.179 A 
ATOM     10  N   UNL     1       3.453  -6.461  -0.782  0.00  0.00    -0.226 NA
ENDROOT
BRANCH   9  11
ATOM     11  N   UNL     1       4.442  -4.410  -1.318  0.00  0.00    -0.197 N 
ATOM     12  H   UNL     1       4.387  -3.442  -1.347  0.00  0.00    +0.175 HD
BRANCH  11  13
ATOM     13  S   UNL     1       5.849  -5.173  -1.746  0.00  0.00    +0.075 S 
ATOM     14  O   UNL     1       5.489  -6.218  -2.638  0.00  0.00    -0.150 OA
ATOM     15  O   UNL     1       6.772  -4.153  -2.100  0.00  0.00    -0.150 OA
BRANCH  13  16
ATOM     16  C   UNL     1       6.484  -5.946  -0.295  0.00  0.00    +0.128 A 
ATOM     17  C   UNL     1       6.580  -7.323  -0.231  0.00  0.00    +0.050 A 
ATOM     18  C   UNL     1       7.079  -7.929   0.907  0.00  0.00    +0.043 A 
ATOM     19  C   UNL     1       7.481  -7.157   1.983  0.00  0.00    +0.021 A 
ATOM     20  C   UNL     1       7.385  -5.780   1.919  0.00  0.00    +0.023 A 
ATOM     21  C   UNL     1       6.891  -5.173   0.778  0.00  0.00    +0.068 A 
ATOM     22 CL   UNL     1       6.777  -3.443   0.696  0.00  0.00    -0.082 Cl
ATOM     23 CL   UNL     1       7.201  -9.659   0.987  0.00  0.00    -0.083 Cl
ENDBRANCH  13  16
ENDBRANCH  11  13
ENDBRANCH   9  11
BRANCH   8  24
ATOM     24  N   UNL     1       2.010  -3.133  -0.807  0.00  0.00    -0.296 N 
ATOM     25  H   UNL     1       2.756  -2.628  -1.167  0.00  0.00    +0.154 HD
BRANCH  24  26
ATOM     26  C   UNL     1       0.835  -2.475  -0.436  0.00  0.00    +0.036 A 
ATOM     27  C   UNL     1      -0.001  -3.041   0.515  0.00  0.00    +0.023 A 
ATOM     28  C   UNL     1      -1.162  -2.388   0.880  0.00  0.00    +0.002 A 
ATOM     29  C   UNL     1      -1.484  -1.180   0.295  0.00  0.00    +0.004 A 
ATOM     30  C   UNL     1      -0.651  -0.609  -0.659  0.00  0.00    -0.042 A 
ATOM     31  C   UNL     1       0.510  -1.252  -1.023  0.00  0.00    -0.023 A 
ATOM     32  C   UNL     1       1.466  -0.685  -2.039  0.00  0.00    +0.037 C 
ATOM     33  C   UNL     1       0.782   0.391  -2.880  0.00  0.00    +0.005 C 
ATOM     34  C   UNL     1       0.117   1.395  -1.930  0.00  0.00    +0.005 C 
ATOM     35  C   UNL     1      -1.070   0.708  -1.258  0.00  0.00    +0.035 C 
ENDBRANCH  24  26
ENDBRANCH   8  24
TORSDOF 5
