REMARK  Name = ZINC00946531
REMARK  12 active torsions:
REMARK  status: ('A' for Active; 'I' for Inactive)
REMARK    1  A    between atoms: C_1  and  C_2
REMARK    2  A    between atoms: C_2  and  N_3
REMARK    3  A    between atoms: N_3  and  C_4
REMARK    4  A    between atoms: N_3  and  C_6
REMARK    5  A    between atoms: C_4  and  C_5
REMARK    6  A    between atoms: C_9  and  C_12
REMARK    7  A    between atoms: C_14  and  C_26
REMARK    8  A    between atoms: C_16  and  C_21
REMARK    9  A    between atoms: C_16  and  O_25
REMARK   10  A    between atoms: C_26  and  O_28
REMARK   11  A    between atoms: O_28  and  C_29
REMARK   12  A    between atoms: C_29  and  C_30
REMARK                            x       y       z     vdW  Elec       q    Type
REMARK                         _______ _______ _______ _____ _____    ______ ____
ROOT
ATOM      1  C   UNL     1      -4.711  -1.244  -3.897  0.00  0.00    +0.121 C 
ATOM      2  C   UNL     1      -4.136  -2.548  -4.461  0.00  0.00    +0.181 C 
ATOM      3  C   UNL     1      -3.695  -3.432  -3.290  0.00  0.00    +0.244 C 
ATOM      4  N   UNL     1      -4.827  -3.629  -2.383  0.00  0.00    -0.291 N 
ATOM      5  C   UNL     1      -5.791  -2.705  -2.260  0.00  0.00    +0.133 C 
ATOM      6  S   UNL     1      -7.076  -2.998  -1.168  0.00  0.00    -0.019 S 
ATOM      7  N   UNL     1      -5.788  -1.559  -2.958  0.00  0.00    -0.319 N 
ATOM      8  H   UNL     1      -4.881  -4.445  -1.861  0.00  0.00    +0.151 HD
ATOM      9  H   UNL     1      -6.514  -0.928  -2.837  0.00  0.00    +0.148 HD
ENDROOT
BRANCH   1  13
ATOM     10  C   UNL     1      -1.631   0.915  -1.867  0.00  0.00    +0.030 A 
ATOM     11  C   UNL     1      -1.772   1.032  -3.244  0.00  0.00    +0.023 A 
ATOM     12  C   UNL     1      -2.764   0.329  -3.898  0.00  0.00    +0.007 A 
ATOM     13  C   UNL     1      -3.625  -0.483  -3.182  0.00  0.00    -0.026 A 
ATOM     14  C   UNL     1      -3.491  -0.597  -1.810  0.00  0.00    +0.007 A 
ATOM     15  C   UNL     1      -2.497   0.099  -1.151  0.00  0.00    +0.023 A 
BRANCH  10  16
ATOM     16  N   UNL     1      -0.625   1.621  -1.203  0.00  0.00    -0.330 N 
BRANCH  16  18
ATOM     17  C   UNL     1       1.505   1.668  -2.404  0.00  0.00    +0.024 C 
ATOM     18  C   UNL     1       0.287   2.482  -1.960  0.00  0.00    +0.102 C 
ENDBRANCH  16  18
BRANCH  16  19
ATOM     19  C   UNL     1      -0.482   1.501   0.250  0.00  0.00    +0.102 C 
ATOM     20  C   UNL     1      -1.333   2.572   0.936  0.00  0.00    +0.024 C 
ENDBRANCH  16  19
ENDBRANCH  10  16
ENDBRANCH   1  13
BRANCH   3  21
ATOM     21  C   UNL     1      -3.222  -4.787  -3.822  0.00  0.00    +0.436 C 
ATOM     22  F   UNL     1      -2.151  -4.594  -4.702  0.00  0.00    -0.166 F 
ATOM     23  F   UNL     1      -2.809  -5.589  -2.753  0.00  0.00    -0.166 F 
ATOM     24  F   UNL     1      -4.274  -5.415  -4.498  0.00  0.00    -0.166 F 
ENDBRANCH   3  21
BRANCH   3  25
ATOM     25  O   UNL     1      -2.625  -2.796  -2.587  0.00  0.00    -0.364 OA
ATOM     26  H   UNL     1      -2.295  -3.301  -1.832  0.00  0.00    +0.212 HD
ENDBRANCH   3  25
BRANCH   2  27
ATOM     27  C   UNL     1      -5.194  -3.261  -5.263  0.00  0.00    +0.317 C 
ATOM     28  O   UNL     1      -6.325  -3.332  -4.845  0.00  0.00    -0.250 OA
BRANCH  27  29
ATOM     29  O   UNL     1      -4.879  -3.819  -6.443  0.00  0.00    -0.465 OA
BRANCH  29  30
ATOM     30  C   UNL     1      -5.947  -4.490  -7.161  0.00  0.00    +0.229 C 
ATOM     31  C   UNL     1      -5.402  -5.058  -8.473  0.00  0.00    +0.048 C 
ENDBRANCH  29  30
ENDBRANCH  27  29
ENDBRANCH   2  27
TORSDOF 9
