REMARK  Name = ZINC01642615
REMARK  6 active torsions:
REMARK  status: ('A' for Active; 'I' for Inactive)
REMARK    1  A    between atoms: C_1  and  C_2
REMARK    2  A    between atoms: C_5  and  N_8
REMARK    3  A    between atoms: C_10  and  C_26
REMARK    4  A    between atoms: C_16  and  N_17
REMARK    5  A    between atoms: N_17  and  N_18
REMARK    6  A    between atoms: N_20  and  C_25
REMARK                            x       y       z     vdW  Elec       q    Type
REMARK                         _______ _______ _______ _____ _____    ______ ____
ROOT
ATOM      1  N   UNL     1      -4.661   0.765   0.029  0.00  0.00    -0.300 N 
ATOM      2  C   UNL     1      -4.169  -0.513   0.019  0.00  0.00    +0.102 A 
ATOM      3  C   UNL     1      -2.813  -0.479   0.012  0.00  0.00    +0.013 A 
ATOM      4  C   UNL     1      -2.430   0.939   0.019  0.00  0.00    +0.068 A 
ATOM      5  C   UNL     1      -3.631   1.670   0.029  0.00  0.00    +0.151 A 
ATOM      6  N   UNL     1      -3.565   3.001   0.036  0.00  0.00    -0.217 NA
ATOM      7  C   UNL     1      -2.403   3.618   0.034  0.00  0.00    +0.225 A 
ATOM      8  N   UNL     1      -1.252   2.971   0.030  0.00  0.00    -0.219 NA
ATOM      9  C   UNL     1      -1.215   1.639   0.017  0.00  0.00    +0.151 A 
ENDROOT
BRANCH   1  14
ATOM     10  C   UNL     1     -10.171   2.122   0.063  0.00  0.00    +0.044 C 
ATOM     11  C   UNL     1      -8.708   1.762   0.054  0.00  0.00    -0.050 A 
ATOM     12  C   UNL     1      -8.226   0.854  -0.872  0.00  0.00    +0.005 A 
ATOM     13  C   UNL     1      -6.886   0.522  -0.883  0.00  0.00    +0.026 A 
ATOM     14  C   UNL     1      -6.021   1.100   0.037  0.00  0.00    +0.048 A 
ATOM     15  C   UNL     1      -6.509   2.006   0.970  0.00  0.00    +0.026 A 
ATOM     16  C   UNL     1      -7.849   2.339   0.972  0.00  0.00    +0.005 A 
ENDBRANCH   1  14
BRANCH   3  17
ATOM     17  C   UNL     1      -1.897  -1.644   0.001  0.00  0.00    -0.016 A 
ATOM     18  C   UNL     1      -0.863  -1.712  -0.933  0.00  0.00    +0.010 A 
ATOM     19  C   UNL     1      -0.010  -2.796  -0.936  0.00  0.00    +0.020 A 
ATOM     20  C   UNL     1      -0.185  -3.821  -0.022  0.00  0.00    +0.041 A 
ATOM     21  C   UNL     1      -1.213  -3.761   0.904  0.00  0.00    +0.020 A 
ATOM     22  C   UNL     1      -2.069  -2.678   0.919  0.00  0.00    +0.010 A 
ATOM     23 CL   UNL     1       0.888  -5.186  -0.035  0.00  0.00    -0.084 Cl
ENDBRANCH   3  17
BRANCH   9  24
ATOM     24  N   UNL     1      -0.011   0.966   0.007  0.00  0.00    -0.218 N 
ATOM     25  H   UNL     1       0.002  -0.004   0.002  0.00  0.00    +0.176 HD
BRANCH  24  26
ATOM     26  N   UNL     1       1.193   1.683  -0.000  0.00  0.00    -0.158 NA
ATOM     27  C   UNL     1       2.328   1.048  -0.015  0.00  0.00    +0.180 C 
ATOM     28  N   UNL     1       3.610   1.582  -0.024  0.00  0.00    -0.252 N 
ATOM     29  C   UNL     1       4.689   0.818  -0.038  0.00  0.00    +0.231 C 
ATOM     30  O   UNL     1       5.808   1.285  -0.046  0.00  0.00    -0.274 OA
ATOM     31  C   UNL     1       4.441  -0.681  -0.043  0.00  0.00    +0.173 C 
ATOM     32  S   UNL     1       2.605  -0.717  -0.019  0.00  0.00    -0.079 S 
ATOM     33  C   UNL     1       3.772   3.038  -0.019  0.00  0.00    +0.140 C 
ENDBRANCH  24  26
ENDBRANCH   9  24
TORSDOF 4
