REMARK  Name = ZINC20744491
REMARK  3 active torsions:
REMARK  status: ('A' for Active; 'I' for Inactive)
REMARK    1  A    between atoms: C_1  and  C_2
REMARK    2  A    between atoms: C_5  and  C_8
REMARK    3  A    between atoms: C_8  and  N_9
REMARK                            x       y       z     vdW  Elec       q    Type
REMARK                         _______ _______ _______ _____ _____    ______ ____
ROOT
ATOM      1  N   UNL     1       1.447  -4.746  -0.032  0.00  0.00    -0.266 N 
ATOM      2  C   UNL     1       2.175  -4.983  -1.184  0.00  0.00    +0.041 A 
ATOM      3  C   UNL     1       1.790  -4.846  -2.519  0.00  0.00    +0.024 A 
ATOM      4  C   UNL     1       2.733  -5.156  -3.486  0.00  0.00    +0.002 A 
ATOM      5  C   UNL     1       4.003  -5.584  -3.157  0.00  0.00    +0.000 A 
ATOM      6  C   UNL     1       4.399  -5.726  -1.831  0.00  0.00    +0.007 A 
ATOM      7  C   UNL     1       3.467  -5.419  -0.864  0.00  0.00    -0.006 A 
ATOM      8  C   UNL     1       3.536  -5.456   0.629  0.00  0.00    +0.112 C 
ATOM      9  C   UNL     1       2.168  -4.994   1.082  0.00  0.00    +0.236 C 
ATOM     10  O   UNL     1       1.790  -4.872   2.228  0.00  0.00    -0.274 OA
ATOM     11  C   UNL     1       3.812  -6.870   1.135  0.00  0.00    +0.122 C 
ATOM     12  C   UNL     1       5.276  -7.203   1.052  0.00  0.00    +0.220 C 
ATOM     13  O   UNL     1       5.605  -8.329   0.743  0.00  0.00    -0.275 OA
ATOM     14  N   UNL     1       6.235  -6.289   1.308  0.00  0.00    -0.270 N 
ATOM     15  C   UNL     1       5.857  -4.956   1.463  0.00  0.00    +0.125 A 
ATOM     16  C   UNL     1       4.592  -4.524   1.154  0.00  0.00    +0.032 A 
ATOM     17  C   UNL     1       4.531  -3.164   1.415  0.00  0.00    +0.141 A 
ATOM     18  N   UNL     1       5.706  -2.778   1.854  0.00  0.00    -0.180 NA
ATOM     19  N   UNL     1       6.558  -3.893   1.882  0.00  0.00    -0.264 N 
ATOM     20  H   UNL     1       7.488  -3.895   2.157  0.00  0.00    +0.190 HD
ATOM     21  H   UNL     1       7.165  -6.553   1.384  0.00  0.00    +0.156 HD
ENDROOT
BRANCH   1  22
ATOM     22  C   UNL     1       0.059  -4.275  -0.021  0.00  0.00    +0.148 C 
BRANCH  22  27
ATOM     23  C   UNL     1      -0.018   1.503   0.010  0.00  0.00    +0.044 C 
ATOM     24  C   UNL     1       0.002  -0.004   0.002  0.00  0.00    -0.050 A 
ATOM     25  C   UNL     1       0.006  -0.689  -1.199  0.00  0.00    +0.003 A 
ATOM     26  C   UNL     1       0.025  -2.071  -1.206  0.00  0.00    +0.005 A 
ATOM     27  C   UNL     1       0.040  -2.768  -0.013  0.00  0.00    -0.030 A 
ATOM     28  C   UNL     1       0.037  -2.084   1.188  0.00  0.00    +0.005 A 
ATOM     29  C   UNL     1       0.023  -0.702   1.195  0.00  0.00    +0.003 A 
ENDBRANCH  22  27
ENDBRANCH   1  22
TORSDOF 2
