REMARK  Name = ZINC08386177
REMARK  9 active torsions:
REMARK  status: ('A' for Active; 'I' for Inactive)
REMARK    1  A    between atoms: C_1  and  C_2
REMARK    2  A    between atoms: C_2  and  O_3
REMARK    3  A    between atoms: O_3  and  C_4
REMARK    4  A    between atoms: C_4  and  C_6
REMARK    5  A    between atoms: C_6  and  C_30
REMARK    6  A    between atoms: C_11  and  C_12
REMARK    7  A    between atoms: C_11  and  N_68
REMARK    8  A    between atoms: C_12  and  C_13
REMARK    9  A    between atoms: C_13  and  C_28
REMARK                            x       y       z     vdW  Elec       q    Type
REMARK                         _______ _______ _______ _____ _____    ______ ____
ROOT
ATOM      1  C   UNL     1       0.158   7.938  -2.842  0.00  0.00    -0.077 C 
ENDROOT
BRANCH   1   7
ATOM      2  C   UNL     1      -1.246  11.861  -3.798  0.00  0.00    +0.089 C 
ATOM      3  C   UNL     1       0.249  11.548  -3.907  0.00  0.00    +0.004 C 
ATOM      4  C   UNL     1       0.441  10.034  -4.019  0.00  0.00    -0.077 C 
ATOM      5  C   UNL     1      -1.574   9.626  -2.736  0.00  0.00    -0.077 C 
ATOM      6  C   UNL     1      -1.826  11.127  -2.586  0.00  0.00    +0.004 C 
ATOM      7  N   UNL     1      -0.116   9.389  -2.811  0.00  0.00    +0.380 N 
ATOM      8  H   UNL     1       0.330   9.795  -1.980  0.00  0.00    -0.082 HD
BRANCH   2   9
ATOM      9  C   UNL     1      -1.438  13.346  -3.627  0.00  0.00    -0.031 A 
ATOM     10  C   UNL     1      -0.340  14.185  -3.585  0.00  0.00    +0.005 A 
ATOM     11  C   UNL     1      -0.517  15.548  -3.433  0.00  0.00    +0.000 A 
ATOM     12  C   UNL     1      -1.791  16.070  -3.313  0.00  0.00    +0.000 A 
ATOM     13  C   UNL     1      -2.889  15.231  -3.349  0.00  0.00    +0.000 A 
ATOM     14  C   UNL     1      -2.712  13.869  -3.506  0.00  0.00    +0.005 A 
ENDBRANCH   2   9
BRANCH   2  15
ATOM     15  C   UNL     1      -1.949  11.403  -5.049  0.00  0.00    +0.318 C 
ATOM     16  O   UNL     1      -1.320  10.880  -5.938  0.00  0.00    -0.250 OA
BRANCH  15  17
ATOM     17  O   UNL     1      -3.274  11.577  -5.177  0.00  0.00    -0.464 OA
BRANCH  17  19
ATOM     18  C   UNL     1      -5.388  11.393  -6.372  0.00  0.00    +0.048 C 
ATOM     19  C   UNL     1      -3.884  11.111  -6.409  0.00  0.00    +0.229 C 
ENDBRANCH  17  19
ENDBRANCH  15  17
ENDBRANCH   2  15
ENDBRANCH   1   7
BRANCH   1  20
ATOM     20  C   UNL     1      -0.228   7.334  -1.490  0.00  0.00    +0.008 C 
BRANCH  20  21
ATOM     21  C   UNL     1       0.191   5.863  -1.450  0.00  0.00    +0.085 C 
ATOM     22  C   UNL     1       1.684   5.805  -1.498  0.00  0.00    +0.062 C 
ATOM     23  C   UNL     1       2.229   4.464  -1.126  0.00  0.00    -0.032 A 
ATOM     24  C   UNL     1       2.754   4.271   0.146  0.00  0.00    +0.005 A 
ATOM     25  C   UNL     1       3.197   3.016   0.519  0.00  0.00    +0.000 A 
ATOM     26  C   UNL     1       3.131   1.956  -0.367  0.00  0.00    +0.001 A 
ATOM     27  C   UNL     1       2.620   2.152  -1.637  0.00  0.00    +0.015 A 
ATOM     28  C   UNL     1       2.185   3.422  -2.004  0.00  0.00    +0.016 A 
ATOM     29  S   UNL     1       1.597   3.724  -3.632  0.00  0.00    -0.089 S 
ATOM     30  C   UNL     1      -0.074   4.236  -3.462  0.00  0.00    +0.017 A 
ATOM     31  C   UNL     1      -0.546   5.140  -2.543  0.00  0.00    -0.014 A 
ATOM     32  C   UNL     1      -1.908   5.476  -2.581  0.00  0.00    +0.006 A 
ATOM     33  C   UNL     1      -2.775   4.918  -3.488  0.00  0.00    +0.000 A 
ATOM     34  C   UNL     1      -2.302   3.990  -4.399  0.00  0.00    +0.001 A 
ATOM     35  C   UNL     1      -0.970   3.658  -4.380  0.00  0.00    +0.015 A 
BRANCH  21  36
ATOM     36  C   UNL     1      -0.245   5.304  -0.160  0.00  0.00    +0.074 C 
ATOM     37  N   UNL     1      -0.582   4.872   0.836  0.00  0.00    -0.196 NA
ENDBRANCH  21  36
ENDBRANCH  20  21
ENDBRANCH   1  20
TORSDOF 8
