REMARK  Name = ZINC03984920
REMARK  6 active torsions:
REMARK  status: ('A' for Active; 'I' for Inactive)
REMARK    1  A    between atoms: C_1  and  C_2
REMARK    2  A    between atoms: C_19  and  C_21
REMARK    3  A    between atoms: C_21  and  N_53
REMARK    4  A    between atoms: C_22  and  C_23
REMARK    5  A    between atoms: C_22  and  N_53
REMARK    6  A    between atoms: C_23  and  C_24
REMARK                            x       y       z     vdW  Elec       q    Type
REMARK                         _______ _______ _______ _____ _____    ______ ____
ROOT
ATOM      1  C   UNL     1       3.434   2.214  -1.323  0.00  0.00    +0.012 C 
ATOM      2  C   UNL     1       2.038   1.589  -1.375  0.00  0.00    -0.022 C 
ATOM      3  C   UNL     1       2.155   0.132  -1.817  0.00  0.00    +0.007 C 
ATOM      4  C   UNL     1       2.929   0.058  -3.136  0.00  0.00    +0.005 C 
ATOM      5  C   UNL     1       2.157   0.802  -4.229  0.00  0.00    +0.030 C 
ATOM      6  C   UNL     1       1.857   2.205  -3.749  0.00  0.00    -0.073 C 
ATOM      7  C   UNL     1       2.163   3.249  -4.479  0.00  0.00    +0.008 C 
ATOM      8  C   UNL     1       1.192   2.363  -2.395  0.00  0.00    +0.021 C 
ATOM      9  C   UNL     1      -0.189   1.707  -2.461  0.00  0.00    +0.016 C 
ATOM     10  C   UNL     1      -0.867   1.675  -1.133  0.00  0.00    +0.042 C 
ATOM     11  C   UNL     1      -0.013   1.086   0.008  0.00  0.00    +0.181 C 
ATOM     12  C   UNL     1       1.393   1.690  -0.002  0.00  0.00    +0.052 C 
ATOM     13  O   UNL     1      -0.686   1.645   1.201  0.00  0.00    -0.461 OA
ATOM     14  C   UNL     1      -0.994   2.934   0.910  0.00  0.00    +0.309 C 
ATOM     15  O   UNL     1      -1.092   3.824   1.722  0.00  0.00    -0.251 OA
ATOM     16  C   UNL     1      -1.176   3.082  -0.592  0.00  0.00    +0.087 C 
ENDROOT
BRANCH  16  17
ATOM     17  C   UNL     1      -2.615   3.483  -0.922  0.00  0.00    -0.068 C 
BRANCH  17  18
ATOM     18  N   UNL     1      -2.838   4.878  -0.497  0.00  0.00    +0.380 N 
ATOM     19  H   UNL     1      -2.182   5.492  -0.993  0.00  0.00    -0.086 HD
ATOM     20  H   UNL     1      -2.679   4.953   0.514  0.00  0.00    -0.086 HD
BRANCH  18  21
ATOM     21  C   UNL     1      -4.220   5.292  -0.804  0.00  0.00    -0.076 C 
BRANCH  21  22
ATOM     22  C   UNL     1      -4.421   6.740  -0.353  0.00  0.00    +0.038 C 
BRANCH  22  23
ATOM     23  C   UNL     1      -5.831   7.171  -0.663  0.00  0.00    +0.057 A 
ATOM     24  C   UNL     1      -6.717   7.675   0.217  0.00  0.00    +0.107 A 
ATOM     25  N   UNL     1      -7.867   7.932  -0.480  0.00  0.00    -0.351 N 
ATOM     26  H   UNL     1      -8.714   8.312  -0.108  0.00  0.00    +0.166 HD
ATOM     27  C   UNL     1      -7.643   7.576  -1.763  0.00  0.00    +0.196 A 
ATOM     28  N   UNL     1      -6.422   7.127  -1.867  0.00  0.00    -0.241 NA
ENDBRANCH  22  23
ENDBRANCH  21  22
ENDBRANCH  18  21
ENDBRANCH  17  18
ENDBRANCH  16  17
TORSDOF 5
