REMARK  Name = ZINC63908589
REMARK  6 active torsions:
REMARK  status: ('A' for Active; 'I' for Inactive)
REMARK    1  A    between atoms: C_1  and  N_2
REMARK    2  A    between atoms: C_7  and  C_10
REMARK    3  A    between atoms: N_12  and  C_13
REMARK    4  A    between atoms: C_13  and  C_14
REMARK    5  A    between atoms: C_14  and  C_16
REMARK    6  A    between atoms: C_14  and  C_22
REMARK                            x       y       z     vdW  Elec       q    Type
REMARK                         _______ _______ _______ _____ _____    ______ ____
ROOT
ATOM      1  C   UNL     1      -1.919  -5.860   3.813  0.00  0.00    +0.064 C 
ENDROOT
BRANCH   1   2
ATOM      2  C   UNL     1      -1.804  -6.580   5.132  0.00  0.00    -0.033 C 
ATOM      3  C   UNL     1      -2.807  -6.865   5.993  0.00  0.00    -0.000 A 
ATOM      4  C   UNL     1      -4.250  -6.599   5.962  0.00  0.00    +0.010 A 
ATOM      5  C   UNL     1      -5.016  -7.016   6.995  0.00  0.00    +0.001 A 
ATOM      6  C   UNL     1      -4.468  -7.693   8.093  0.00  0.00    +0.002 A 
ATOM      7  C   UNL     1      -3.152  -7.974   8.194  0.00  0.00    +0.026 A 
ATOM      8  C   UNL     1      -2.253  -7.583   7.163  0.00  0.00    +0.043 A 
ATOM      9  N   UNL     1      -0.957  -7.735   7.031  0.00  0.00    -0.380 N 
ATOM     10  C   UNL     1      -0.544  -7.136   5.757  0.00  0.00    +0.145 C 
ATOM     11  H   UNL     1      -0.371  -8.174   7.667  0.00  0.00    +0.160 HD
ENDBRANCH   1   2
BRANCH   1  12
ATOM     12  C   UNL     1      -1.449  -6.765   2.704  0.00  0.00    -0.039 A 
ATOM     13  C   UNL     1      -0.155  -7.253   2.711  0.00  0.00    +0.004 A 
ATOM     14  C   UNL     1       0.276  -8.083   1.694  0.00  0.00    +0.000 A 
ATOM     15  C   UNL     1      -0.586  -8.425   0.669  0.00  0.00    +0.000 A 
ATOM     16  C   UNL     1      -1.879  -7.938   0.662  0.00  0.00    +0.000 A 
ATOM     17  C   UNL     1      -2.312  -7.112   1.682  0.00  0.00    +0.004 A 
ENDBRANCH   1  12
BRANCH   1  18
ATOM     18  C   UNL     1      -1.054  -4.598   3.844  0.00  0.00    +0.116 C 
BRANCH  18  21
ATOM     19  C   UNL     1      -0.594  -2.680   2.414  0.00  0.00    +0.236 C 
ATOM     20  O   UNL     1       0.172  -2.270   3.260  0.00  0.00    -0.274 OA
ATOM     21  N   UNL     1      -1.258  -3.836   2.609  0.00  0.00    -0.313 N 
ATOM     22  H   UNL     1      -1.871  -4.164   1.933  0.00  0.00    +0.149 HD
BRANCH  19  29
ATOM     23  C   UNL     1      -0.018   1.461   0.010  0.00  0.00    +0.153 C 
ATOM     24  N   UNL     1       0.002  -0.004   0.002  0.00  0.00    -0.236 N 
ATOM     25  C   UNL     1       0.005  -0.663  -1.174  0.00  0.00    +0.252 C 
ATOM     26  O   UNL     1       0.032  -0.053  -2.226  0.00  0.00    -0.269 OA
ATOM     27  C   UNL     1      -0.022  -2.139  -1.163  0.00  0.00    +0.066 C 
ATOM     28  C   UNL     1      -0.414  -2.746  -0.039  0.00  0.00    +0.007 C 
ATOM     29  C   UNL     1      -0.804  -1.896   1.144  0.00  0.00    +0.181 C 
ATOM     30  N   UNL     1       0.022  -0.683   1.183  0.00  0.00    -0.222 NA
ATOM     31  H   UNL     1       0.969  -0.894   1.462  0.00  0.00    +0.146 HD
ENDBRANCH  19  29
ENDBRANCH  18  21
ENDBRANCH   1  18
TORSDOF 5
