REMARK  Name = ZINC64665963
REMARK  7 active torsions:
REMARK  status: ('A' for Active; 'I' for Inactive)
REMARK    1  A    between atoms: C_1  and  C_2
REMARK    2  A    between atoms: C_4  and  C_23
REMARK    3  A    between atoms: N_7  and  C_8
REMARK    4  A    between atoms: C_8  and  C_9
REMARK    5  A    between atoms: N_11  and  C_12
REMARK    6  A    between atoms: C_12  and  C_13
REMARK    7  A    between atoms: C_13  and  C_14
REMARK                            x       y       z     vdW  Elec       q    Type
REMARK                         _______ _______ _______ _____ _____    ______ ____
ROOT
ATOM      1  C   UNL     1       0.020  -0.281   2.521  0.00  0.00    +0.219 C 
ENDROOT
BRANCH   1   7
ATOM      2  C   UNL     1      -0.026   1.494   0.034  0.00  0.00    +0.062 C 
ATOM      3  C   UNL     1      -0.004  -0.013   0.017  0.00  0.00    +0.017 C 
ATOM      4  C   UNL     1       0.004  -0.739  -1.082  0.00  0.00    +0.022 C 
ATOM      5  C   UNL     1       0.028  -2.189  -0.648  0.00  0.00    +0.183 C 
ATOM      6  N   UNL     1       0.031  -2.127   0.827  0.00  0.00    -0.224 NA
ATOM      7  N   UNL     1       0.017  -0.800   1.151  0.00  0.00    -0.262 N 
ATOM      8  H   UNL     1       0.849  -2.579   1.207  0.00  0.00    +0.146 HD
BRANCH   5   9
ATOM      9  C   UNL     1       1.274  -2.870  -1.152  0.00  0.00    +0.238 C 
ATOM     10  O   UNL     1       2.254  -2.946  -0.441  0.00  0.00    -0.273 OA
ATOM     11  N   UNL     1       1.299  -3.397  -2.393  0.00  0.00    -0.296 N 
ATOM     12  C   UNL     1       0.168  -3.214  -3.316  0.00  0.00    +0.136 C 
ATOM     13  C   UNL     1       0.714  -2.701  -4.654  0.00  0.00    +0.179 C 
ATOM     14  O   UNL     1       1.763  -3.566  -5.097  0.00  0.00    -0.377 OA
ATOM     15  C   UNL     1       2.893  -3.610  -4.223  0.00  0.00    +0.179 C 
ATOM     16  C   UNL     1       2.461  -4.165  -2.866  0.00  0.00    +0.136 C 
ENDBRANCH   5   9
ENDBRANCH   1   7
BRANCH   1  17
ATOM     17  C   UNL     1      -1.400  -0.124   3.002  0.00  0.00    +0.232 C 
ATOM     18  O   UNL     1      -2.323  -0.417   2.272  0.00  0.00    -0.274 OA
ATOM     19  N   UNL     1      -1.643   0.343   4.242  0.00  0.00    -0.314 N 
ATOM     20  H   UNL     1      -0.904   0.577   4.826  0.00  0.00    +0.149 HD
BRANCH  19  21
ATOM     21  C   UNL     1      -3.023   0.495   4.710  0.00  0.00    +0.108 C 
BRANCH  21  22
ATOM     22  C   UNL     1      -3.020   1.038   6.141  0.00  0.00    +0.052 C 
BRANCH  22  23
ATOM     23  C   UNL     1      -4.439   1.195   6.622  0.00  0.00    -0.040 C 
ATOM     24  C   UNL     1      -5.154   0.307   7.350  0.00  0.00    -0.001 A 
ATOM     25  C   UNL     1      -4.836  -1.020   7.891  0.00  0.00    +0.010 A 
ATOM     26  C   UNL     1      -5.780  -1.684   8.597  0.00  0.00    +0.001 A 
ATOM     27  C   UNL     1      -7.051  -1.138   8.823  0.00  0.00    +0.002 A 
ATOM     28  C   UNL     1      -7.417   0.075   8.358  0.00  0.00    +0.026 A 
ATOM     29  C   UNL     1      -6.503   0.861   7.604  0.00  0.00    +0.043 A 
ATOM     30  N   UNL     1      -6.618   2.046   7.053  0.00  0.00    -0.380 N 
ATOM     31  C   UNL     1      -5.351   2.379   6.393  0.00  0.00    +0.144 C 
ATOM     32  H   UNL     1      -7.407   2.609   7.082  0.00  0.00    +0.160 HD
ENDBRANCH  22  23
ENDBRANCH  21  22
ENDBRANCH  19  21
ENDBRANCH   1  17
TORSDOF 6
