REMARK  Name = ZINC11819782
REMARK  7 active torsions:
REMARK  status: ('A' for Active; 'I' for Inactive)
REMARK    1  A    between atoms: C_1  and  C_2
REMARK    2  A    between atoms: C_2  and  C_3
REMARK    3  A    between atoms: C_3  and  C_5
REMARK    4  A    between atoms: C_3  and  N_16
REMARK    5  A    between atoms: C_11  and  C_15
REMARK    6  A    between atoms: C_17  and  C_19
REMARK    7  A    between atoms: N_21  and  C_24
REMARK                            x       y       z     vdW  Elec       q    Type
REMARK                         _______ _______ _______ _____ _____    ______ ____
ROOT
ATOM      1  N   UNL     1       5.248   3.857   0.093  0.00  0.00    -0.300 N 
ATOM      2  C   UNL     1       6.467   4.179  -0.384  0.00  0.00    +0.266 C 
ATOM      3  O   UNL     1       7.155   3.329  -0.916  0.00  0.00    -0.268 OA
ATOM      4  H   UNL     1       4.699   4.535   0.518  0.00  0.00    +0.150 HD
ENDROOT
BRANCH   2   5
ATOM      5  C   UNL     1       6.966   5.562  -0.260  0.00  0.00    +0.167 A 
ATOM      6  C   UNL     1       8.177   6.016  -0.699  0.00  0.00    +0.143 A 
ATOM      7  N   UNL     1       8.237   7.327  -0.393  0.00  0.00    -0.248 N 
ATOM      8  N   UNL     1       7.030   7.651   0.243  0.00  0.00    -0.065 NA
ATOM      9  N   UNL     1       6.304   6.589   0.299  0.00  0.00    -0.125 NA
BRANCH   7  10
ATOM     10  C   UNL     1       9.350   8.239  -0.670  0.00  0.00    +0.109 C 
ATOM     11  C   UNL     1      10.002   7.857  -2.001  0.00  0.00    +0.027 C 
ATOM     12  C   UNL     1      11.164   8.810  -2.290  0.00  0.00    +0.002 C 
ATOM     13  C   UNL     1      12.198   8.709  -1.168  0.00  0.00    +0.000 C 
ATOM     14  C   UNL     1      11.546   9.090   0.163  0.00  0.00    +0.002 C 
ATOM     15  C   UNL     1      10.384   8.138   0.453  0.00  0.00    +0.027 C 
ENDBRANCH   7  10
ENDBRANCH   2   5
BRANCH   1  16
ATOM     16  C   UNL     1       4.752   2.484  -0.030  0.00  0.00    +0.139 C 
BRANCH  16  17
ATOM     17  C   UNL     1       3.245   2.491  -0.016  0.00  0.00    +0.129 A 
ATOM     18  N   UNL     1       2.471   3.609  -0.002  0.00  0.00    -0.340 N 
ATOM     19  H   UNL     1       2.796   4.555  -0.000  0.00  0.00    +0.167 HD
ATOM     20  C   UNL     1       1.154   3.197   0.008  0.00  0.00    +0.066 A 
ATOM     21  C   UNL     1      -0.067   3.858   0.024  0.00  0.00    +0.028 A 
ATOM     22  C   UNL     1      -1.238   3.131   0.031  0.00  0.00    +0.005 A 
ATOM     23  C   UNL     1      -1.204   1.744   0.017  0.00  0.00    -0.048 A 
ATOM     24  C   UNL     1      -0.013   1.076   0.008  0.00  0.00    +0.033 A 
ATOM     25  C   UNL     1       1.187   1.792   0.000  0.00  0.00    +0.089 A 
ATOM     26  N   UNL     1       2.495   1.428  -0.014  0.00  0.00    -0.231 NA
ATOM     27  C   UNL     1      -2.495   0.967   0.019  0.00  0.00    +0.044 C 
ENDBRANCH  16  17
BRANCH  16  29
ATOM     28  C   UNL     1       6.793   1.538   1.056  0.00  0.00    +0.006 C 
ATOM     29  C   UNL     1       5.270   1.648   1.142  0.00  0.00    +0.027 C 
ENDBRANCH  16  29
ENDBRANCH   1  16
TORSDOF 5
