REMARK  Name = ZINC14655768
REMARK  12 active torsions:
REMARK  status: ('A' for Active; 'I' for Inactive)
REMARK    1  A    between atoms: C_1  and  C_2
REMARK    2  A    between atoms: C_2  and  O_3
REMARK    3  A    between atoms: O_3  and  C_4
REMARK    4  A    between atoms: C_9  and  C_10
REMARK    5  A    between atoms: N_12  and  C_13
REMARK    6  A    between atoms: C_13  and  N_15
REMARK    7  A    between atoms: N_15  and  N_16
REMARK    8  A    between atoms: C_17  and  C_19
REMARK    9  A    between atoms: C_22  and  C_25
REMARK   10  A    between atoms: C_25  and  C_26
REMARK   11  A    between atoms: C_25  and  C_27
REMARK   12  A    between atoms: C_25  and  C_28
REMARK                            x       y       z     vdW  Elec       q    Type
REMARK                         _______ _______ _______ _____ _____    ______ ____
ROOT
ATOM      1  C   UNL     1       3.540   5.996  -0.001  0.00  0.00    +0.153 C 
ATOM      2  S   UNL     1       5.041   5.171  -0.020  0.00  0.00    -0.017 S 
ENDROOT
BRANCH   1   5
ATOM      3  C   UNL     1       2.416   3.950  -0.000  0.00  0.00    +0.253 C 
ATOM      4  O   UNL     1       3.481   3.365  -0.014  0.00  0.00    -0.270 OA
ATOM      5  N   UNL     1       2.388   5.298   0.007  0.00  0.00    -0.263 N 
ATOM      6  H   UNL     1       1.538   5.765   0.018  0.00  0.00    +0.157 HD
BRANCH   3  12
ATOM      7  C   UNL     1       1.180   1.785   0.000  0.00  0.00    +0.133 A 
ATOM      8  C   UNL     1      -0.013   1.076   0.008  0.00  0.00    +0.047 A 
ATOM      9  C   UNL     1      -1.218   1.749   0.017  0.00  0.00    +0.019 A 
ATOM     10  C   UNL     1      -1.247   3.135   0.031  0.00  0.00    +0.019 A 
ATOM     11  C   UNL     1      -0.072   3.855   0.023  0.00  0.00    +0.032 A 
ATOM     12  C   UNL     1       1.155   3.186   0.008  0.00  0.00    +0.080 A 
ATOM     13 BR   UNL     1      -2.907   4.041   0.051  0.00  0.00    -0.050 Br
BRANCH   7  14
ATOM     14  O   UNL     1       2.365   1.124  -0.015  0.00  0.00    -0.491 OA
BRANCH  14  16
ATOM     15  C   UNL     1       3.734  -0.867  -0.040  0.00  0.00    +0.048 C 
ATOM     16  C   UNL     1       2.312  -0.304  -0.023  0.00  0.00    +0.226 C 
ENDBRANCH  14  16
ENDBRANCH   7  14
ENDBRANCH   3  12
ENDBRANCH   1   5
BRANCH   1  17
ATOM     17  N   UNL     1       3.512   7.343   0.007  0.00  0.00    -0.245 N 
ATOM     18  H   UNL     1       4.342   7.846   0.002  0.00  0.00    +0.172 HD
BRANCH  17  19
ATOM     19  N   UNL     1       2.284   8.018   0.023  0.00  0.00    -0.231 N 
ATOM     20  C   UNL     1       2.256   9.365   0.030  0.00  0.00    +0.260 C 
ATOM     21  O   UNL     1       3.296   9.995   0.023  0.00  0.00    -0.269 OA
ATOM     22  H   UNL     1       1.455   7.515   0.028  0.00  0.00    +0.173 HD
BRANCH  20  23
ATOM     23  C   UNL     1       0.961  10.078   0.047  0.00  0.00    +0.038 A 
ATOM     24  C   UNL     1      -0.235   9.357   0.049  0.00  0.00    +0.013 A 
ATOM     25  C   UNL     1      -1.441  10.028   0.069  0.00  0.00    +0.005 A 
ATOM     26  C   UNL     1      -1.466  11.411   0.077  0.00  0.00    -0.042 A 
ATOM     27  C   UNL     1      -0.284  12.131   0.070  0.00  0.00    +0.005 A 
ATOM     28  C   UNL     1       0.928  11.473   0.055  0.00  0.00    +0.013 A 
BRANCH  26  29
ATOM     29  C   UNL     1      -2.787  12.137   0.093  0.00  0.00    -0.013 C 
ATOM     30  C   UNL     1      -2.898  13.022  -1.150  0.00  0.00    +0.015 C 
ATOM     31  C   UNL     1      -3.928  11.119   0.098  0.00  0.00    +0.015 C 
ATOM     32  C   UNL     1      -2.874  13.008   1.349  0.00  0.00    +0.015 C 
ENDBRANCH  26  29
ENDBRANCH  20  23
ENDBRANCH  17  19
ENDBRANCH   1  17
TORSDOF 8
