REMARK  Name = ZINC21597385
REMARK  6 active torsions:
REMARK  status: ('A' for Active; 'I' for Inactive)
REMARK    1  A    between atoms: C_1  and  C_2
REMARK    2  A    between atoms: C_3  and  C_23
REMARK    3  A    between atoms: C_8  and  C_10
REMARK    4  A    between atoms: N_16  and  C_17
REMARK    5  A    between atoms: C_26  and  O_29
REMARK    6  A    between atoms: O_29  and  C_30
REMARK                            x       y       z     vdW  Elec       q    Type
REMARK                         _______ _______ _______ _____ _____    ______ ____
ROOT
ATOM      1  C   UNL     1       0.715  -0.122  -5.195  0.00  0.00    +0.054 C 
ATOM      2  C   UNL     1       0.717  -1.495  -4.573  0.00  0.00    +0.016 A 
ATOM      3  C   UNL     1      -0.204  -2.500  -4.673  0.00  0.00    +0.083 A 
ATOM      4  N   UNL     1       0.005  -3.640  -4.032  0.00  0.00    -0.224 NA
ATOM      5  C   UNL     1       1.087  -3.825  -3.298  0.00  0.00    +0.165 A 
ATOM      6  S   UNL     1       1.930  -2.263  -3.507  0.00  0.00    -0.057 S 
ATOM      7  N   UNL     1       1.470  -4.939  -2.564  0.00  0.00    -0.259 N 
ATOM      8  C   UNL     1       2.628  -4.925  -1.874  0.00  0.00    +0.268 C 
ATOM      9  O   UNL     1       3.337  -3.937  -1.895  0.00  0.00    -0.268 OA
ATOM     10  H   UNL     1       0.905  -5.727  -2.547  0.00  0.00    +0.157 HD
ENDROOT
BRANCH   8  11
ATOM     11  C   UNL     1       3.033  -6.101  -1.099  0.00  0.00    +0.127 A 
ATOM     12  C   UNL     1       2.310  -7.229  -0.915  0.00  0.00    +0.116 A 
ATOM     13  N   UNL     1       3.046  -8.078  -0.132  0.00  0.00    -0.339 N 
ATOM     14  H   UNL     1       2.770  -8.962   0.158  0.00  0.00    +0.167 HD
ATOM     15  C   UNL     1       4.216  -7.484   0.168  0.00  0.00    +0.163 A 
ATOM     16  S   UNL     1       5.464  -8.160   1.124  0.00  0.00    -0.013 S 
ATOM     17  N   UNL     1       4.242  -6.269  -0.416  0.00  0.00    -0.284 N 
BRANCH  17  18
ATOM     18  C   UNL     1       5.290  -5.343  -0.349  0.00  0.00    +0.049 A 
ATOM     19  C   UNL     1       5.322  -4.402   0.673  0.00  0.00    +0.026 A 
ATOM     20  C   UNL     1       6.357  -3.490   0.737  0.00  0.00    +0.002 A 
ATOM     21  C   UNL     1       7.359  -3.511  -0.215  0.00  0.00    +0.000 A 
ATOM     22  C   UNL     1       7.330  -4.446  -1.234  0.00  0.00    +0.002 A 
ATOM     23  C   UNL     1       6.301  -5.365  -1.300  0.00  0.00    +0.026 A 
ENDBRANCH  17  18
ENDBRANCH   8  11
BRANCH   3  24
ATOM     24  C   UNL     1      -1.428  -2.315  -5.491  0.00  0.00    +0.001 A 
ATOM     25  C   UNL     1      -2.665  -2.728  -5.001  0.00  0.00    +0.013 A 
ATOM     26  C   UNL     1      -3.801  -2.555  -5.764  0.00  0.00    +0.046 A 
ATOM     27  C   UNL     1      -3.712  -1.969  -7.019  0.00  0.00    +0.127 A 
ATOM     28  C   UNL     1      -2.482  -1.557  -7.511  0.00  0.00    +0.046 A 
ATOM     29  C   UNL     1      -1.343  -1.722  -6.750  0.00  0.00    +0.013 A 
BRANCH  27  30
ATOM     30  O   UNL     1      -4.833  -1.800  -7.769  0.00  0.00    -0.434 OA
BRANCH  30  31
ATOM     31  C   UNL     1      -4.670  -1.190  -9.051  0.00  0.00    +0.541 C 
ATOM     32  F   UNL     1      -4.127   0.089  -8.894  0.00  0.00    -0.166 F 
ATOM     33  F   UNL     1      -3.810  -1.970  -9.832  0.00  0.00    -0.166 F 
ENDBRANCH  30  31
ENDBRANCH  27  30
ENDBRANCH   3  24
TORSDOF 5
