REMARK  Name = ZINC09935726
REMARK  4 active torsions:
REMARK  status: ('A' for Active; 'I' for Inactive)
REMARK    1  A    between atoms: C_1  and  C_2
REMARK    2  A    between atoms: C_2  and  C_3
REMARK    3  A    between atoms: C_2  and  C_4
REMARK    4  A    between atoms: C_4  and  N_5
REMARK                            x       y       z     vdW  Elec       q    Type
REMARK                         _______ _______ _______ _____ _____    ______ ____
ROOT
ATOM      1  N   UNL     1       4.448  -0.934  -0.083  0.00  0.00    -0.271 N 
ATOM      2  C   UNL     1       4.261  -1.306  -1.402  0.00  0.00    +0.039 A 
ATOM      3  C   UNL     1       5.099  -2.040  -2.243  0.00  0.00    +0.024 A 
ATOM      4  C   UNL     1       4.656  -2.270  -3.536  0.00  0.00    +0.002 A 
ATOM      5  C   UNL     1       3.440  -1.797  -3.987  0.00  0.00    +0.000 A 
ATOM      6  C   UNL     1       2.596  -1.065  -3.160  0.00  0.00    +0.005 A 
ATOM      7  C   UNL     1       3.030  -0.832  -1.872  0.00  0.00    -0.023 A 
ATOM      8  C   UNL     1       2.402  -0.099  -0.730  0.00  0.00    +0.079 C 
ATOM      9  C   UNL     1       3.405  -0.223   0.395  0.00  0.00    +0.219 C 
ATOM     10  O   UNL     1       3.294   0.231   1.514  0.00  0.00    -0.276 OA
ATOM     11  C   UNL     1       1.095  -0.732  -0.332  0.00  0.00    +0.022 A 
ATOM     12  C   UNL     1       0.002  -0.004   0.002  0.00  0.00    -0.021 A 
ATOM     13  C   UNL     1      -1.052  -0.939   0.324  0.00  0.00    +0.004 A 
ATOM     14  C   UNL     1      -2.380  -0.772   0.732  0.00  0.00    +0.030 A 
ATOM     15  C   UNL     1      -3.110  -1.914   0.954  0.00  0.00    +0.042 A 
ATOM     16  C   UNL     1      -2.568  -3.179   0.786  0.00  0.00    +0.022 A 
ATOM     17  C   UNL     1      -1.258  -3.373   0.384  0.00  0.00    +0.027 A 
ATOM     18  C   UNL     1      -0.493  -2.232   0.151  0.00  0.00    +0.047 A 
ATOM     19  N   UNL     1       0.804  -2.066  -0.245  0.00  0.00    -0.358 N 
ATOM     20  H   UNL     1       1.426  -2.785  -0.436  0.00  0.00    +0.166 HD
ATOM     21 CL   UNL     1      -4.764  -1.768   1.462  0.00  0.00    -0.084 Cl
ATOM     22  C   UNL     1      -0.018   1.503   0.010  0.00  0.00    +0.018 C 
ATOM     23  C   UNL     1       1.432   2.003  -0.001  0.00  0.00    -0.075 C 
ATOM     24  N   UNL     1       2.187   1.319  -1.072  0.00  0.00    +0.395 N 
ATOM     25  H   UNL     1       1.657   1.378  -1.950  0.00  0.00    -0.083 HD
ATOM     26  H   UNL     1       3.098   1.779  -1.191  0.00  0.00    -0.083 HD
ENDROOT
BRANCH   1  27
ATOM     27  C   UNL     1       5.637  -1.273   0.703  0.00  0.00    +0.116 C 
BRANCH  27  29
ATOM     28  C   UNL     1       5.291  -3.724   0.368  0.00  0.00    +0.009 C 
ATOM     29  C   UNL     1       5.417  -2.612   1.410  0.00  0.00    +0.001 C 
ATOM     30  C   UNL     1       6.606  -2.905   2.328  0.00  0.00    +0.009 C 
ENDBRANCH  27  29
ENDBRANCH   1  27
TORSDOF 2
