REMARK  Name = ZINC14897322
REMARK  7 active torsions:
REMARK  status: ('A' for Active; 'I' for Inactive)
REMARK    1  A    between atoms: C_1  and  C_2
REMARK    2  A    between atoms: C_2  and  C_4
REMARK    3  A    between atoms: C_2  and  N_12
REMARK    4  A    between atoms: C_13  and  C_15
REMARK    5  A    between atoms: C_16  and  C_17
REMARK    6  A    between atoms: N_22  and  C_23
REMARK    7  A    between atoms: C_29  and  C_31
REMARK                            x       y       z     vdW  Elec       q    Type
REMARK                         _______ _______ _______ _____ _____    ______ ____
ROOT
ATOM      1  C   UNL     1       5.111   8.264  -1.119  0.00  0.00    +0.069 C 
ATOM      2  C   UNL     1       3.854   8.759  -1.203  0.00  0.00    +0.033 C 
ENDROOT
BRANCH   2   3
ATOM      3  C   UNL     1       2.717   7.848  -1.368  0.00  0.00    +0.073 A 
ATOM      4  C   UNL     1       1.434   8.339  -1.455  0.00  0.00    +0.076 A 
ATOM      5  S   UNL     1       0.509   6.821  -1.640  0.00  0.00    -0.059 S 
ATOM      6  C   UNL     1       1.898   5.698  -1.586  0.00  0.00    +0.172 A 
ATOM      7  N   UNL     1       2.909   6.529  -1.432  0.00  0.00    -0.225 NA
ATOM      8  N   UNL     1       1.909   4.311  -1.676  0.00  0.00    -0.219 N 
ATOM      9  C   UNL     1       3.063   3.635  -1.510  0.00  0.00    +0.223 C 
ATOM     10  O   UNL     1       4.072   4.226  -1.191  0.00  0.00    -0.275 OA
ATOM     11  C   UNL     1       3.099   2.143  -1.723  0.00  0.00    +0.110 C 
BRANCH   8  12
ATOM     12  C   UNL     1       0.722   3.617  -1.940  0.00  0.00    +0.043 A 
ATOM     13  C   UNL     1       0.562   2.943  -3.143  0.00  0.00    +0.024 A 
ATOM     14  C   UNL     1      -0.610   2.259  -3.399  0.00  0.00    +0.002 A 
ATOM     15  C   UNL     1      -1.627   2.250  -2.462  0.00  0.00    +0.000 A 
ATOM     16  C   UNL     1      -1.468   2.916  -1.260  0.00  0.00    +0.002 A 
ATOM     17  C   UNL     1      -0.299   3.602  -0.998  0.00  0.00    +0.024 A 
ENDBRANCH   8  12
ENDBRANCH   2   3
BRANCH   1  19
ATOM     18  N   UNL     1       7.461   8.651  -0.876  0.00  0.00    -0.305 N 
ATOM     19  C   UNL     1       6.209   9.144  -0.960  0.00  0.00    +0.237 C 
ATOM     20  O   UNL     1       6.023  10.346  -0.898  0.00  0.00    -0.271 OA
ATOM     21  H   UNL     1       7.610   7.694  -0.926  0.00  0.00    +0.150 HD
BRANCH  18  23
ATOM     22  C   UNL     1       8.731   9.948   0.763  0.00  0.00    +0.033 C 
ATOM     23  C   UNL     1       8.597   9.561  -0.711  0.00  0.00    +0.102 C 
BRANCH  23  24
ATOM     24  C   UNL     1       9.859   8.877  -1.168  0.00  0.00    -0.009 A 
ATOM     25  C   UNL     1       9.960   7.500  -1.107  0.00  0.00    +0.008 A 
ATOM     26  C   UNL     1      11.117   6.871  -1.525  0.00  0.00    +0.020 A 
ATOM     27  C   UNL     1      12.177   7.621  -2.006  0.00  0.00    +0.042 A 
ATOM     28  C   UNL     1      12.077   8.999  -2.068  0.00  0.00    +0.040 A 
ATOM     29  C   UNL     1      10.916   9.627  -1.654  0.00  0.00    +0.047 A 
ATOM     30 CL   UNL     1      10.786  11.356  -1.738  0.00  0.00    -0.083 Cl
ATOM     31 CL   UNL     1      13.631   6.831  -2.532  0.00  0.00    -0.083 Cl
ENDBRANCH  23  24
ENDBRANCH  18  23
ENDBRANCH   1  19
TORSDOF 5
