REMARK  Name = ZINC14548341
REMARK  6 active torsions:
REMARK  status: ('A' for Active; 'I' for Inactive)
REMARK    1  A    between atoms: C_1  and  C_2
REMARK    2  A    between atoms: C_2  and  N_3
REMARK    3  A    between atoms: N_3  and  C_4
REMARK    4  A    between atoms: C_10  and  C_12
REMARK    5  A    between atoms: C_25  and  C_28
REMARK    6  A    between atoms: C_37  and  O_38
REMARK                            x       y       z     vdW  Elec       q    Type
REMARK                         _______ _______ _______ _____ _____    ______ ____
ROOT
ATOM      1  C   UNL     1       1.692  -7.680  -0.155  0.00  0.00    +0.038 A 
ATOM      2  C   UNL     1       0.426  -8.073   0.290  0.00  0.00    +0.015 A 
ATOM      3  C   UNL     1      -0.537  -7.126   0.545  0.00  0.00    +0.024 A 
ATOM      4  C   UNL     1      -0.263  -5.771   0.366  0.00  0.00    +0.031 A 
ATOM      5  C   UNL     1       1.011  -5.378  -0.069  0.00  0.00    -0.019 A 
ATOM      6  C   UNL     1       1.973  -6.323  -0.332  0.00  0.00    +0.019 A 
ATOM      7  C   UNL     1       1.268  -3.928  -0.205  0.00  0.00    +0.049 C 
ATOM      8  C   UNL     1       2.272  -3.393  -1.160  0.00  0.00    -0.023 C 
ATOM      9  C   UNL     1       1.888  -2.202  -1.571  0.00  0.00    -0.030 C 
ATOM     10  C   UNL     1       0.527  -1.858  -0.962  0.00  0.00    +0.033 C 
ATOM     11  C   UNL     1      -0.051  -3.253  -0.689  0.00  0.00    +0.029 C 
ATOM     12  C   UNL     1      -1.022  -3.387   0.470  0.00  0.00    +0.109 C 
ATOM     13  N   UNL     1      -1.267  -4.838   0.620  0.00  0.00    -0.336 N 
ATOM     14  H   UNL     1      -2.143  -5.145   0.901  0.00  0.00    +0.147 HD
ENDROOT
BRANCH  12  15
ATOM     15  C   UNL     1      -0.410  -2.829   1.729  0.00  0.00    +0.022 A 
ATOM     16  C   UNL     1      -0.093  -3.683   2.798  0.00  0.00    -0.009 A 
ATOM     17  C   UNL     1      -0.335  -5.066   2.724  0.00  0.00    +0.009 A 
ATOM     18  C   UNL     1      -0.016  -5.863   3.779  0.00  0.00    +0.001 A 
ATOM     19  C   UNL     1       0.549  -5.330   4.936  0.00  0.00    +0.001 A 
ATOM     20  C   UNL     1       0.798  -3.997   5.044  0.00  0.00    +0.008 A 
ATOM     21  C   UNL     1       0.482  -3.141   3.975  0.00  0.00    -0.017 A 
ATOM     22  C   UNL     1       0.725  -1.758   4.052  0.00  0.00    +0.012 A 
ATOM     23  C   UNL     1       0.407  -0.958   2.999  0.00  0.00    +0.046 A 
ATOM     24  C   UNL     1      -0.161  -1.491   1.837  0.00  0.00    +0.122 A 
BRANCH  24  25
ATOM     25  O   UNL     1      -0.468  -0.666   0.802  0.00  0.00    -0.506 OA
ATOM     26  H   UNL     1      -1.333  -0.241   0.882  0.00  0.00    +0.292 HD
ENDBRANCH  24  25
ENDBRANCH  12  15
BRANCH   1  28
ATOM     27  N   UNL     1       2.518  -9.981  -0.097  0.00  0.00    -0.268 N 
ATOM     28  C   UNL     1       2.726  -8.694  -0.437  0.00  0.00    +0.251 C 
ATOM     29  O   UNL     1       3.767  -8.368  -0.975  0.00  0.00    -0.270 OA
BRANCH  27  30
ATOM     30  C   UNL     1       3.490 -10.945  -0.380  0.00  0.00    +0.037 A 
ATOM     31  C   UNL     1       3.929 -11.806   0.618  0.00  0.00    +0.023 A 
ATOM     32  C   UNL     1       4.886 -12.760   0.334  0.00  0.00    +0.002 A 
ATOM     33  C   UNL     1       5.415 -12.853  -0.940  0.00  0.00    +0.000 A 
ATOM     34  C   UNL     1       4.985 -11.994  -1.935  0.00  0.00    +0.002 A 
ATOM     35  C   UNL     1       4.024 -11.041  -1.659  0.00  0.00    +0.023 A 
ENDBRANCH  27  30
BRANCH  27  37
ATOM     36  C   UNL     1       0.146 -10.450  -0.464  0.00  0.00    +0.025 C 
ATOM     37  C   UNL     1       1.272 -10.371   0.568  0.00  0.00    +0.110 C 
ENDBRANCH  27  37
ENDBRANCH   1  28
TORSDOF 5
