REMARK  Name = ZINC36659986
REMARK  7 active torsions:
REMARK  status: ('A' for Active; 'I' for Inactive)
REMARK    1  A    between atoms: C_1  and  C_2
REMARK    2  A    between atoms: C_5  and  N_8
REMARK    3  A    between atoms: C_9  and  C_11
REMARK    4  A    between atoms: C_11  and  C_13
REMARK    5  A    between atoms: C_11  and  S_19
REMARK    6  A    between atoms: S_19  and  C_20
REMARK    7  A    between atoms: C_34  and  C_37
REMARK                            x       y       z     vdW  Elec       q    Type
REMARK                         _______ _______ _______ _____ _____    ______ ____
ROOT
ATOM      1  S   UNL     1       0.954  -6.924   2.719  0.00  0.00    -0.072 S 
ENDROOT
BRANCH   1   2
ATOM      2  C   UNL     1       1.220  -8.648   2.474  0.00  0.00    +0.170 C 
ATOM      3  N   UNL     1       0.871  -9.176   1.321  0.00  0.00    -0.225 NA
ATOM      4  C   UNL     1       1.045 -10.485   1.067  0.00  0.00    +0.079 A 
ATOM      5  C   UNL     1       0.677 -11.055  -0.157  0.00  0.00    +0.028 A 
ATOM      6  C   UNL     1       0.876 -12.390  -0.366  0.00  0.00    +0.002 A 
ATOM      7  C   UNL     1       1.438 -13.193   0.619  0.00  0.00    +0.001 A 
ATOM      8  C   UNL     1       1.808 -12.665   1.825  0.00  0.00    +0.015 A 
ATOM      9  C   UNL     1       1.618 -11.305   2.066  0.00  0.00    +0.063 A 
ATOM     10  C   UNL     1       1.994 -10.678   3.340  0.00  0.00    +0.260 C 
ATOM     11  O   UNL     1       2.493 -11.329   4.244  0.00  0.00    -0.269 OA
ATOM     12  N   UNL     1       1.773  -9.354   3.471  0.00  0.00    -0.200 N 
ATOM     13  C   UNL     1       2.110  -8.728   4.630  0.00  0.00    +0.111 A 
ATOM     14  C   UNL     1       1.339  -7.664   5.098  0.00  0.00    +0.043 A 
ATOM     15  C   UNL     1       1.697  -7.041   6.277  0.00  0.00    +0.008 A 
ATOM     16  C   UNL     1       2.822  -7.492   6.970  0.00  0.00    -0.034 A 
ATOM     17  C   UNL     1       3.548  -8.531   6.482  0.00  0.00    +0.087 A 
ATOM     18  N   UNL     1       3.196  -9.142   5.335  0.00  0.00    -0.349 N 
ATOM     19  C   UNL     1       3.231  -6.826   8.259  0.00  0.00    +0.045 C 
ATOM     20  H   UNL     1       3.725  -9.885   5.006  0.00  0.00    +0.167 HD
ENDBRANCH   1   2
BRANCH   1  21
ATOM     21  C   UNL     1       0.206  -6.370   1.162  0.00  0.00    +0.170 C 
BRANCH  21  22
ATOM     22  C   UNL     1      -1.140  -7.024   0.991  0.00  0.00    -0.025 A 
ATOM     23  C   UNL     1      -2.135  -6.814   1.927  0.00  0.00    +0.005 A 
ATOM     24  C   UNL     1      -3.370  -7.414   1.770  0.00  0.00    +0.000 A 
ATOM     25  C   UNL     1      -3.611  -8.225   0.676  0.00  0.00    +0.000 A 
ATOM     26  C   UNL     1      -2.616  -8.434  -0.261  0.00  0.00    +0.000 A 
ATOM     27  C   UNL     1      -1.383  -7.830  -0.106  0.00  0.00    +0.005 A 
ENDBRANCH  21  22
BRANCH  21  29
ATOM     28  N   UNL     1      -0.111  -4.189   0.039  0.00  0.00    -0.284 N 
ATOM     29  C   UNL     1       0.037  -4.873   1.191  0.00  0.00    +0.235 C 
ATOM     30  O   UNL     1       0.034  -4.283   2.251  0.00  0.00    -0.274 OA
ATOM     31  H   UNL     1      -0.191  -4.666  -0.802  0.00  0.00    +0.155 HD
BRANCH  28  36
ATOM     32  C   UNL     1      -0.271   1.482   0.105  0.00  0.00    +0.044 C 
ATOM     33  C   UNL     1      -0.228  -0.025   0.088  0.00  0.00    -0.050 A 
ATOM     34  C   UNL     1       0.426  -0.708   1.096  0.00  0.00    +0.005 A 
ATOM     35  C   UNL     1       0.467  -2.089   1.082  0.00  0.00    +0.023 A 
ATOM     36  C   UNL     1      -0.151  -2.790   0.056  0.00  0.00    +0.033 A 
ATOM     37  C   UNL     1      -0.808  -2.101  -0.955  0.00  0.00    +0.023 A 
ATOM     38  C   UNL     1      -0.849  -0.720  -0.933  0.00  0.00    +0.005 A 
ENDBRANCH  28  36
ENDBRANCH  21  29
ENDBRANCH   1  21
TORSDOF 5
