REMARK  Name = ZINC38905712
REMARK  9 active torsions:
REMARK  status: ('A' for Active; 'I' for Inactive)
REMARK    1  A    between atoms: C_6  and  C_7
REMARK    2  A    between atoms: C_9  and  C_12
REMARK    3  A    between atoms: C_12  and  N_13
REMARK    4  A    between atoms: C_17  and  C_20
REMARK    5  A    between atoms: N_22  and  C_23
REMARK    6  A    between atoms: C_23  and  C_24
REMARK    7  A    between atoms: C_24  and  C_25
REMARK    8  A    between atoms: C_25  and  O_26
REMARK    9  A    between atoms: O_26  and  C_27
REMARK                            x       y       z     vdW  Elec       q    Type
REMARK                         _______ _______ _______ _____ _____    ______ ____
ROOT
ATOM      1  N   UNL     1      -3.330  -4.321   1.406  0.00  0.00    +0.386 N 
ATOM      2  C   UNL     1      -4.358  -3.511   2.073  0.00  0.00    -0.078 C 
ATOM      3  C   UNL     1      -4.473  -3.933   3.539  0.00  0.00    -0.018 C 
ATOM      4  C   UNL     1      -4.860  -5.413   3.610  0.00  0.00    +0.009 C 
ATOM      5  C   UNL     1      -3.821  -6.240   2.848  0.00  0.00    +0.058 C 
ATOM      6  C   UNL     1      -3.730  -5.733   1.407  0.00  0.00    -0.065 C 
ATOM      7  H   UNL     1      -2.455  -4.220   1.897  0.00  0.00    -0.081 HD
ENDROOT
BRANCH   5   8
ATOM      8  C   UNL     1      -4.234  -7.689   2.847  0.00  0.00    +0.214 C 
ATOM      9  O   UNL     1      -4.432  -8.263   1.797  0.00  0.00    -0.276 OA
ATOM     10  N   UNL     1      -4.382  -8.348   4.013  0.00  0.00    -0.315 N 
ATOM     11  H   UNL     1      -4.223  -7.890   4.853  0.00  0.00    +0.149 HD
BRANCH  10  12
ATOM     12  C   UNL     1      -4.783  -9.758   4.013  0.00  0.00    +0.106 C 
BRANCH  12  13
ATOM     13  C   UNL     1      -4.878 -10.262   5.454  0.00  0.00    +0.047 C 
BRANCH  13  14
ATOM     14  C   UNL     1      -5.297 -11.733   5.453  0.00  0.00    +0.161 C 
BRANCH  14  15
ATOM     15  O   UNL     1      -5.386 -12.204   6.799  0.00  0.00    -0.377 OA
BRANCH  15  16
ATOM     16  C   UNL     1      -5.772 -13.575   6.911  0.00  0.00    +0.118 C 
ATOM     17  C   UNL     1      -7.297 -13.670   6.998  0.00  0.00    +0.031 C 
ATOM     18  C   UNL     1      -7.711 -15.138   7.118  0.00  0.00    +0.003 C 
ATOM     19  C   UNL     1      -7.090 -15.742   8.379  0.00  0.00    +0.000 C 
ATOM     20  C   UNL     1      -5.565 -15.647   8.293  0.00  0.00    +0.003 C 
ATOM     21  C   UNL     1      -5.151 -14.179   8.173  0.00  0.00    +0.031 C 
ENDBRANCH  15  16
ENDBRANCH  14  15
ENDBRANCH  13  14
ENDBRANCH  12  13
ENDBRANCH  10  12
ENDBRANCH   5   8
BRANCH   1  22
ATOM     22  C   UNL     1      -3.169  -3.860   0.021  0.00  0.00    +0.022 C 
BRANCH  22  25
ATOM     23  C   UNL     1      -1.272  -0.766   0.011  0.00  0.00    +0.202 A 
ATOM     24  N   UNL     1      -1.384  -2.106   0.010  0.00  0.00    -0.193 NA
ATOM     25  C   UNL     1      -2.641  -2.449   0.019  0.00  0.00    +0.211 A 
ATOM     26  O   UNL     1      -3.384  -1.335   0.026  0.00  0.00    -0.340 OA
ATOM     27  N   UNL     1      -2.474  -0.245   0.026  0.00  0.00    -0.056 NA
BRANCH  23  33
ATOM     28  C   UNL     1      -0.017   1.389   0.010  0.00  0.00    +0.013 A 
ATOM     29  C   UNL     1       1.170   2.093   0.002  0.00  0.00    +0.016 A 
ATOM     30  C   UNL     1       2.378   1.417  -0.013  0.00  0.00    +0.018 A 
ATOM     31  C   UNL     1       2.402   0.033  -0.021  0.00  0.00    +0.016 A 
ATOM     32  C   UNL     1       1.221  -0.680  -0.014  0.00  0.00    +0.013 A 
ATOM     33  C   UNL     1       0.002  -0.004   0.002  0.00  0.00    +0.023 A 
ATOM     34 BR   UNL     1       4.001   2.388  -0.024  0.00  0.00    -0.050 Br
ENDBRANCH  23  33
ENDBRANCH  22  25
ENDBRANCH   1  22
TORSDOF 9
