REMARK  Name = ZINC01432937
REMARK  2 active torsions:
REMARK  status: ('A' for Active; 'I' for Inactive)
REMARK    1  A    between atoms: C_1  and  C_2
REMARK    2  A    between atoms: C_17  and  C_19
REMARK                            x       y       z     vdW  Elec       q    Type
REMARK                         _______ _______ _______ _____ _____    ______ ____
ROOT
ATOM      1  C   UNL     1      -1.329   2.146   0.020  0.00  0.00    +0.047 C 
ATOM      2  C   UNL     1      -0.017   1.404   0.010  0.00  0.00    -0.007 A 
ATOM      3  C   UNL     1       1.160   2.090   0.002  0.00  0.00    +0.008 A 
ATOM      4  C   UNL     1       2.372   1.384  -0.013  0.00  0.00    +0.018 A 
ATOM      5  C   UNL     1       2.371   0.032  -0.021  0.00  0.00    +0.094 A 
ATOM      6  N   UNL     1       1.200  -0.664  -0.015  0.00  0.00    -0.288 N 
ATOM      7  C   UNL     1       0.002  -0.004   0.002  0.00  0.00    +0.146 A 
ATOM      8  N   UNL     1      -1.147  -0.674   0.012  0.00  0.00    -0.191 NA
ATOM      9  C   UNL     1      -1.164  -2.010   0.005  0.00  0.00    +0.279 A 
ATOM     10  O   UNL     1      -2.230  -2.611   0.015  0.00  0.00    -0.265 OA
ATOM     11  C   UNL     1       0.054  -2.725  -0.014  0.00  0.00    +0.066 A 
ATOM     12  C   UNL     1       1.226  -2.039  -0.025  0.00  0.00    +0.120 A 
ATOM     13  N   UNL     1       2.431  -2.712  -0.046  0.00  0.00    -0.271 N 
ATOM     14  C   UNL     1       2.491  -4.002  -0.424  0.00  0.00    +0.219 C 
ATOM     15  O   UNL     1       3.558  -4.579  -0.428  0.00  0.00    -0.275 OA
ATOM     16  C   UNL     1       1.244  -4.735  -0.841  0.00  0.00    +0.109 C 
ATOM     17  C   UNL     1       0.054  -4.230  -0.022  0.00  0.00    +0.073 C 
ATOM     18  H   UNL     1       3.244  -2.250   0.214  0.00  0.00    +0.156 HD
ENDROOT
BRANCH  17  19
ATOM     19  C   UNL     1       0.165  -4.739   1.392  0.00  0.00    -0.002 A 
ATOM     20  C   UNL     1      -0.698  -5.519   2.088  0.00  0.00    +0.012 A 
ATOM     21  C   UNL     1      -0.385  -5.871   3.388  0.00  0.00    +0.008 A 
ATOM     22  C   UNL     1       0.770  -5.416   3.931  0.00  0.00    +0.045 A 
ATOM     23  S   UNL     1       1.462  -4.466   2.587  0.00  0.00    -0.101 S 
ENDBRANCH  17  19
TORSDOF 1
