REMARK  Name = ZINC19169198
REMARK  3 active torsions:
REMARK  status: ('A' for Active; 'I' for Inactive)
REMARK    1  A    between atoms: C_4  and  C_7
REMARK    2  A    between atoms: C_7  and  N_8
REMARK    3  A    between atoms: C_13  and  C_16
REMARK                            x       y       z     vdW  Elec       q    Type
REMARK                         _______ _______ _______ _____ _____    ______ ____
ROOT
ATOM      1  N   UNL     1       4.153  -0.953   1.342  0.00  0.00    -0.225 NA
ATOM      2  C   UNL     1       5.426  -1.671   1.364  0.00  0.00    +0.175 C 
ATOM      3  C   UNL     1       5.381  -2.117   2.875  0.00  0.00    +0.130 C 
ATOM      4  C   UNL     1       4.037  -2.696   3.006  0.00  0.00    +0.149 C 
ATOM      5  N   UNL     1       3.219  -1.867   2.045  0.00  0.00    -0.242 NA
ATOM      6  C   UNL     1       6.760  -2.445   3.139  0.00  0.00    +0.246 C 
ATOM      7  O   UNL     1       7.221  -3.348   4.017  0.00  0.00    -0.273 OA
ATOM      8  N   UNL     1       7.483  -1.667   2.333  0.00  0.00    -0.144 NA
ATOM      9  C   UNL     1       6.739  -0.953   1.430  0.00  0.00    +0.258 C 
ATOM     10  O   UNL     1       7.063   0.045   0.820  0.00  0.00    -0.272 OA
ATOM     11  H   UNL     1       2.733  -2.462   1.390  0.00  0.00    +0.142 HD
ENDROOT
BRANCH   4  12
ATOM     12  C   UNL     1       4.045  -4.152   2.618  0.00  0.00    +0.124 A 
ATOM     13  C   UNL     1       4.074  -5.193   3.469  0.00  0.00    +0.046 A 
ATOM     14  C   UNL     1       4.071  -6.367   2.681  0.00  0.00    +0.041 A 
ATOM     15  C   UNL     1       4.041  -5.973   1.395  0.00  0.00    +0.195 A 
ATOM     16  O   UNL     1       4.019  -4.631   1.363  0.00  0.00    -0.466 OA
ENDBRANCH   4  12
BRANCH   1  17
ATOM     17  C   UNL     1       3.711  -0.707  -0.038  0.00  0.00    +0.138 C 
BRANCH  17  21
ATOM     18  C   UNL     1      -0.017   1.378   0.010  0.00  0.00    +0.000 A 
ATOM     19  C   UNL     1       1.171   2.086   0.002  0.00  0.00    +0.000 A 
ATOM     20  C   UNL     1       2.377   1.411  -0.013  0.00  0.00    +0.005 A 
ATOM     21  C   UNL     1       2.396   0.029  -0.020  0.00  0.00    -0.032 A 
ATOM     22  C   UNL     1       1.208  -0.679  -0.012  0.00  0.00    +0.005 A 
ATOM     23  C   UNL     1       0.002  -0.004   0.002  0.00  0.00    +0.000 A 
ENDBRANCH  17  21
ENDBRANCH   1  17
TORSDOF 3
