REMARK  Name = ZINC34799983
REMARK  8 active torsions:
REMARK  status: ('A' for Active; 'I' for Inactive)
REMARK    1  A    between atoms: C_3  and  C_8
REMARK    2  A    between atoms: C_8  and  O_9
REMARK    3  A    between atoms: O_9  and  C_10
REMARK    4  A    between atoms: C_13  and  N_17
REMARK    5  A    between atoms: C_19  and  C_24
REMARK    6  A    between atoms: C_25  and  C_26
REMARK    7  A    between atoms: C_30  and  C_32
REMARK    8  A    between atoms: C_32  and  N_33
REMARK                            x       y       z     vdW  Elec       q    Type
REMARK                         _______ _______ _______ _____ _____    ______ ____
ROOT
ATOM      1  N   UNL     1       8.806   5.232   2.017  0.00  0.00    -0.298 N 
ATOM      2  C   UNL     1       9.222   5.582   3.288  0.00  0.00    +0.142 A 
ATOM      3  C   UNL     1      10.362   6.392   3.474  0.00  0.00    +0.083 A 
ATOM      4  C   UNL     1      10.734   6.712   4.783  0.00  0.00    +0.132 A 
ATOM      5  N   UNL     1      10.008   6.247   5.787  0.00  0.00    -0.242 NA
ATOM      6  C   UNL     1       8.949   5.492   5.572  0.00  0.00    +0.223 A 
ATOM      7  N   UNL     1       8.553   5.165   4.358  0.00  0.00    -0.219 NA
ATOM      8  H   UNL     1       9.342   5.475   1.247  0.00  0.00    +0.154 HD
ENDROOT
BRANCH   1  12
ATOM      9  C   UNL     1       5.241   3.133   1.495  0.00  0.00    +0.139 A 
ATOM     10  C   UNL     1       5.362   4.047   2.531  0.00  0.00    +0.049 A 
ATOM     11  C   UNL     1       6.543   4.742   2.705  0.00  0.00    +0.027 A 
ATOM     12  C   UNL     1       7.609   4.527   1.841  0.00  0.00    +0.034 A 
ATOM     13  C   UNL     1       7.488   3.612   0.804  0.00  0.00    +0.047 A 
ATOM     14  C   UNL     1       6.308   2.912   0.635  0.00  0.00    +0.084 A 
ATOM     15 CL   UNL     1       6.158   1.764  -0.658  0.00  0.00    -0.080 Cl
BRANCH   9  16
ATOM     16  O   UNL     1       4.078   2.449   1.324  0.00  0.00    -0.486 OA
BRANCH  16  17
ATOM     17  C   UNL     1       3.021   2.725   2.246  0.00  0.00    +0.264 C 
BRANCH  17  20
ATOM     18  C   UNL     1       0.575  -0.149   2.156  0.00  0.00    +0.003 A 
ATOM     19  C   UNL     1       1.675   0.627   2.469  0.00  0.00    +0.007 A 
ATOM     20  C   UNL     1       1.822   1.880   1.903  0.00  0.00    -0.008 A 
ATOM     21  C   UNL     1       0.868   2.358   1.024  0.00  0.00    +0.045 A 
ATOM     22  C   UNL     1      -0.234   1.581   0.710  0.00  0.00    +0.124 A 
ATOM     23  C   UNL     1      -0.379   0.326   1.277  0.00  0.00    +0.038 A 
ATOM     24  F   UNL     1      -1.167   2.047  -0.149  0.00  0.00    -0.205 F 
ENDBRANCH  17  20
ENDBRANCH  16  17
ENDBRANCH   9  16
ENDBRANCH   1  12
BRANCH   3  25
ATOM     25  C   UNL     1      11.116   6.872   2.355  0.00  0.00    -0.055 C 
ATOM     26  C   UNL     1      11.735   7.265   1.438  0.00  0.00    -0.041 C 
BRANCH  26  27
ATOM     27  C   UNL     1      12.489   7.745   0.319  0.00  0.00    +0.114 A 
ATOM     28  C   UNL     1      12.091   7.414  -0.979  0.00  0.00    +0.037 A 
ATOM     29  C   UNL     1      12.830   7.885  -2.048  0.00  0.00    +0.004 A 
ATOM     30  C   UNL     1      13.944   8.673  -1.789  0.00  0.00    +0.021 A 
ATOM     31  C   UNL     1      14.282   8.963  -0.480  0.00  0.00    +0.025 A 
ATOM     32  N   UNL     1      13.559   8.507   0.523  0.00  0.00    -0.245 NA
BRANCH  31  33
ATOM     33  C   UNL     1      15.490   9.818  -0.197  0.00  0.00    -0.030 C 
BRANCH  33  34
ATOM     34  N   UNL     1      15.073  11.217  -0.033  0.00  0.00    +0.382 N 
ATOM     35  H   UNL     1      14.626  11.536  -0.879  0.00  0.00    -0.090 HD
ATOM     36  H   UNL     1      14.424  11.287   0.737  0.00  0.00    -0.090 HD
ATOM     37  H   UNL     1      15.882  11.789   0.157  0.00  0.00    -0.090 HD
ENDBRANCH  33  34
ENDBRANCH  31  33
ENDBRANCH  26  27
ENDBRANCH   3  25
TORSDOF 8
