REMARK  Name = ZINC61794777
REMARK  4 active torsions:
REMARK  status: ('A' for Active; 'I' for Inactive)
REMARK    1  A    between atoms: C_1  and  C_2
REMARK    2  A    between atoms: C_4  and  C_7
REMARK    3  A    between atoms: N_15  and  C_16
REMARK    4  A    between atoms: C_19  and  C_22
REMARK                            x       y       z     vdW  Elec       q    Type
REMARK                         _______ _______ _______ _____ _____    ______ ____
ROOT
ATOM      1  C   UNL     1       0.038  -3.205  -1.700  0.00  0.00    +0.095 C 
ATOM      2  C   UNL     1       1.298  -4.040  -1.464  0.00  0.00    +0.016 C 
ATOM      3  C   UNL     1       1.327  -5.212  -2.447  0.00  0.00    +0.020 C 
ATOM      4  C   UNL     1       0.104  -6.104  -2.209  0.00  0.00    +0.109 C 
ATOM      5  N   UNL     1      -1.107  -5.277  -2.291  0.00  0.00    -0.285 N 
ATOM      6  C   UNL     1      -1.199  -4.073  -1.453  0.00  0.00    +0.122 C 
ATOM      7  C   UNL     1      -2.115  -5.615  -3.120  0.00  0.00    +0.302 C 
ATOM      8  O   UNL     1      -3.149  -4.976  -3.113  0.00  0.00    -0.253 OA
ATOM      9  N   UNL     1      -1.976  -6.663  -3.957  0.00  0.00    -0.296 N 
ATOM     10  H   UNL     1      -1.182  -7.218  -3.912  0.00  0.00    +0.151 HD
ENDROOT
BRANCH   9  11
ATOM     11  C   UNL     1      -3.025  -6.963  -4.934  0.00  0.00    +0.074 C 
ATOM     12  C   UNL     1      -4.106  -7.821  -4.275  0.00  0.00    +0.022 C 
ATOM     13  C   UNL     1      -3.486  -9.127  -3.774  0.00  0.00    +0.005 C 
ATOM     14  C   UNL     1      -2.880  -9.889  -4.955  0.00  0.00    -0.014 C 
ATOM     15  C   UNL     1      -1.798  -9.031  -5.615  0.00  0.00    +0.005 C 
ATOM     16  C   UNL     1      -2.419  -7.725  -6.115  0.00  0.00    +0.022 C 
ATOM     17  C   UNL     1      -2.260 -11.195  -4.455  0.00  0.00    +0.007 C 
ENDBRANCH   9  11
BRANCH   1  21
ATOM     18  C   UNL     1      -0.018   1.505   0.004  0.00  0.00    +0.091 C 
ATOM     19  C   UNL     1       0.003  -0.002  -0.003  0.00  0.00    +0.169 A 
ATOM     20  N   UNL     1       0.007  -0.774  -1.095  0.00  0.00    -0.196 NA
ATOM     21  C   UNL     1       0.027  -2.032  -0.753  0.00  0.00    +0.232 A 
ATOM     22  O   UNL     1       0.035  -2.104   0.584  0.00  0.00    -0.338 OA
ATOM     23  N   UNL     1       0.024  -0.763   1.053  0.00  0.00    -0.062 NA
ENDBRANCH   1  21
TORSDOF 2
