REMARK  Name = ZINC65626253
REMARK  4 active torsions:
REMARK  status: ('A' for Active; 'I' for Inactive)
REMARK    1  A    between atoms: C_1  and  C_2
REMARK    2  A    between atoms: C_9  and  C_13
REMARK    3  A    between atoms: C_10  and  C_12
REMARK    4  A    between atoms: C_23  and  C_25
REMARK                            x       y       z     vdW  Elec       q    Type
REMARK                         _______ _______ _______ _____ _____    ______ ____
ROOT
ATOM      1  C   UNL     1      -0.247  -5.279   3.323  0.00  0.00    +0.253 C 
ATOM      2  O   UNL     1      -0.281  -6.475   3.107  0.00  0.00    -0.270 OA
ATOM      3  N   UNL     1      -0.332  -4.819   4.587  0.00  0.00    -0.255 N 
ATOM      4  C   UNL     1      -0.373  -5.622   5.730  0.00  0.00    +0.041 A 
ATOM      5  C   UNL     1      -0.336  -7.014   5.836  0.00  0.00    +0.024 A 
ATOM      6  C   UNL     1      -0.388  -7.619   7.073  0.00  0.00    +0.002 A 
ATOM      7  C   UNL     1      -0.476  -6.851   8.220  0.00  0.00    +0.000 A 
ATOM      8  C   UNL     1      -0.512  -5.473   8.124  0.00  0.00    +0.005 A 
ATOM      9  C   UNL     1      -0.461  -4.862   6.885  0.00  0.00    -0.024 A 
ATOM     10  C   UNL     1      -0.484  -3.400   6.499  0.00  0.00    +0.069 C 
ATOM     11  C   UNL     1      -0.391  -3.405   4.964  0.00  0.00    +0.171 C 
ENDROOT
BRANCH   1  20
ATOM     12  C   UNL     1      -2.305   0.795  -0.400  0.00  0.00    +0.044 C 
ATOM     13  C   UNL     1      -1.422  -0.412  -0.221  0.00  0.00    -0.050 A 
ATOM     14  C   UNL     1      -0.415  -0.672  -1.149  0.00  0.00    +0.005 A 
ATOM     15  C   UNL     1       0.400  -1.754  -1.018  0.00  0.00    +0.028 A 
ATOM     16  C   UNL     1       0.231  -2.628   0.069  0.00  0.00    +0.071 A 
ATOM     17  C   UNL     1      -0.793  -2.363   1.012  0.00  0.00    +0.001 A 
ATOM     18  C   UNL     1      -1.613  -1.233   0.848  0.00  0.00    +0.013 A 
ATOM     19  C   UNL     1      -0.965  -3.235   2.100  0.00  0.00    +0.025 A 
ATOM     20  C   UNL     1      -0.112  -4.329   2.199  0.00  0.00    +0.059 A 
ATOM     21  C   UNL     1       0.880  -4.524   1.222  0.00  0.00    +0.051 A 
ATOM     22  N   UNL     1       1.022  -3.698   0.218  0.00  0.00    -0.251 NA
ATOM     23  C   UNL     1       1.801  -5.711   1.335  0.00  0.00    +0.066 C 
ENDBRANCH   1  20
BRANCH  11  24
ATOM     24  C   UNL     1       0.857  -2.691   4.512  0.00  0.00    +0.232 C 
ATOM     25  O   UNL     1       1.725  -3.301   3.924  0.00  0.00    -0.274 OA
ATOM     26  N   UNL     1       1.008  -1.375   4.759  0.00  0.00    -0.328 N 
ATOM     27  H   UNL     1       0.314  -0.887   5.229  0.00  0.00    +0.145 HD
ATOM     28  H   UNL     1       1.811  -0.915   4.468  0.00  0.00    +0.145 HD
ENDBRANCH  11  24
TORSDOF 2
