REMARK  Name = ZINC37588144
REMARK  6 active torsions:
REMARK  status: ('A' for Active; 'I' for Inactive)
REMARK    1  A    between atoms: C_3  and  C_9
REMARK    2  A    between atoms: C_9  and  N_10
REMARK    3  A    between atoms: C_13  and  N_16
REMARK    4  A    between atoms: N_16  and  C_17
REMARK    5  A    between atoms: N_16  and  S_24
REMARK    6  A    between atoms: S_24  and  C_27
REMARK                            x       y       z     vdW  Elec       q    Type
REMARK                         _______ _______ _______ _____ _____    ______ ____
ROOT
ATOM      1  N   UNL     1       6.800   1.976   4.666  0.00  0.00    -0.200 N 
ENDROOT
BRANCH   1   5
ATOM      2  N   UNL     1       4.021   1.460   1.539  0.00  0.00    +0.383 N 
ATOM      3  C   UNL     1       4.694   0.251   2.030  0.00  0.00    -0.077 C 
ATOM      4  C   UNL     1       5.281   0.518   3.418  0.00  0.00    +0.006 C 
ATOM      5  C   UNL     1       6.291   1.666   3.328  0.00  0.00    +0.095 C 
ATOM      6  C   UNL     1       5.595   2.899   2.745  0.00  0.00    +0.006 C 
ATOM      7  C   UNL     1       4.997   2.545   1.382  0.00  0.00    -0.077 C 
ATOM      8  H   UNL     1       3.312   1.740   2.201  0.00  0.00    -0.081 HD
BRANCH   2   9
ATOM      9  C   UNL     1       3.393   1.176   0.242  0.00  0.00    -0.040 C 
BRANCH   9  12
ATOM     10  C   UNL     1       1.453  -2.063   0.202  0.00  0.00    +0.003 A 
ATOM     11  C   UNL     1       2.467  -1.139   0.030  0.00  0.00    +0.005 A 
ATOM     12  C   UNL     1       2.286   0.171   0.429  0.00  0.00    -0.026 A 
ATOM     13  C   UNL     1       1.087   0.561   1.000  0.00  0.00    +0.160 A 
ATOM     14  C   UNL     1       0.069  -0.364   1.172  0.00  0.00    +0.159 A 
ATOM     15  C   UNL     1       0.254  -1.677   0.772  0.00  0.00    +0.041 A 
ATOM     16  F   UNL     1      -1.102   0.013   1.730  0.00  0.00    -0.202 F 
ATOM     17  F   UNL     1       0.909   1.842   1.391  0.00  0.00    -0.202 F 
ENDBRANCH   9  12
ENDBRANCH   2   9
ENDBRANCH   1   5
BRANCH   1  18
ATOM     18  C   UNL     1       5.909   2.273   5.701  0.00  0.00    +0.052 A 
ATOM     19  C   UNL     1       5.218   3.478   5.701  0.00  0.00    +0.027 A 
ATOM     20  C   UNL     1       4.337   3.768   6.725  0.00  0.00    +0.040 A 
ATOM     21  C   UNL     1       4.143   2.859   7.751  0.00  0.00    +0.124 A 
ATOM     22  C   UNL     1       4.831   1.657   7.754  0.00  0.00    +0.040 A 
ATOM     23  C   UNL     1       5.708   1.360   6.729  0.00  0.00    +0.027 A 
ATOM     24  F   UNL     1       3.282   3.145   8.752  0.00  0.00    -0.205 F 
ENDBRANCH   1  18
BRANCH   1  25
ATOM     25  S   UNL     1       8.431   1.977   4.952  0.00  0.00    +0.075 S 
ATOM     26  O   UNL     1       8.603   1.644   6.322  0.00  0.00    -0.150 OA
ATOM     27  O   UNL     1       9.027   1.224   3.904  0.00  0.00    -0.150 OA
BRANCH  25  28
ATOM     28  C   UNL     1       8.992   3.636   4.762  0.00  0.00    +0.109 A 
ATOM     29  C   UNL     1       9.411   4.087   3.524  0.00  0.00    +0.030 A 
ATOM     30  C   UNL     1       9.852   5.389   3.375  0.00  0.00    +0.022 A 
ATOM     31  C   UNL     1       9.874   6.240   4.465  0.00  0.00    +0.041 A 
ATOM     32  C   UNL     1       9.455   5.789   5.704  0.00  0.00    +0.022 A 
ATOM     33  C   UNL     1       9.009   4.489   5.851  0.00  0.00    +0.030 A 
ATOM     34 CL   UNL     1      10.428   7.875   4.279  0.00  0.00    -0.084 Cl
ENDBRANCH  25  28
ENDBRANCH   1  25
TORSDOF 6
