REMARK  Name = ZINC26160598
REMARK  5 active torsions:
REMARK  status: ('A' for Active; 'I' for Inactive)
REMARK    1  A    between atoms: C_1  and  C_2
REMARK    2  A    between atoms: C_2  and  C_4
REMARK    3  A    between atoms: C_2  and  N_18
REMARK    4  A    between atoms: N_6  and  C_12
REMARK    5  A    between atoms: C_21  and  C_24
REMARK                            x       y       z     vdW  Elec       q    Type
REMARK                         _______ _______ _______ _____ _____    ______ ____
ROOT
ATOM      1  C   UNL     1      -3.496   2.263  -2.459  0.00  0.00    -0.004 C 
ATOM      2  C   UNL     1      -2.503   3.399  -2.204  0.00  0.00    +0.017 C 
ENDROOT
BRANCH   2   3
ATOM      3  C   UNL     1      -1.541   2.990  -1.118  0.00  0.00    +0.208 C 
ATOM      4  O   UNL     1      -1.740   3.332   0.028  0.00  0.00    -0.277 OA
ATOM      5  N   UNL     1      -0.460   2.246  -1.421  0.00  0.00    -0.249 N 
ATOM      6  C   UNL     1      -0.287   1.765  -2.714  0.00  0.00    +0.167 A 
ATOM      7  N   UNL     1      -1.015   1.998  -3.789  0.00  0.00    -0.233 NA
ATOM      8  C   UNL     1      -0.709   1.457  -4.952  0.00  0.00    +0.120 A 
ATOM      9  C   UNL     1       0.377   0.649  -5.023  0.00  0.00    +0.068 A 
ATOM     10  S   UNL     1       0.947   0.710  -3.330  0.00  0.00    -0.060 S 
BRANCH   5  11
ATOM     11  C   UNL     1       0.534   1.942  -0.389  0.00  0.00    +0.083 C 
ATOM     12  C   UNL     1       1.895   2.499  -0.811  0.00  0.00    +0.023 C 
ATOM     13  C   UNL     1       2.933   2.182   0.268  0.00  0.00    +0.002 C 
ATOM     14  C   UNL     1       3.035   0.666   0.447  0.00  0.00    +0.000 C 
ATOM     15  C   UNL     1       1.674   0.110   0.870  0.00  0.00    +0.002 C 
ATOM     16  C   UNL     1       0.637   0.426  -0.209  0.00  0.00    +0.023 C 
ENDBRANCH   5  11
ENDBRANCH   2   3
BRANCH   2  17
ATOM     17  N   UNL     1      -3.233   4.602  -1.784  0.00  0.00    +0.387 N 
ATOM     18  C   UNL     1      -4.182   4.293  -0.707  0.00  0.00    -0.077 C 
ATOM     19  C   UNL     1      -4.817   5.589  -0.196  0.00  0.00    -0.006 C 
ATOM     20  C   UNL     1      -5.538   6.288  -1.352  0.00  0.00    +0.071 C 
ATOM     21  C   UNL     1      -4.538   6.555  -2.480  0.00  0.00    -0.006 C 
ATOM     22  C   UNL     1      -3.911   5.231  -2.924  0.00  0.00    -0.077 C 
ATOM     23  H   UNL     1      -2.502   5.323  -1.389  0.00  0.00    -0.081 HD
BRANCH  20  24
ATOM     24  C   UNL     1      -6.115   7.594  -0.871  0.00  0.00    +0.213 C 
ATOM     25  O   UNL     1      -5.762   8.637  -1.379  0.00  0.00    -0.276 OA
ATOM     26  N   UNL     1      -7.024   7.603   0.125  0.00  0.00    -0.329 N 
ATOM     27  H   UNL     1      -7.445   8.556   0.476  0.00  0.00    +0.145 HD
ATOM     28  H   UNL     1      -7.344   6.657   0.586  0.00  0.00    +0.145 HD
ENDBRANCH  20  24
ENDBRANCH   2  17
TORSDOF 4
