REMARK  Name = ZINC19296806
REMARK  9 active torsions:
REMARK  status: ('A' for Active; 'I' for Inactive)
REMARK    1  A    between atoms: C_1  and  C_2
REMARK    2  A    between atoms: C_2  and  C_3
REMARK    3  A    between atoms: C_3  and  C_28
REMARK    4  A    between atoms: N_6  and  C_10
REMARK    5  A    between atoms: C_10  and  C_11
REMARK    6  A    between atoms: N_13  and  C_14
REMARK    7  A    between atoms: C_14  and  C_16
REMARK    8  A    between atoms: C_14  and  C_23
REMARK    9  A    between atoms: C_19  and  C_22
REMARK                            x       y       z     vdW  Elec       q    Type
REMARK                         _______ _______ _______ _____ _____    ______ ____
ROOT
ATOM      1  C   UNL     1      -1.199  -0.844   0.010  0.00  0.00    +0.213 C 
ENDROOT
BRANCH   1   5
ATOM      2  C   UNL     1       1.437   1.773  -0.002  0.00  0.00    +0.138 C 
ATOM      3  C   UNL     1      -0.016   1.343   0.009  0.00  0.00    +0.251 C 
ATOM      4  O   UNL     1      -0.992   2.062   0.018  0.00  0.00    -0.272 OA
ATOM      5  N   UNL     1       0.002  -0.004   0.002  0.00  0.00    -0.215 N 
ATOM      6  C   UNL     1       1.252  -0.481  -0.013  0.00  0.00    +0.310 C 
ATOM      7  O   UNL     1       1.524  -1.665  -0.021  0.00  0.00    -0.252 OA
ATOM      8  N   UNL     1       2.175   0.498  -0.016  0.00  0.00    -0.281 N 
ATOM      9  H   UNL     1       3.275   0.499  -0.026  0.00  0.00    +0.152 HD
BRANCH   2  10
ATOM     10  C   UNL     1       1.743   2.576  -1.240  0.00  0.00    -0.015 A 
ATOM     11  C   UNL     1       1.599   3.951  -1.225  0.00  0.00    +0.007 A 
ATOM     12  C   UNL     1       1.885   4.688  -2.359  0.00  0.00    +0.020 A 
ATOM     13  C   UNL     1       2.304   4.049  -3.512  0.00  0.00    +0.041 A 
ATOM     14  C   UNL     1       2.443   2.673  -3.528  0.00  0.00    +0.020 A 
ATOM     15  C   UNL     1       2.162   1.937  -2.392  0.00  0.00    +0.007 A 
ATOM     16 CL   UNL     1       2.656   4.974  -4.938  0.00  0.00    -0.084 Cl
ENDBRANCH   2  10
BRANCH   2  18
ATOM     17  C   UNL     1       1.623   1.677   2.488  0.00  0.00    +0.007 C 
ATOM     18  C   UNL     1       1.772   2.575   1.257  0.00  0.00    +0.037 C 
ENDBRANCH   2  18
ENDBRANCH   1   5
BRANCH   1  19
ATOM     19  C   UNL     1      -1.625  -1.124  -1.408  0.00  0.00    +0.232 C 
ATOM     20  O   UNL     1      -0.988  -0.667  -2.334  0.00  0.00    -0.274 OA
ATOM     21  N   UNL     1      -2.713  -1.882  -1.648  0.00  0.00    -0.303 N 
ATOM     22  H   UNL     1      -3.291  -2.296  -0.808  0.00  0.00    +0.150 HD
BRANCH  21  23
ATOM     23  C   UNL     1      -3.127  -2.154  -3.026  0.00  0.00    +0.140 C 
BRANCH  23  24
ATOM     24  C   UNL     1      -4.604  -2.453  -3.057  0.00  0.00    -0.022 A 
ATOM     25  C   UNL     1      -5.174  -3.226  -2.063  0.00  0.00    +0.006 A 
ATOM     26  C   UNL     1      -6.529  -3.497  -2.089  0.00  0.00    +0.004 A 
ATOM     27  C   UNL     1      -7.313  -3.002  -3.114  0.00  0.00    -0.050 A 
ATOM     28  C   UNL     1      -6.743  -2.233  -4.111  0.00  0.00    +0.004 A 
ATOM     29  C   UNL     1      -5.388  -1.959  -4.083  0.00  0.00    +0.006 A 
ATOM     30  C   UNL     1      -8.790  -3.301  -3.144  0.00  0.00    +0.044 C 
ENDBRANCH  23  24
BRANCH  23  31
ATOM     31  C   UNL     1      -2.363  -3.340  -3.555  0.00  0.00    +0.014 A 
ATOM     32  C   UNL     1      -1.832  -3.533  -4.787  0.00  0.00    +0.013 A 
ATOM     33  C   UNL     1      -1.164  -4.714  -5.052  0.00  0.00    +0.008 A 
ATOM     34  C   UNL     1      -1.059  -5.644  -4.072  0.00  0.00    +0.045 A 
ATOM     35  S   UNL     1      -1.916  -4.853  -2.720  0.00  0.00    -0.099 S 
ENDBRANCH  23  31
ENDBRANCH  21  23
ENDBRANCH   1  19
TORSDOF 7
