REMARK  Name = ZINC01872120
REMARK  12 active torsions:
REMARK  status: ('A' for Active; 'I' for Inactive)
REMARK    1  A    between atoms: C_1  and  C_2
REMARK    2  A    between atoms: C_2  and  O_4
REMARK    3  A    between atoms: O_4  and  C_5
REMARK    4  A    between atoms: C_8  and  C_13
REMARK    5  A    between atoms: C_10  and  O_11
REMARK    6  A    between atoms: O_11  and  C_12
REMARK    7  A    between atoms: N_14  and  N_15
REMARK    8  A    between atoms: C_16  and  C_18
REMARK    9  A    between atoms: C_18  and  S_19
REMARK   10  A    between atoms: S_19  and  C_20
REMARK   11  A    between atoms: C_23  and  C_31
REMARK   12  A    between atoms: N_24  and  C_25
REMARK                            x       y       z     vdW  Elec       q    Type
REMARK                         _______ _______ _______ _____ _____    ______ ____
ROOT
ATOM      1  C   UNL     1      -0.008 -10.202   2.172  0.00  0.00    +0.174 C 
ENDROOT
BRANCH   1   3
ATOM      2  N   UNL     1       0.022  -8.161   0.775  0.00  0.00    -0.206 N 
ATOM      3  C   UNL     1      -0.021  -8.704   2.008  0.00  0.00    +0.242 C 
ATOM      4  O   UNL     1      -0.072  -7.987   2.985  0.00  0.00    -0.273 OA
ATOM      5  H   UNL     1       0.062  -8.734  -0.006  0.00  0.00    +0.177 HD
BRANCH   2   7
ATOM      6  C   UNL     1       0.051  -6.245  -0.564  0.00  0.00    +0.138 C 
ATOM      7  N   UNL     1       0.009  -6.768   0.623  0.00  0.00    -0.188 NA
BRANCH   6  11
ATOM      8  C   UNL     1       0.012  -2.021  -1.020  0.00  0.00    +0.173 A 
ATOM      9  C   UNL     1      -0.033  -2.582   0.248  0.00  0.00    +0.051 A 
ATOM     10  C   UNL     1      -0.021  -3.952   0.400  0.00  0.00    +0.013 A 
ATOM     11  C   UNL     1       0.037  -4.779  -0.724  0.00  0.00    -0.002 A 
ATOM     12  C   UNL     1       0.083  -4.214  -2.001  0.00  0.00    +0.059 A 
ATOM     13  C   UNL     1       0.065  -2.839  -2.146  0.00  0.00    +0.163 A 
BRANCH  13  14
ATOM     14  O   UNL     1       0.103  -2.286  -3.388  0.00  0.00    -0.491 OA
ATOM     15  C   UNL     1       0.156  -3.185  -4.497  0.00  0.00    +0.277 C 
ENDBRANCH  13  14
BRANCH   8  16
ATOM     16  O   UNL     1       0.000  -0.669  -1.164  0.00  0.00    -0.422 OA
BRANCH  16  18
ATOM     17  C   UNL     1      -1.264   1.436  -1.419  0.00  0.00    +0.136 C 
ATOM     18  C   UNL     1      -1.183  -0.068  -1.367  0.00  0.00    +0.309 C 
ATOM     19  O   UNL     1      -2.182  -0.732  -1.509  0.00  0.00    -0.251 OA
ENDBRANCH  16  18
ENDBRANCH   8  16
ENDBRANCH   6  11
ENDBRANCH   2   7
ENDBRANCH   1   3
BRANCH   1  20
ATOM     20  S   UNL     1      -0.075 -10.618   3.936  0.00  0.00    -0.076 S 
BRANCH  20  21
ATOM     21  C   UNL     1      -0.051 -12.379   3.960  0.00  0.00    +0.197 A 
ATOM     22  N   UNL     1       0.009 -13.173   2.914  0.00  0.00    -0.122 NA
ATOM     23  N   UNL     1       0.009 -14.402   3.290  0.00  0.00    -0.128 NA
ATOM     24  C   UNL     1      -0.052 -14.471   4.600  0.00  0.00    +0.169 A 
ATOM     25  N   UNL     1      -0.086 -13.177   5.072  0.00  0.00    -0.270 N 
BRANCH  24  26
ATOM     26  C   UNL     1      -0.073 -15.704   5.415  0.00  0.00    +0.020 A 
ATOM     27  C   UNL     1      -0.455 -15.651   6.756  0.00  0.00    +0.012 A 
ATOM     28  C   UNL     1      -0.473 -16.805   7.511  0.00  0.00    +0.016 A 
ATOM     29  C   UNL     1      -0.113 -18.015   6.941  0.00  0.00    +0.018 A 
ATOM     30  C   UNL     1       0.268 -18.073   5.611  0.00  0.00    +0.016 A 
ATOM     31  C   UNL     1       0.284 -16.927   4.844  0.00  0.00    +0.012 A 
ATOM     32 BR   UNL     1      -0.140 -19.592   7.984  0.00  0.00    -0.050 Br
ENDBRANCH  24  26
BRANCH  25  33
ATOM     33  C   UNL     1      -0.148 -12.764   6.410  0.00  0.00    +0.051 A 
ATOM     34  C   UNL     1       0.913 -13.023   7.267  0.00  0.00    +0.026 A 
ATOM     35  C   UNL     1       0.850 -12.615   8.585  0.00  0.00    +0.002 A 
ATOM     36  C   UNL     1      -0.269 -11.949   9.051  0.00  0.00    +0.000 A 
ATOM     37  C   UNL     1      -1.327 -11.689   8.200  0.00  0.00    +0.002 A 
ATOM     38  C   UNL     1      -1.267 -12.089   6.879  0.00  0.00    +0.026 A 
ENDBRANCH  25  33
ENDBRANCH  20  21
ENDBRANCH   1  20
TORSDOF 10
