REMARK  Name = ZINC39197475
REMARK  14 active torsions:
REMARK  status: ('A' for Active; 'I' for Inactive)
REMARK    1  A    between atoms: C_1  and  C_2
REMARK    2  A    between atoms: C_2  and  C_3
REMARK    3  A    between atoms: C_8  and  N_9
REMARK    4  A    between atoms: C_10  and  C_30
REMARK    5  A    between atoms: C_12  and  C_14
REMARK    6  A    between atoms: N_16  and  C_17
REMARK    7  A    between atoms: C_17  and  C_19
REMARK    8  A    between atoms: C_17  and  C_20
REMARK    9  A    between atoms: N_22  and  C_23
REMARK   10  A    between atoms: C_23  and  C_25
REMARK   11  A    between atoms: C_23  and  C_26
REMARK   12  A    between atoms: C_26  and  C_27
REMARK   13  A    between atoms: C_27  and  C_28
REMARK   14  A    between atoms: C_27  and  C_29
REMARK                            x       y       z     vdW  Elec       q    Type
REMARK                         _______ _______ _______ _____ _____    ______ ____
ROOT
ATOM      1  N   UNL     1       3.001  -0.381  -0.153  0.00  0.00    -0.231 N 
ATOM      2  C   UNL     1       4.327  -0.076  -0.272  0.00  0.00    +0.075 A 
ATOM      3  C   UNL     1       4.691   0.558   0.884  0.00  0.00    +0.063 A 
ATOM      4  C   UNL     1       3.520   0.605   1.672  0.00  0.00    +0.148 A 
ATOM      5  N   UNL     1       2.556   0.029   0.980  0.00  0.00    -0.161 NA
ENDROOT
BRANCH   2   6
ATOM      6  C   UNL     1       5.202  -0.375  -1.427  0.00  0.00    +0.001 A 
ATOM      7  C   UNL     1       4.650  -0.581  -2.692  0.00  0.00    +0.010 A 
ATOM      8  C   UNL     1       5.475  -0.860  -3.757  0.00  0.00    +0.004 A 
ATOM      9  C   UNL     1       6.854  -0.937  -3.588  0.00  0.00    -0.044 A 
ATOM     10  C   UNL     1       7.405  -0.730  -2.342  0.00  0.00    -0.044 A 
ATOM     11  C   UNL     1       6.582  -0.446  -1.262  0.00  0.00    +0.014 A 
ATOM     12  C   UNL     1       8.890  -0.783  -2.094  0.00  0.00    +0.035 C 
ATOM     13  C   UNL     1       9.601  -1.505  -3.236  0.00  0.00    +0.005 C 
ATOM     14  C   UNL     1       9.150  -0.876  -4.560  0.00  0.00    +0.005 C 
ATOM     15  C   UNL     1       7.690  -1.254  -4.801  0.00  0.00    +0.035 C 
ENDBRANCH   2   6
BRANCH   1  21
ATOM     16  C   UNL     1       1.100  -0.434  -1.645  0.00  0.00    -0.022 A 
ATOM     17  C   UNL     1       0.353  -1.083  -2.608  0.00  0.00    +0.006 A 
ATOM     18  C   UNL     1       0.732  -2.336  -3.052  0.00  0.00    +0.000 A 
ATOM     19  C   UNL     1       1.861  -2.944  -2.533  0.00  0.00    +0.002 A 
ATOM     20  C   UNL     1       2.613  -2.300  -1.570  0.00  0.00    +0.028 A 
ATOM     21  C   UNL     1       2.237  -1.039  -1.126  0.00  0.00    +0.069 A 
BRANCH  16  23
ATOM     22  C   UNL     1       1.518   2.000  -1.875  0.00  0.00    +0.009 C 
ATOM     23  C   UNL     1       0.686   0.932  -1.161  0.00  0.00    +0.034 C 
ENDBRANCH  16  23
ENDBRANCH   1  21
BRANCH   4  24
ATOM     24  C   UNL     1       3.396   1.196   3.020  0.00  0.00    +0.265 C 
ATOM     25  O   UNL     1       4.364   1.705   3.551  0.00  0.00    -0.268 OA
ATOM     26  N   UNL     1       2.211   1.171   3.660  0.00  0.00    -0.299 N 
ATOM     27  H   UNL     1       1.439   0.765   3.236  0.00  0.00    +0.150 HD
BRANCH  26  28
ATOM     28  C   UNL     1       2.088   1.757   4.997  0.00  0.00    +0.156 C 
ATOM     29  C   UNL     1       2.511   0.727   6.046  0.00  0.00    +0.038 C 
BRANCH  28  30
ATOM     30  C   UNL     1       0.657   2.162   5.239  0.00  0.00    +0.233 C 
ATOM     31  O   UNL     1      -0.178   1.979   4.379  0.00  0.00    -0.274 OA
ATOM     32  N   UNL     1       0.305   2.727   6.411  0.00  0.00    -0.311 N 
ATOM     33  H   UNL     1       0.973   2.874   7.098  0.00  0.00    +0.149 HD
BRANCH  32  34
ATOM     34  C   UNL     1      -1.086   3.121   6.645  0.00  0.00    +0.070 C 
ATOM     35  C   UNL     1      -1.878   1.916   7.157  0.00  0.00    +0.028 C 
BRANCH  34  36
ATOM     36  C   UNL     1      -1.131   4.240   7.688  0.00  0.00    +0.025 C 
BRANCH  36  37
ATOM     37  C   UNL     1      -0.446   5.488   7.125  0.00  0.00    -0.015 C 
ATOM     38  C   UNL     1      -1.246   6.014   5.932  0.00  0.00    +0.007 C 
ATOM     39  C   UNL     1      -0.380   6.566   8.209  0.00  0.00    +0.007 C 
ENDBRANCH  36  37
ENDBRANCH  34  36
ENDBRANCH  32  34
ENDBRANCH  28  30
ENDBRANCH  26  28
ENDBRANCH   4  24
TORSDOF 9
