REMARK  Name = ZINC36704299
REMARK  11 active torsions:
REMARK  status: ('A' for Active; 'I' for Inactive)
REMARK    1  A    between atoms: C_1  and  C_2
REMARK    2  A    between atoms: C_7  and  C_8
REMARK    3  A    between atoms: N_12  and  C_13
REMARK    4  A    between atoms: C_13  and  C_14
REMARK    5  A    between atoms: C_14  and  C_15
REMARK    6  A    between atoms: C_15  and  N_16
REMARK    7  A    between atoms: N_16  and  C_17
REMARK    8  A    between atoms: N_16  and  C_18
REMARK    9  A    between atoms: C_19  and  C_21
REMARK   10  A    between atoms: N_24  and  S_27
REMARK   11  A    between atoms: S_27  and  C_30
REMARK                            x       y       z     vdW  Elec       q    Type
REMARK                         _______ _______ _______ _____ _____    ______ ____
ROOT
ATOM      1  C   UNL     1      -0.501   1.550   0.108  0.00  0.00    +0.044 C 
ATOM      2  C   UNL     1      -0.119   0.092   0.104  0.00  0.00    -0.045 A 
ATOM      3  C   UNL     1       0.323  -0.490  -1.075  0.00  0.00    +0.005 A 
ATOM      4  C   UNL     1       0.673  -1.827  -1.081  0.00  0.00    +0.017 A 
ATOM      5  C   UNL     1       0.579  -2.557   0.078  0.00  0.00    +0.041 A 
ATOM      6  C   UNL     1       0.133  -1.999   1.297  0.00  0.00    +0.083 A 
ATOM      7  C   UNL     1      -0.212  -0.627   1.267  0.00  0.00    -0.021 A 
ATOM      8  C   UNL     1      -0.691   0.049   2.525  0.00  0.00    +0.046 C 
ATOM      9  N   UNL     1       0.095  -2.845   2.349  0.00  0.00    -0.224 NA
ATOM     10  C   UNL     1       0.448  -4.106   2.253  0.00  0.00    +0.168 A 
ATOM     11  S   UNL     1       0.907  -4.243   0.532  0.00  0.00    -0.052 S 
ATOM     12  N   UNL     1       0.461  -5.082   3.237  0.00  0.00    -0.250 N 
ATOM     13  C   UNL     1       0.073  -4.779   4.492  0.00  0.00    +0.224 C 
ATOM     14  O   UNL     1      -0.367  -3.677   4.741  0.00  0.00    -0.275 OA
ENDROOT
BRANCH  13  15
ATOM     15  C   UNL     1       0.187  -5.810   5.585  0.00  0.00    +0.078 C 
ATOM     16  C   UNL     1      -0.901  -6.870   5.402  0.00  0.00    +0.030 C 
ATOM     17  C   UNL     1      -0.761  -7.934   6.494  0.00  0.00    +0.110 C 
ATOM     18  N   UNL     1      -0.779  -7.271   7.805  0.00  0.00    -0.176 NA
ATOM     19  C   UNL     1       0.168  -6.176   8.056  0.00  0.00    +0.110 C 
ATOM     20  C   UNL     1       0.017  -5.131   6.946  0.00  0.00    +0.030 C 
BRANCH  18  21
ATOM     21  S   UNL     1      -1.845  -7.750   8.978  0.00  0.00    +0.067 S 
ATOM     22  O   UNL     1      -2.018  -6.639   9.847  0.00  0.00    -0.152 OA
ATOM     23  O   UNL     1      -2.934  -8.371   8.309  0.00  0.00    -0.152 OA
BRANCH  21  24
ATOM     24  C   UNL     1      -1.051  -9.008   9.922  0.00  0.00    +0.143 A 
ATOM     25  C   UNL     1      -0.283  -8.886  11.033  0.00  0.00    +0.036 A 
ATOM     26  C   UNL     1       0.242 -10.025  11.614  0.00  0.00    +0.010 A 
ATOM     27  C   UNL     1      -0.025 -11.231  11.055  0.00  0.00    +0.047 A 
ATOM     28  S   UNL     1      -1.054 -10.775   9.668  0.00  0.00    -0.077 S 
ENDBRANCH  21  24
ENDBRANCH  18  21
ENDBRANCH  13  15
BRANCH  12  29
ATOM     29  C   UNL     1       0.896  -6.442   2.913  0.00  0.00    +0.114 C 
BRANCH  29  30
ATOM     30  C   UNL     1       2.421  -6.523   2.992  0.00  0.00    +0.001 C 
BRANCH  30  31
ATOM     31  C   UNL     1       2.876  -7.944   2.654  0.00  0.00    -0.078 C 
BRANCH  31  32
ATOM     32  N   UNL     1       4.341  -8.021   2.730  0.00  0.00    +0.376 N 
ATOM     33  C   UNL     1       4.769  -9.411   2.523  0.00  0.00    -0.097 C 
ATOM     34  C   UNL     1       4.931  -7.167   1.691  0.00  0.00    -0.097 C 
ATOM     35  H   UNL     1       4.647  -7.706   3.639  0.00  0.00    -0.083 HD
ENDBRANCH  31  32
ENDBRANCH  30  31
ENDBRANCH  29  30
ENDBRANCH  12  29
TORSDOF 7
