REMARK  Name = ZINC15555497
REMARK  7 active torsions:
REMARK  status: ('A' for Active; 'I' for Inactive)
REMARK    1  A    between atoms: C_1  and  C_2
REMARK    2  A    between atoms: C_2  and  C_3
REMARK    3  A    between atoms: C_3  and  C_5
REMARK    4  A    between atoms: C_3  and  C_6
REMARK    5  A    between atoms: C_9  and  S_12
REMARK    6  A    between atoms: S_12  and  N_15
REMARK    7  A    between atoms: C_21  and  C_23
REMARK                            x       y       z     vdW  Elec       q    Type
REMARK                         _______ _______ _______ _____ _____    ______ ____
ROOT
ATOM      1  N   UNL     1      -0.018   1.667  -0.035  0.00  0.00    -0.174 NA
ATOM      2  C   UNL     1      -1.294   2.396  -0.015  0.00  0.00    +0.128 C 
ATOM      3  C   UNL     1      -1.295   3.338   1.201  0.00  0.00    +0.125 C 
ATOM      4  N   UNL     1      -0.041   4.105   1.201  0.00  0.00    -0.294 N 
ATOM      5  C   UNL     1       1.234   3.375   1.175  0.00  0.00    +0.125 C 
ATOM      6  C   UNL     1       1.236   2.433  -0.035  0.00  0.00    +0.128 C 
ATOM      7  C   UNL     1      -0.061   5.452   1.224  0.00  0.00    +0.267 C 
ATOM      8  O   UNL     1       0.980   6.074   1.324  0.00  0.00    -0.268 OA
ENDROOT
BRANCH   7   9
ATOM      9  C   UNL     1      -1.343   6.172   1.128  0.00  0.00    +0.155 A 
ATOM     10  C   UNL     1      -1.532   7.625   1.025  0.00  0.00    +0.032 A 
ATOM     11  C   UNL     1      -0.693   8.735   0.971  0.00  0.00    +0.012 A 
ATOM     12  C   UNL     1      -1.236   9.985   0.865  0.00  0.00    +0.001 A 
ATOM     13  C   UNL     1      -2.613  10.153   0.805  0.00  0.00    +0.002 A 
ATOM     14  C   UNL     1      -3.454   9.077   0.851  0.00  0.00    +0.028 A 
ATOM     15  C   UNL     1      -2.929   7.793   0.960  0.00  0.00    +0.066 A 
ATOM     16  N   UNL     1      -3.465   6.534   1.030  0.00  0.00    -0.276 N 
ATOM     17  H   UNL     1      -4.445   6.336   1.010  0.00  0.00    +0.189 HD
ATOM     18  N   UNL     1      -2.547   5.641   1.124  0.00  0.00    -0.168 NA
ENDBRANCH   7   9
BRANCH   1  19
ATOM     19  S   UNL     1       0.006   0.011  -0.064  0.00  0.00    +0.061 S 
ATOM     20  O   UNL     1      -1.239  -0.404  -0.609  0.00  0.00    -0.153 OA
ATOM     21  O   UNL     1       1.251  -0.367  -0.635  0.00  0.00    -0.153 OA
BRANCH  19  25
ATOM     22  C   UNL     1       0.072  -1.403   4.235  0.00  0.00    -0.044 A 
ATOM     23  C   UNL     1      -1.135  -1.204   3.591  0.00  0.00    +0.006 A 
ATOM     24  C   UNL     1      -1.155  -0.773   2.278  0.00  0.00    +0.029 A 
ATOM     25  C   UNL     1       0.032  -0.539   1.609  0.00  0.00    +0.105 A 
ATOM     26  C   UNL     1       1.239  -0.743   2.252  0.00  0.00    +0.029 A 
ATOM     27  C   UNL     1       1.259  -1.170   3.566  0.00  0.00    +0.006 A 
BRANCH  22  28
ATOM     28  C   UNL     1       0.093  -1.874   5.667  0.00  0.00    +0.016 C 
ATOM     29  C   UNL     1       0.834  -3.210   5.753  0.00  0.00    +0.012 C 
BRANCH  28  31
ATOM     30  C   UNL     1       0.723  -1.253   8.003  0.00  0.00    +0.004 C 
ATOM     31  C   UNL     1       0.809  -0.837   6.534  0.00  0.00    +0.004 C 
ENDBRANCH  28  31
ENDBRANCH  22  28
ENDBRANCH  19  25
ENDBRANCH   1  19
TORSDOF 5
