REMARK  Name = ZINC12972071
REMARK  8 active torsions:
REMARK  status: ('A' for Active; 'I' for Inactive)
REMARK    1  A    between atoms: C_3  and  S_26
REMARK    2  A    between atoms: C_6  and  C_7
REMARK    3  A    between atoms: C_7  and  N_8
REMARK    4  A    between atoms: C_9  and  C_11
REMARK    5  A    between atoms: C_11  and  C_12
REMARK    6  A    between atoms: C_15  and  S_17
REMARK    7  A    between atoms: S_17  and  N_20
REMARK    8  A    between atoms: S_26  and  N_29
REMARK                            x       y       z     vdW  Elec       q    Type
REMARK                         _______ _______ _______ _____ _____    ______ ____
ROOT
ATOM      1  N   UNL     1      -1.726  -1.018  -1.368  0.00  0.00    -0.311 N 
ATOM      2  C   UNL     1      -2.867  -1.694  -1.606  0.00  0.00    +0.218 C 
ATOM      3  O   UNL     1      -3.535  -2.103  -0.680  0.00  0.00    -0.275 OA
ATOM      4  H   UNL     1      -1.192  -0.691  -2.108  0.00  0.00    +0.149 HD
ENDROOT
BRANCH   1   5
ATOM      5  C   UNL     1      -1.293  -0.775   0.011  0.00  0.00    +0.139 C 
BRANCH   5  11
ATOM      6  C   UNL     1      -0.017   1.378   0.010  0.00  0.00    +0.007 A 
ATOM      7  C   UNL     1       1.171   2.086   0.002  0.00  0.00    +0.029 A 
ATOM      8  C   UNL     1       2.377   1.411  -0.013  0.00  0.00    +0.105 A 
ATOM      9  C   UNL     1       2.396   0.029  -0.020  0.00  0.00    +0.029 A 
ATOM     10  C   UNL     1       1.208  -0.679  -0.012  0.00  0.00    +0.007 A 
ATOM     11  C   UNL     1       0.002  -0.004   0.002  0.00  0.00    -0.030 A 
BRANCH   8  12
ATOM     12  S   UNL     1       3.891   2.312  -0.024  0.00  0.00    +0.056 S 
ATOM     13  O   UNL     1       4.872   1.453  -0.588  0.00  0.00    -0.153 OA
ATOM     14  O   UNL     1       3.597   3.593  -0.566  0.00  0.00    -0.153 OA
BRANCH  12  15
ATOM     15  N   UNL     1       4.327   2.556   1.555  0.00  0.00    -0.204 NA
ATOM     16  H   UNL     1       3.768   2.215   2.271  0.00  0.00    +0.144 HD
ATOM     17  H   UNL     1       5.142   3.039   1.764  0.00  0.00    +0.144 HD
ENDBRANCH  12  15
ENDBRANCH   8  12
ENDBRANCH   5  11
ENDBRANCH   1   5
BRANCH   2  18
ATOM     18  C   UNL     1      -3.312  -1.944  -3.024  0.00  0.00    +0.138 C 
BRANCH  18  19
ATOM     19  C   UNL     1      -4.607  -2.715  -3.015  0.00  0.00    +0.000 A 
ATOM     20  C   UNL     1      -5.879  -2.247  -3.006  0.00  0.00    +0.013 A 
ATOM     21  C   UNL     1      -6.926  -3.151  -3.000  0.00  0.00    +0.036 A 
ATOM     22  C   UNL     1      -6.649  -4.477  -3.004  0.00  0.00    +0.143 A 
ATOM     23  S   UNL     1      -4.863  -4.482  -3.023  0.00  0.00    -0.073 S 
BRANCH  22  24
ATOM     24  S   UNL     1      -7.761  -5.843  -2.998  0.00  0.00    +0.067 S 
ATOM     25  O   UNL     1      -7.049  -6.946  -2.454  0.00  0.00    -0.152 OA
ATOM     26  O   UNL     1      -8.980  -5.372  -2.438  0.00  0.00    -0.152 OA
BRANCH  24  27
ATOM     27  N   UNL     1      -8.082  -6.221  -4.578  0.00  0.00    -0.172 NA
ATOM     28  C   UNL     1      -9.203  -5.592  -5.295  0.00  0.00    +0.137 C 
ATOM     29  C   UNL     1      -8.677  -5.039  -6.625  0.00  0.00    +0.177 C 
ATOM     30  O   UNL     1      -7.978  -6.074  -7.321  0.00  0.00    -0.377 OA
ATOM     31  C   UNL     1      -6.823  -6.564  -6.636  0.00  0.00    +0.177 C 
ATOM     32  C   UNL     1      -7.250  -7.190  -5.309  0.00  0.00    +0.137 C 
ENDBRANCH  24  27
ENDBRANCH  22  24
ENDBRANCH  18  19
ENDBRANCH   2  18
TORSDOF 8
