REMARK  Name = ZINC59891400
REMARK  14 active torsions:
REMARK  status: ('A' for Active; 'I' for Inactive)
REMARK    1  A    between atoms: C_1  and  C_2
REMARK    2  A    between atoms: C_2  and  C_3
REMARK    3  A    between atoms: C_3  and  C_4
REMARK    4  A    between atoms: C_4  and  C_5
REMARK    5  A    between atoms: C_5  and  C_35
REMARK    6  A    between atoms: N_6  and  N_7
REMARK    7  A    between atoms: C_10  and  S_13
REMARK    8  A    between atoms: S_13  and  C_14
REMARK    9  A    between atoms: C_14  and  C_15
REMARK   10  A    between atoms: C_15  and  C_16
REMARK   11  A    between atoms: N_18  and  C_19
REMARK   12  A    between atoms: C_22  and  S_25
REMARK   13  A    between atoms: S_25  and  N_28
REMARK   14  A    between atoms: C_31  and  C_34
REMARK                            x       y       z     vdW  Elec       q    Type
REMARK                         _______ _______ _______ _____ _____    ______ ____
ROOT
ATOM      1  C   UNL     1      10.709  -7.935  -2.307  0.00  0.00    +0.218 C 
ATOM      2  O   UNL     1      10.616  -7.954  -3.516  0.00  0.00    -0.275 OA
ATOM      3  N   UNL     1      11.764  -8.519  -1.703  0.00  0.00    -0.285 N 
ATOM      4  H   UNL     1      11.873  -8.446  -0.742  0.00  0.00    +0.155 HD
ENDROOT
BRANCH   3   5
ATOM      5  C   UNL     1      12.700  -9.229  -2.462  0.00  0.00    +0.033 A 
ATOM      6  C   UNL     1      13.301 -10.367  -1.939  0.00  0.00    +0.025 A 
ATOM      7  C   UNL     1      14.225 -11.066  -2.691  0.00  0.00    +0.030 A 
ATOM      8  C   UNL     1      14.551 -10.634  -3.964  0.00  0.00    +0.106 A 
ATOM      9  C   UNL     1      13.955  -9.502  -4.487  0.00  0.00    +0.030 A 
ATOM     10  C   UNL     1      13.026  -8.802  -3.743  0.00  0.00    +0.025 A 
BRANCH   8  11
ATOM     11  S   UNL     1      15.730 -11.529  -4.920  0.00  0.00    +0.061 S 
ATOM     12  O   UNL     1      16.266 -10.613  -5.865  0.00  0.00    -0.153 OA
ATOM     13  O   UNL     1      16.547 -12.238  -3.998  0.00  0.00    -0.153 OA
BRANCH  11  14
ATOM     14  N   UNL     1      14.896 -12.667  -5.786  0.00  0.00    -0.177 NA
ATOM     15  C   UNL     1      14.655 -14.005  -5.227  0.00  0.00    +0.110 C 
ATOM     16  C   UNL     1      15.154 -15.053  -6.226  0.00  0.00    +0.020 C 
ATOM     17  C   UNL     1      14.493 -14.812  -7.585  0.00  0.00    -0.012 C 
ATOM     18  C   UNL     1      14.882 -13.426  -8.105  0.00  0.00    +0.020 C 
ATOM     19  C   UNL     1      14.376 -12.357  -7.124  0.00  0.00    +0.110 C 
ATOM     20  C   UNL     1      14.963 -15.878  -8.577  0.00  0.00    +0.007 C 
ENDBRANCH  11  14
ENDBRANCH   8  11
ENDBRANCH   3   5
BRANCH   1  21
ATOM     21  C   UNL     1       9.646  -7.260  -1.479  0.00  0.00    +0.107 C 
BRANCH  21  22
ATOM     22  C   UNL     1       8.571  -6.684  -2.403  0.00  0.00    +0.086 C 
BRANCH  22  23
ATOM     23  S   UNL     1       7.291  -5.870  -1.407  0.00  0.00    -0.084 S 
BRANCH  23  27
ATOM     24  N   UNL     1       3.208  -3.599  -3.556  0.00  0.00    -0.205 N 
ATOM     25  C   UNL     1       4.399  -4.293  -3.447  0.00  0.00    +0.232 A 
ATOM     26  N   UNL     1       5.021  -4.591  -2.326  0.00  0.00    -0.186 NA
ATOM     27  C   UNL     1       6.142  -5.267  -2.599  0.00  0.00    +0.210 A 
ATOM     28  N   UNL     1       6.248  -5.409  -3.899  0.00  0.00    -0.144 NA
ATOM     29  N   UNL     1       5.125  -4.790  -4.471  0.00  0.00    -0.245 N 
ATOM     30  H   UNL     1       2.822  -3.431  -4.430  0.00  0.00    +0.177 HD
ATOM     31  H   UNL     1       4.914  -4.728  -5.416  0.00  0.00    +0.192 HD
BRANCH  24  33
ATOM     32  C   UNL     1       1.454  -2.496  -2.505  0.00  0.00    +0.034 C 
ATOM     33  N   UNL     1       2.557  -3.139  -2.404  0.00  0.00    -0.189 NA
ATOM     34  C   UNL     1       0.856  -2.235  -3.863  0.00  0.00    +0.062 C 
BRANCH  32  35
ATOM     35  C   UNL     1       0.754  -2.001  -1.265  0.00  0.00    +0.052 C 
BRANCH  35  36
ATOM     36  C   UNL     1       0.737  -0.471  -1.266  0.00  0.00    +0.006 C 
BRANCH  36  38
ATOM     37  C   UNL     1       0.009   1.561  -0.009  0.00  0.00    +0.004 C 
ATOM     38  C   UNL     1       0.026   0.031  -0.008  0.00  0.00    -0.003 C 
ENDBRANCH  36  38
ENDBRANCH  35  36
ENDBRANCH  32  35
ENDBRANCH  24  33
ENDBRANCH  23  27
ENDBRANCH  22  23
ENDBRANCH  21  22
ENDBRANCH   1  21
TORSDOF 11
