REMARK  Name = ZINC19296836
REMARK  7 active torsions:
REMARK  status: ('A' for Active; 'I' for Inactive)
REMARK    1  A    between atoms: C_1  and  C_2
REMARK    2  A    between atoms: C_2  and  C_4
REMARK    3  A    between atoms: C_2  and  S_8
REMARK    4  A    between atoms: N_6  and  C_7
REMARK    5  A    between atoms: S_8  and  C_9
REMARK    6  A    between atoms: C_12  and  C_22
REMARK    7  A    between atoms: N_13  and  C_14
REMARK                            x       y       z     vdW  Elec       q    Type
REMARK                         _______ _______ _______ _____ _____    ______ ____
ROOT
ATOM      1  C   UNL     1      -2.155  -0.782   1.451  0.00  0.00    +0.197 A 
ATOM      2  N   UNL     1      -0.962  -1.325   1.363  0.00  0.00    -0.122 NA
ATOM      3  N   UNL     1      -1.048  -2.602   1.470  0.00  0.00    -0.128 NA
ATOM      4  C   UNL     1      -2.301  -2.957   1.633  0.00  0.00    +0.171 A 
ATOM      5  N   UNL     1      -3.051  -1.800   1.631  0.00  0.00    -0.270 N 
ENDROOT
BRANCH   5   6
ATOM      6  C   UNL     1      -4.441  -1.691   1.781  0.00  0.00    +0.052 A 
ATOM      7  C   UNL     1      -5.221  -1.248   0.722  0.00  0.00    +0.029 A 
ATOM      8  C   UNL     1      -6.590  -1.141   0.871  0.00  0.00    +0.042 A 
ATOM      9  C   UNL     1      -7.185  -1.475   2.076  0.00  0.00    +0.142 A 
ATOM     10  C   UNL     1      -6.408  -1.916   3.135  0.00  0.00    +0.078 A 
ATOM     11  C   UNL     1      -5.038  -2.030   2.987  0.00  0.00    +0.049 A 
ATOM     12 CL   UNL     1      -7.156  -2.334   4.645  0.00  0.00    -0.081 Cl
ATOM     13  F   UNL     1      -8.524  -1.369   2.219  0.00  0.00    -0.204 F 
ENDBRANCH   5   6
BRANCH   4  14
ATOM     14  C   UNL     1      -2.812  -4.334   1.792  0.00  0.00    +0.038 A 
ATOM     15  C   UNL     1      -3.913  -4.764   1.050  0.00  0.00    +0.014 A 
ATOM     16  C   UNL     1      -4.382  -6.053   1.200  0.00  0.00    +0.021 A 
ATOM     17  C   UNL     1      -3.769  -6.917   2.092  0.00  0.00    +0.042 A 
ATOM     18  C   UNL     1      -2.680  -6.495   2.836  0.00  0.00    +0.040 A 
ATOM     19  C   UNL     1      -2.198  -5.210   2.691  0.00  0.00    +0.053 A 
ATOM     20 CL   UNL     1      -0.831  -4.683   3.623  0.00  0.00    -0.083 Cl
ATOM     21 CL   UNL     1      -4.369  -8.535   2.279  0.00  0.00    -0.083 Cl
ENDBRANCH   4  14
BRANCH   1  22
ATOM     22  S   UNL     1      -2.531   0.937   1.360  0.00  0.00    -0.073 S 
BRANCH  22  24
ATOM     23  C   UNL     1      -0.308   1.138  -0.216  0.00  0.00    +0.029 C 
ATOM     24  C   UNL     1      -0.867   1.611   1.128  0.00  0.00    +0.137 C 
BRANCH  24  25
ATOM     25  C   UNL     1      -0.928   3.117   1.144  0.00  0.00    +0.226 C 
ATOM     26  O   UNL     1      -1.980   3.683   0.933  0.00  0.00    -0.275 OA
ATOM     27  N   UNL     1       0.185   3.833   1.393  0.00  0.00    -0.317 N 
ATOM     28  C   UNL     1       0.126   5.297   1.409  0.00  0.00    +0.128 C 
ATOM     29  H   UNL     1       1.139   3.320   1.584  0.00  0.00    +0.148 HD
ENDBRANCH  24  25
ENDBRANCH  22  24
ENDBRANCH   1  22
TORSDOF 5
