REMARK  Name = ZINC40914426
REMARK  8 active torsions:
REMARK  status: ('A' for Active; 'I' for Inactive)
REMARK    1  A    between atoms: C_1  and  C_2
REMARK    2  A    between atoms: C_2  and  C_34
REMARK    3  A    between atoms: C_6  and  C_14
REMARK    4  A    between atoms: C_17  and  O_22
REMARK    5  A    between atoms: C_18  and  O_20
REMARK    6  A    between atoms: O_20  and  C_21
REMARK    7  A    between atoms: O_22  and  C_23
REMARK    8  A    between atoms: C_23  and  C_24
REMARK                            x       y       z     vdW  Elec       q    Type
REMARK                         _______ _______ _______ _____ _____    ______ ____
ROOT
ATOM      1  C   UNL     1      -0.019   1.526   0.010  0.00  0.00    +0.011 C 
ATOM      2  C   UNL     1       0.002  -0.004   0.002  0.00  0.00    -0.023 C 
ATOM      3  C   UNL     1       0.742  -0.503  -1.241  0.00  0.00    +0.058 C 
ATOM      4  C   UNL     1       2.168  -0.005  -1.216  0.00  0.00    +0.020 C 
ATOM      5  C   UNL     1       2.816   0.182  -0.046  0.00  0.00    +0.041 C 
ATOM      6  C   UNL     1       4.249   0.663   0.011  0.00  0.00    +0.176 C 
ATOM      7  N   UNL     1       4.651   1.188  -1.288  0.00  0.00    -0.221 N 
ATOM      8  C   UNL     1       3.945   0.981  -2.427  0.00  0.00    +0.218 A 
ATOM      9  N   UNL     1       4.574   1.574  -3.404  0.00  0.00    -0.201 NA
ATOM     10  C   UNL     1       5.674   2.169  -2.932  0.00  0.00    +0.247 A 
ATOM     11  N   UNL     1       5.758   1.958  -1.642  0.00  0.00    -0.156 NA
ATOM     12  N   UNL     1       2.768   0.251  -2.425  0.00  0.00    -0.287 N 
ATOM     13  C   UNL     1       2.173  -0.060   1.181  0.00  0.00    +0.164 C 
ATOM     14  O   UNL     1       2.788   0.104   2.217  0.00  0.00    -0.292 OA
ATOM     15  C   UNL     1       0.742  -0.517   1.242  0.00  0.00    +0.086 C 
ATOM     16  C   UNL     1      -1.431  -0.539  -0.001  0.00  0.00    +0.011 C 
ATOM     17  H   UNL     1       2.378  -0.070  -3.254  0.00  0.00    +0.155 HD
ENDROOT
BRANCH   6  18
ATOM     18  C   UNL     1       5.148  -0.488   0.383  0.00  0.00    -0.015 A 
ATOM     19  C   UNL     1       5.206  -1.607  -0.427  0.00  0.00    +0.010 A 
ATOM     20  C   UNL     1       6.029  -2.666  -0.091  0.00  0.00    +0.050 A 
ATOM     21  C   UNL     1       6.799  -2.606   1.060  0.00  0.00    +0.162 A 
ATOM     22  C   UNL     1       6.741  -1.480   1.874  0.00  0.00    +0.162 A 
ATOM     23  C   UNL     1       5.918  -0.420   1.529  0.00  0.00    +0.055 A 
BRANCH  22  24
ATOM     24  O   UNL     1       7.495  -1.416   3.005  0.00  0.00    -0.491 OA
ATOM     25  C   UNL     1       7.385  -0.229   3.792  0.00  0.00    +0.277 C 
ENDBRANCH  22  24
BRANCH  21  26
ATOM     26  O   UNL     1       7.609  -3.647   1.392  0.00  0.00    -0.484 OA
BRANCH  26  27
ATOM     27  C   UNL     1       7.617  -4.771   0.509  0.00  0.00    +0.264 C 
BRANCH  27  28
ATOM     28  C   UNL     1       8.565  -5.816   1.036  0.00  0.00    -0.010 A 
ATOM     29  C   UNL     1       9.895  -5.796   0.659  0.00  0.00    +0.008 A 
ATOM     30  C   UNL     1      10.765  -6.755   1.141  0.00  0.00    +0.020 A 
ATOM     31  C   UNL     1      10.306  -7.736   2.003  0.00  0.00    +0.041 A 
ATOM     32  C   UNL     1       8.975  -7.755   2.381  0.00  0.00    +0.020 A 
ATOM     33  C   UNL     1       8.107  -6.792   1.901  0.00  0.00    +0.008 A 
ATOM     34 CL   UNL     1      11.398  -8.941   2.609  0.00  0.00    -0.084 Cl
ENDBRANCH  27  28
ENDBRANCH  26  27
ENDBRANCH  21  26
ENDBRANCH   6  18
TORSDOF 5
