REMARK  Name = ZINC21229490
REMARK  9 active torsions:
REMARK  status: ('A' for Active; 'I' for Inactive)
REMARK    1  A    between atoms: C_1  and  C_2
REMARK    2  A    between atoms: C_3  and  C_33
REMARK    3  A    between atoms: N_9  and  C_28
REMARK    4  A    between atoms: C_10  and  S_12
REMARK    5  A    between atoms: S_12  and  C_13
REMARK    6  A    between atoms: C_13  and  C_15
REMARK    7  A    between atoms: C_13  and  C_16
REMARK    8  A    between atoms: N_18  and  C_19
REMARK    9  A    between atoms: C_22  and  C_25
REMARK                            x       y       z     vdW  Elec       q    Type
REMARK                         _______ _______ _______ _____ _____    ______ ____
ROOT
ATOM      1  S   UNL     1       3.994  -4.886   0.328  0.00  0.00    -0.075 S 
ENDROOT
BRANCH   1  11
ATOM      2  C   UNL     1       3.648 -11.839   0.236  0.00  0.00    +0.045 C 
ATOM      3  C   UNL     1       2.735 -10.690  -0.106  0.00  0.00    -0.026 A 
ATOM      4  C   UNL     1       1.494 -10.921  -0.561  0.00  0.00    -0.008 A 
ATOM      5  S   UNL     1       0.833  -9.285  -0.813  0.00  0.00    -0.073 S 
ATOM      6  C   UNL     1       2.243  -8.336  -0.300  0.00  0.00    +0.117 A 
ATOM      7  C   UNL     1       3.188  -9.319   0.053  0.00  0.00    +0.075 A 
ATOM      8  C   UNL     1       4.450  -8.830   0.515  0.00  0.00    +0.263 A 
ATOM      9  O   UNL     1       5.331  -9.607   0.843  0.00  0.00    -0.267 OA
ATOM     10  N   UNL     1       4.655  -7.501   0.578  0.00  0.00    -0.284 N 
ATOM     11  C   UNL     1       3.680  -6.617   0.221  0.00  0.00    +0.174 A 
ATOM     12  N   UNL     1       2.508  -7.039  -0.208  0.00  0.00    -0.216 NA
ATOM     13  C   UNL     1       0.821 -12.248  -0.801  0.00  0.00    +0.052 C 
BRANCH  10  14
ATOM     14  C   UNL     1       5.949  -6.995   1.045  0.00  0.00    +0.093 C 
ATOM     15  C   UNL     1       7.083  -7.540   0.152  0.00  0.00    +0.025 C 
ATOM     16  C   UNL     1       8.250  -7.799   1.138  0.00  0.00    +0.002 C 
ATOM     17  C   UNL     1       7.524  -8.336   2.396  0.00  0.00    +0.002 C 
ATOM     18  C   UNL     1       6.229  -7.501   2.471  0.00  0.00    +0.025 C 
ENDBRANCH  10  14
ENDBRANCH   1  11
BRANCH   1  19
ATOM     19  C   UNL     1       2.408  -4.242  -0.259  0.00  0.00    +0.137 C 
ATOM     20  C   UNL     1       2.208  -4.636  -1.724  0.00  0.00    +0.029 C 
BRANCH  19  21
ATOM     21  C   UNL     1       2.400  -2.740  -0.137  0.00  0.00    +0.230 C 
ATOM     22  O   UNL     1       3.445  -2.125  -0.144  0.00  0.00    -0.274 OA
ATOM     23  N   UNL     1       1.231  -2.079  -0.021  0.00  0.00    -0.285 N 
ATOM     24  H   UNL     1       0.289  -2.640   0.073  0.00  0.00    +0.155 HD
BRANCH  23  25
ATOM     25  C   UNL     1       1.215  -0.685  -0.019  0.00  0.00    +0.033 A 
ATOM     26  C   UNL     1       2.141   0.021  -0.781  0.00  0.00    +0.024 A 
ATOM     27  C   UNL     1       2.128   1.397  -0.781  0.00  0.00    +0.015 A 
ATOM     28  C   UNL     1       1.183   2.086  -0.015  0.00  0.00    +0.037 A 
ATOM     29  C   UNL     1       0.255   1.374   0.749  0.00  0.00    +0.015 A 
ATOM     30  C   UNL     1       0.273  -0.002   0.745  0.00  0.00    +0.024 A 
BRANCH  28  31
ATOM     31  C   UNL     1       1.167   3.562  -0.013  0.00  0.00    +0.242 C 
ATOM     32  O   UNL     1       1.976   4.180  -0.678  0.00  0.00    -0.270 OA
ATOM     33  N   UNL     1       0.255   4.225   0.726  0.00  0.00    -0.325 N 
ATOM     34  H   UNL     1       0.243   5.324   0.727  0.00  0.00    +0.145 HD
ATOM     35  H   UNL     1      -0.477   3.666   1.327  0.00  0.00    +0.145 HD
ENDBRANCH  28  31
ENDBRANCH  23  25
ENDBRANCH  19  21
ENDBRANCH   1  19
TORSDOF 6
