REMARK  Name = ZINC06176848
REMARK  8 active torsions:
REMARK  status: ('A' for Active; 'I' for Inactive)
REMARK    1  A    between atoms: C_1  and  O_2
REMARK    2  A    between atoms: O_2  and  C_3
REMARK    3  A    between atoms: C_8  and  C_15
REMARK    4  A    between atoms: C_15  and  C_17
REMARK    5  A    between atoms: C_15  and  N_67
REMARK    6  A    between atoms: N_21  and  C_22
REMARK    7  A    between atoms: C_22  and  C_23
REMARK    8  A    between atoms: N_31  and  C_34
REMARK                            x       y       z     vdW  Elec       q    Type
REMARK                         _______ _______ _______ _____ _____    ______ ____
ROOT
ATOM      1  C   UNL     1      -8.207   0.005   3.737  0.00  0.00    +0.039 C 
ENDROOT
BRANCH   1   7
ATOM      2  C   UNL     1      -1.993   1.867   4.008  0.00  0.00    +0.122 A 
ATOM      3  C   UNL     1      -2.164   0.753   4.829  0.00  0.00    +0.046 A 
ATOM      4  C   UNL     1      -3.389   0.167   4.955  0.00  0.00    +0.013 A 
ATOM      5  C   UNL     1      -4.482   0.679   4.246  0.00  0.00    -0.001 A 
ATOM      6  C   UNL     1      -5.807   0.070   4.356  0.00  0.00    +0.017 A 
ATOM      7  C   UNL     1      -6.830   0.609   3.646  0.00  0.00    +0.011 A 
ATOM      8  C   UNL     1      -6.609   1.733   2.823  0.00  0.00    +0.251 A 
ATOM      9  O   UNL     1      -7.542   2.201   2.194  0.00  0.00    -0.268 OA
ATOM     10  N   UNL     1      -5.395   2.301   2.715  0.00  0.00    -0.322 N 
ATOM     11  H   UNL     1      -5.278   3.073   2.140  0.00  0.00    +0.169 HD
ATOM     12  C   UNL     1      -4.314   1.801   3.410  0.00  0.00    +0.053 A 
ATOM     13  C   UNL     1      -3.061   2.389   3.298  0.00  0.00    +0.072 A 
BRANCH   2  15
ATOM     14  C   UNL     1       0.293   1.855   4.656  0.00  0.00    +0.277 C 
ATOM     15  O   UNL     1      -0.767   2.441   3.898  0.00  0.00    -0.495 OA
ENDBRANCH   2  15
ENDBRANCH   1   7
BRANCH   1  21
ATOM     16  C   UNL     1      -8.770   1.647   5.427  0.00  0.00    -0.058 C 
ATOM     17  C   UNL     1      -9.749   2.768   5.782  0.00  0.00    +0.086 C 
ATOM     18  N   UNL     1     -11.110   2.218   5.866  0.00  0.00    -0.331 N 
ATOM     19  C   UNL     1     -11.508   1.608   4.589  0.00  0.00    +0.086 C 
ATOM     20  C   UNL     1     -10.528   0.487   4.235  0.00  0.00    -0.058 C 
ATOM     21  N   UNL     1      -9.168   1.058   4.131  0.00  0.00    +0.391 N 
ATOM     22  H   UNL     1      -9.169   1.794   3.416  0.00  0.00    -0.080 HD
BRANCH  18  23
ATOM     23  C   UNL     1     -12.024   3.200   6.259  0.00  0.00    +0.065 A 
ATOM     24  C   UNL     1     -13.355   2.867   6.470  0.00  0.00    +0.026 A 
ATOM     25  C   UNL     1     -14.255   3.839   6.862  0.00  0.00    +0.002 A 
ATOM     26  C   UNL     1     -13.835   5.145   7.036  0.00  0.00    +0.003 A 
ATOM     27  C   UNL     1     -12.511   5.482   6.823  0.00  0.00    +0.040 A 
ATOM     28  C   UNL     1     -11.603   4.514   6.435  0.00  0.00    +0.144 A 
ATOM     29  F   UNL     1     -10.310   4.844   6.226  0.00  0.00    -0.204 F 
ENDBRANCH  18  23
ENDBRANCH   1  21
BRANCH   1  30
ATOM     30  C   UNL     1      -8.201  -1.109   4.751  0.00  0.00    +0.143 A 
ATOM     31  N   UNL     1      -8.097  -0.984   6.052  0.00  0.00    -0.115 NA
ATOM     32  N   UNL     1      -8.133  -2.163   6.570  0.00  0.00    -0.023 NA
ATOM     33  N   UNL     1      -8.249  -3.038   5.633  0.00  0.00    -0.044 NA
ATOM     34  N   UNL     1      -8.295  -2.428   4.497  0.00  0.00    -0.226 N 
BRANCH  34  35
ATOM     35  C   UNL     1      -8.423  -3.052   3.178  0.00  0.00    +0.182 C 
BRANCH  35  36
ATOM     36  C   UNL     1      -7.058  -3.433   2.667  0.00  0.00    -0.026 A 
ATOM     37  C   UNL     1      -6.362  -2.568   1.843  0.00  0.00    +0.005 A 
ATOM     38  C   UNL     1      -5.107  -2.915   1.378  0.00  0.00    +0.000 A 
ATOM     39  C   UNL     1      -4.553  -4.131   1.729  0.00  0.00    +0.000 A 
ATOM     40  C   UNL     1      -5.250  -4.999   2.548  0.00  0.00    +0.000 A 
ATOM     41  C   UNL     1      -6.503  -4.650   3.017  0.00  0.00    +0.005 A 
ENDBRANCH  35  36
ENDBRANCH  34  35
ENDBRANCH   1  30
TORSDOF 7
