REMARK  Name = ZINC03505578
REMARK  7 active torsions:
REMARK  status: ('A' for Active; 'I' for Inactive)
REMARK    1  A    between atoms: C_1  and  C_2
REMARK    2  A    between atoms: C_2  and  C_3
REMARK    3  A    between atoms: C_3  and  C_4
REMARK    4  A    between atoms: C_4  and  C_5
REMARK    5  A    between atoms: C_8  and  N_11
REMARK    6  A    between atoms: C_12  and  C_14
REMARK    7  A    between atoms: C_14  and  N_15
REMARK                            x       y       z     vdW  Elec       q    Type
REMARK                         _______ _______ _______ _____ _____    ______ ____
ROOT
ATOM      1  N   UNL     1      -0.011   0.966   0.007  0.00  0.00    -0.284 N 
ATOM      2  C   UNL     1       1.050   1.777  -0.174  0.00  0.00    +0.235 C 
ATOM      3  O   UNL     1       0.879   2.953  -0.417  0.00  0.00    -0.274 OA
ATOM      4  H   UNL     1       0.122   0.012   0.124  0.00  0.00    +0.155 HD
ENDROOT
BRANCH   1   8
ATOM      5  C   UNL     1      -3.863   2.553   0.051  0.00  0.00    -0.047 A 
ATOM      6  C   UNL     1      -3.645   1.284  -0.456  0.00  0.00    +0.005 A 
ATOM      7  C   UNL     1      -2.369   0.756  -0.472  0.00  0.00    +0.023 A 
ATOM      8  C   UNL     1      -1.305   1.499   0.022  0.00  0.00    +0.033 A 
ATOM      9  C   UNL     1      -1.528   2.769   0.536  0.00  0.00    +0.023 A 
ATOM     10  C   UNL     1      -2.805   3.295   0.543  0.00  0.00    +0.005 A 
BRANCH   5  11
ATOM     11  C   UNL     1      -5.256   3.127   0.066  0.00  0.00    +0.035 C 
BRANCH  11  12
ATOM     12  C   UNL     1      -5.945   2.760   1.382  0.00  0.00    +0.004 C 
BRANCH  12  14
ATOM     13  C   UNL     1      -8.048   2.976   2.713  0.00  0.00    +0.004 C 
ATOM     14  C   UNL     1      -7.360   3.343   1.397  0.00  0.00    -0.003 C 
ENDBRANCH  12  14
ENDBRANCH  11  12
ENDBRANCH   5  11
ENDBRANCH   1   8
BRANCH   2  15
ATOM     15  C   UNL     1       2.448   1.223  -0.076  0.00  0.00    +0.214 C 
BRANCH  15  16
ATOM     16  N   UNL     1       3.416   2.296  -0.311  0.00  0.00    -0.215 N 
ATOM     17  C   UNL     1       3.931   3.079   0.659  0.00  0.00    +0.247 C 
ATOM     18  O   UNL     1       3.690   3.031   1.847  0.00  0.00    -0.273 OA
ATOM     19  C   UNL     1       4.872   4.030  -0.045  0.00  0.00    +0.113 C 
ATOM     20  C   UNL     1       6.296   3.842   0.465  0.00  0.00    +0.035 C 
ATOM     21  C   UNL     1       7.237   4.793  -0.280  0.00  0.00    +0.003 C 
ATOM     22  C   UNL     1       6.784   6.237  -0.056  0.00  0.00    +0.000 C 
ATOM     23  C   UNL     1       5.363   6.415  -0.595  0.00  0.00    +0.003 C 
ATOM     24  C   UNL     1       4.414   5.471   0.149  0.00  0.00    +0.035 C 
ATOM     25  N   UNL     1       4.776   3.644  -1.459  0.00  0.00    -0.285 N 
ATOM     26  C   UNL     1       3.905   2.619  -1.515  0.00  0.00    +0.310 C 
ATOM     27  O   UNL     1       3.595   2.051  -2.544  0.00  0.00    -0.252 OA
ATOM     28  H   UNL     1       5.249   4.047  -2.204  0.00  0.00    +0.151 HD
ENDBRANCH  15  16
ENDBRANCH   2  15
TORSDOF 6
