REMARK  Name = ZINC64661001
REMARK  6 active torsions:
REMARK  status: ('A' for Active; 'I' for Inactive)
REMARK    1  A    between atoms: C_1  and  C_2
REMARK    2  A    between atoms: C_2  and  C_3
REMARK    3  A    between atoms: C_2  and  C_4
REMARK    4  A    between atoms: C_8  and  N_10
REMARK    5  A    between atoms: C_11  and  C_13
REMARK    6  A    between atoms: C_13  and  N_14
REMARK                            x       y       z     vdW  Elec       q    Type
REMARK                         _______ _______ _______ _____ _____    ______ ____
ROOT
ATOM      1  N   UNL     1      -6.664  -4.574  -2.774  0.00  0.00    -0.257 N 
ATOM      2  C   UNL     1      -6.776  -5.662  -1.891  0.00  0.00    +0.058 A 
ATOM      3  C   UNL     1      -5.542  -6.106  -1.453  0.00  0.00    +0.025 A 
ATOM      4  C   UNL     1      -5.467  -7.175  -0.575  0.00  0.00    +0.002 A 
ATOM      5  C   UNL     1      -6.621  -7.797  -0.138  0.00  0.00    +0.002 A 
ATOM      6  C   UNL     1      -7.859  -7.356  -0.574  0.00  0.00    +0.025 A 
ATOM      7  C   UNL     1      -7.941  -6.288  -1.450  0.00  0.00    +0.053 A 
ATOM      8  N   UNL     1      -9.269  -5.980  -1.780  0.00  0.00    -0.316 N 
ATOM      9  C   UNL     1      -9.750  -4.995  -2.607  0.00  0.00    +0.016 C 
ATOM     10  C   UNL     1     -11.237  -4.815  -2.833  0.00  0.00    +0.051 C 
ATOM     11  C   UNL     1     -11.384  -3.398  -3.427  0.00  0.00    +0.011 C 
ATOM     12  C   UNL     1     -10.006  -3.189  -4.090  0.00  0.00    +0.042 C 
ATOM     13  C   UNL     1      -9.056  -4.079  -3.313  0.00  0.00    +0.032 C 
ATOM     14  H   UNL     1      -9.942  -6.542  -1.365  0.00  0.00    +0.152 HD
ATOM     15  C   UNL     1      -7.651  -3.892  -3.382  0.00  0.00    +0.249 C 
ATOM     16  O   UNL     1      -7.285  -2.981  -4.102  0.00  0.00    -0.270 OA
ENDROOT
BRANCH   1  17
ATOM     17  C   UNL     1      -5.301  -4.123  -3.065  0.00  0.00    +0.210 C 
BRANCH  17  19
ATOM     18  N   UNL     1      -3.592  -2.675  -2.015  0.00  0.00    -0.284 N 
ATOM     19  C   UNL     1      -4.826  -3.214  -1.961  0.00  0.00    +0.235 C 
ATOM     20  O   UNL     1      -5.555  -2.967  -1.024  0.00  0.00    -0.274 OA
ATOM     21  H   UNL     1      -3.036  -2.814  -2.798  0.00  0.00    +0.155 HD
BRANCH  18  26
ATOM     22  C   UNL     1      -1.691  -0.178  -0.100  0.00  0.00    -0.043 A 
ATOM     23  C   UNL     1      -2.164  -0.413   1.178  0.00  0.00    +0.004 A 
ATOM     24  C   UNL     1      -3.110  -1.397   1.398  0.00  0.00    +0.002 A 
ATOM     25  C   UNL     1      -3.585  -2.148   0.342  0.00  0.00    +0.023 A 
ATOM     26  C   UNL     1      -3.112  -1.915  -0.943  0.00  0.00    +0.034 A 
ATOM     27  C   UNL     1      -2.166  -0.922  -1.162  0.00  0.00    +0.027 A 
BRANCH  22  29
ATOM     28  C   UNL     1      -1.220   2.248   0.111  0.00  0.00    +0.012 C 
ATOM     29  C   UNL     1      -0.660   0.896  -0.336  0.00  0.00    +0.013 C 
ATOM     30  C   UNL     1       0.602   0.577   0.467  0.00  0.00    +0.012 C 
ENDBRANCH  22  29
ENDBRANCH  18  26
ENDBRANCH  17  19
ENDBRANCH   1  17
TORSDOF 4
