REMARK  Name = ZINC12557156
REMARK  8 active torsions:
REMARK  status: ('A' for Active; 'I' for Inactive)
REMARK    1  A    between atoms: C_4  and  C_7
REMARK    2  A    between atoms: C_8  and  S_9
REMARK    3  A    between atoms: S_9  and  N_12
REMARK    4  A    between atoms: N_12  and  C_13
REMARK    5  A    between atoms: C_15  and  S_20
REMARK    6  A    between atoms: C_18  and  O_19
REMARK    7  A    between atoms: S_20  and  N_23
REMARK    8  A    between atoms: N_23  and  C_24
REMARK                            x       y       z     vdW  Elec       q    Type
REMARK                         _______ _______ _______ _____ _____    ______ ____
ROOT
ATOM      1  C   UNL     1      -3.477  -2.143   2.141  0.00  0.00    +0.091 A 
ATOM      2  C   UNL     1      -4.347  -2.415   1.095  0.00  0.00    +0.057 A 
ATOM      3  C   UNL     1      -5.634  -1.913   1.119  0.00  0.00    +0.111 A 
ATOM      4  C   UNL     1      -6.055  -1.131   2.178  0.00  0.00    +0.032 A 
ATOM      5  C   UNL     1      -5.192  -0.851   3.222  0.00  0.00    +0.049 A 
ATOM      6  C   UNL     1      -3.902  -1.355   3.208  0.00  0.00    +0.139 A 
ENDROOT
BRANCH   3   7
ATOM      7  S   UNL     1      -6.740  -2.265  -0.207  0.00  0.00    +0.072 S 
ATOM      8  O   UNL     1      -7.826  -1.357  -0.082  0.00  0.00    -0.150 OA
ATOM      9  O   UNL     1      -5.948  -2.349  -1.384  0.00  0.00    -0.150 OA
BRANCH   7  10
ATOM     10  N   UNL     1      -7.356  -3.779   0.058  0.00  0.00    -0.216 N 
ATOM     11  H   UNL     1      -7.124  -4.508  -0.539  0.00  0.00    +0.174 HD
BRANCH  10  12
ATOM     12  C   UNL     1      -8.209  -4.007   1.140  0.00  0.00    +0.049 A 
ATOM     13  C   UNL     1      -9.392  -4.712   0.958  0.00  0.00    +0.024 A 
ATOM     14  C   UNL     1     -10.233  -4.936   2.030  0.00  0.00    +0.003 A 
ATOM     15  C   UNL     1      -9.900  -4.460   3.284  0.00  0.00    +0.020 A 
ATOM     16  C   UNL     1      -8.722  -3.757   3.470  0.00  0.00    +0.043 A 
ATOM     17  C   UNL     1      -7.873  -3.533   2.402  0.00  0.00    +0.044 A 
ATOM     18 CL   UNL     1      -8.307  -3.161   5.047  0.00  0.00    -0.083 Cl
ENDBRANCH  10  12
ENDBRANCH   7  10
ENDBRANCH   3   7
BRANCH   1  19
ATOM     19  N   UNL     1      -2.175  -2.655   2.122  0.00  0.00    -0.213 N 
ATOM     20  H   UNL     1      -1.736  -2.897   2.952  0.00  0.00    +0.174 HD
BRANCH  19  21
ATOM     21  S   UNL     1      -1.382  -2.847   0.680  0.00  0.00    +0.066 S 
ATOM     22  O   UNL     1      -2.230  -3.630  -0.148  0.00  0.00    -0.151 OA
ATOM     23  O   UNL     1      -0.053  -3.239   0.997  0.00  0.00    -0.151 OA
BRANCH  21  25
ATOM     24  C   UNL     1      -0.090  -0.681  -0.234  0.00  0.00    +0.028 C 
ATOM     25  C   UNL     1      -1.273  -1.257  -0.070  0.00  0.00    +0.157 C 
BRANCH  24  29
ATOM     26  C   UNL     1       0.152   3.281  -1.745  0.00  0.00    +0.000 A 
ATOM     27  C   UNL     1       1.299   2.634  -1.322  0.00  0.00    +0.001 A 
ATOM     28  C   UNL     1       1.228   1.347  -0.830  0.00  0.00    +0.008 A 
ATOM     29  C   UNL     1      -0.006   0.698  -0.760  0.00  0.00    -0.024 A 
ATOM     30  C   UNL     1      -1.158   1.354  -1.194  0.00  0.00    +0.008 A 
ATOM     31  C   UNL     1      -1.074   2.643  -1.677  0.00  0.00    +0.001 A 
ENDBRANCH  24  29
ENDBRANCH  21  25
ENDBRANCH  19  21
ENDBRANCH   1  19
BRANCH   6  32
ATOM     32  O   UNL     1      -3.052  -1.080   4.234  0.00  0.00    -0.505 OA
ATOM     33  H   UNL     1      -2.528  -0.278   4.106  0.00  0.00    +0.292 HD
ENDBRANCH   6  32
TORSDOF 8
