REMARK  Name = ZINC47289709
REMARK  5 active torsions:
REMARK  status: ('A' for Active; 'I' for Inactive)
REMARK    1  A    between atoms: C_1  and  C_2
REMARK    2  A    between atoms: C_2  and  C_4
REMARK    3  A    between atoms: C_2  and  N_12
REMARK    4  A    between atoms: C_13  and  C_15
REMARK    5  A    between atoms: C_18  and  C_21
REMARK                            x       y       z     vdW  Elec       q    Type
REMARK                         _______ _______ _______ _____ _____    ______ ____
ROOT
ATOM      1  N   UNL     1      -1.415  -0.369   0.057  0.00  0.00    -0.300 N 
ATOM      2  C   UNL     1      -2.030  -0.508   1.248  0.00  0.00    +0.245 C 
ATOM      3  O   UNL     1      -1.407  -0.330   2.277  0.00  0.00    -0.270 OA
ATOM      4  H   UNL     1      -1.912  -0.512  -0.764  0.00  0.00    +0.150 HD
ENDROOT
BRANCH   2   5
ATOM      5  C   UNL     1      -3.461  -0.878   1.304  0.00  0.00    +0.037 A 
ATOM      6  C   UNL     1      -4.174  -1.089   0.122  0.00  0.00    +0.014 A 
ATOM      7  C   UNL     1      -5.506  -1.433   0.174  0.00  0.00    +0.019 A 
ATOM      8  C   UNL     1      -6.144  -1.571   1.409  0.00  0.00    +0.052 A 
ATOM      9  C   UNL     1      -5.431  -1.361   2.591  0.00  0.00    +0.019 A 
ATOM     10  C   UNL     1      -4.097  -1.022   2.539  0.00  0.00    +0.014 A 
BRANCH   8  11
ATOM     11  C   UNL     1      -7.530  -1.929   1.463  0.00  0.00    +0.099 C 
ATOM     12  N   UNL     1      -8.629  -2.212   1.506  0.00  0.00    -0.191 NA
ENDBRANCH   8  11
ENDBRANCH   2   5
BRANCH   1  14
ATOM     13  C   UNL     1       0.139   1.518   0.085  0.00  0.00    +0.038 C 
ATOM     14  C   UNL     1       0.002  -0.003   0.002  0.00  0.00    +0.156 C 
BRANCH  14  15
ATOM     15  C   UNL     1       0.597  -0.491  -1.294  0.00  0.00    +0.236 C 
ATOM     16  O   UNL     1      -0.128  -0.785  -2.221  0.00  0.00    -0.274 OA
ATOM     17  N   UNL     1       1.934  -0.601  -1.423  0.00  0.00    -0.300 N 
ATOM     18  C   UNL     1       2.819  -0.361  -0.274  0.00  0.00    +0.108 C 
ATOM     19  C   UNL     1       3.736  -1.575  -0.096  0.00  0.00    +0.019 C 
ATOM     20  C   UNL     1       4.471  -1.851  -1.409  0.00  0.00    +0.003 C 
ATOM     21  C   UNL     1       3.455  -2.171  -2.508  0.00  0.00    +0.019 C 
ATOM     22  C   UNL     1       2.534  -0.969  -2.712  0.00  0.00    +0.108 C 
ENDBRANCH  14  15
ENDBRANCH   1  14
TORSDOF 4
