REMARK  Name = ZINC40553572
REMARK  4 active torsions:
REMARK  status: ('A' for Active; 'I' for Inactive)
REMARK    1  A    between atoms: C_1  and  C_2
REMARK    2  A    between atoms: C_2  and  C_4
REMARK    3  A    between atoms: C_2  and  N_15
REMARK    4  A    between atoms: C_16  and  C_18
REMARK                            x       y       z     vdW  Elec       q    Type
REMARK                         _______ _______ _______ _____ _____    ______ ____
ROOT
ATOM      1  C   UNL     1      -0.019   1.526   0.010  0.00  0.00    +0.033 C 
ATOM      2  C   UNL     1       0.002  -0.004   0.002  0.00  0.00    +0.100 C 
ENDROOT
BRANCH   2   3
ATOM      3  C   UNL     1       0.707  -0.490  -1.238  0.00  0.00    -0.027 A 
ATOM      4  C   UNL     1       0.036  -0.521  -2.446  0.00  0.00    +0.007 A 
ATOM      5  C   UNL     1       0.679  -0.965  -3.585  0.00  0.00    +0.024 A 
ATOM      6  C   UNL     1       2.002  -1.381  -3.515  0.00  0.00    +0.037 A 
ATOM      7  C   UNL     1       2.673  -1.349  -2.300  0.00  0.00    -0.025 A 
ATOM      8  C   UNL     1       2.026  -0.899  -1.166  0.00  0.00    +0.011 A 
ATOM      9  C   UNL     1       4.109  -1.800  -2.224  0.00  0.00    +0.046 C 
ATOM     10  C   UNL     1       4.339  -2.941  -3.215  0.00  0.00    +0.101 C 
ATOM     11  C   UNL     1       3.780  -2.570  -4.562  0.00  0.00    +0.218 C 
ATOM     12  O   UNL     1       4.346  -2.941  -5.569  0.00  0.00    -0.275 OA
ATOM     13  N   UNL     1       2.659  -1.832  -4.663  0.00  0.00    -0.285 N 
ATOM     14  H   UNL     1       2.305  -1.612  -5.539  0.00  0.00    +0.155 HD
ENDBRANCH   2   3
BRANCH   2  15
ATOM     15  N   UNL     1      -1.372  -0.511   0.012  0.00  0.00    -0.305 N 
ATOM     16  C   UNL     1      -2.029  -0.655   1.181  0.00  0.00    +0.244 C 
ATOM     17  O   UNL     1      -1.479  -0.364   2.227  0.00  0.00    -0.270 OA
ATOM     18  H   UNL     1      -1.810  -0.743  -0.822  0.00  0.00    +0.150 HD
BRANCH  16  19
ATOM     19  C   UNL     1      -3.401  -1.161   1.191  0.00  0.00    +0.052 C 
ATOM     20  C   UNL     1      -4.066  -1.302   2.364  0.00  0.00    +0.023 C 
ATOM     21  C   UNL     1      -5.436  -1.835   2.318  0.00  0.00    +0.017 A 
ATOM     22  C   UNL     1      -6.304  -1.707   3.402  0.00  0.00    +0.011 A 
ATOM     23  C   UNL     1      -7.581  -2.221   3.314  0.00  0.00    +0.001 A 
ATOM     24  C   UNL     1      -8.001  -2.861   2.159  0.00  0.00    +0.004 A 
ATOM     25  C   UNL     1      -7.149  -2.993   1.078  0.00  0.00    +0.046 A 
ATOM     26  C   UNL     1      -5.864  -2.484   1.147  0.00  0.00    +0.128 A 
ATOM     27  O   UNL     1      -5.004  -2.598   0.106  0.00  0.00    -0.487 OA
ATOM     28  C   UNL     1      -4.083  -1.523  -0.102  0.00  0.00    +0.269 C 
ENDBRANCH  16  19
ENDBRANCH   2  15
TORSDOF 3
