REMARK  Name = ZINC09376696
REMARK  5 active torsions:
REMARK  status: ('A' for Active; 'I' for Inactive)
REMARK    1  A    between atoms: C_4  and  C_7
REMARK    2  A    between atoms: C_7  and  C_9
REMARK    3  A    between atoms: C_7  and  N_58
REMARK    4  A    between atoms: N_11  and  C_12
REMARK    5  A    between atoms: C_21  and  N_24
REMARK                            x       y       z     vdW  Elec       q    Type
REMARK                         _______ _______ _______ _____ _____    ______ ____
ROOT
ATOM      1  C   UNL     1       1.154   3.587   0.009  0.00  0.00    +0.050 C 
ENDROOT
BRANCH   1   7
ATOM      2  C   UNL     1       2.088   3.523   2.241  0.00  0.00    -0.075 C 
ATOM      3  C   UNL     1       3.286   3.951   3.091  0.00  0.00    +0.007 C 
ATOM      4  C   UNL     1       3.335   5.480   3.161  0.00  0.00    +0.089 C 
ATOM      5  C   UNL     1       3.418   6.046   1.741  0.00  0.00    +0.007 C 
ATOM      6  C   UNL     1       2.216   5.557   0.931  0.00  0.00    -0.075 C 
ATOM      7  N   UNL     1       2.240   4.080   0.880  0.00  0.00    +0.390 N 
ATOM      8  H   UNL     1       3.142   3.775   0.495  0.00  0.00    -0.080 HD
BRANCH   4   9
ATOM      9  N   UNL     1       4.513   5.899   3.925  0.00  0.00    -0.289 N 
ATOM     10  C   UNL     1       4.499   6.656   5.094  0.00  0.00    +0.070 A 
ATOM     11  C   UNL     1       3.483   7.214   5.855  0.00  0.00    +0.028 A 
ATOM     12  C   UNL     1       3.792   7.932   6.994  0.00  0.00    +0.002 A 
ATOM     13  C   UNL     1       5.111   8.096   7.379  0.00  0.00    +0.002 A 
ATOM     14  C   UNL     1       6.130   7.543   6.628  0.00  0.00    +0.028 A 
ATOM     15  C   UNL     1       5.830   6.822   5.483  0.00  0.00    +0.067 A 
ATOM     16  N   UNL     1       6.611   6.160   4.538  0.00  0.00    -0.306 N 
ATOM     17  H   UNL     1       7.579   6.100   4.543  0.00  0.00    +0.170 HD
ATOM     18  C   UNL     1       5.793   5.612   3.620  0.00  0.00    +0.328 A 
ATOM     19  O   UNL     1       6.155   4.960   2.659  0.00  0.00    -0.247 OA
ENDBRANCH   4   9
ENDBRANCH   1   7
BRANCH   1  23
ATOM     20  C   UNL     1       1.239  -0.684  -0.033  0.00  0.00    +0.000 A 
ATOM     21  C   UNL     1       0.028  -0.017  -0.013  0.00  0.00    +0.000 A 
ATOM     22  C   UNL     1       0.001   1.365   0.000  0.00  0.00    +0.002 A 
ATOM     23  C   UNL     1       1.184   2.080  -0.006  0.00  0.00    -0.052 A 
ATOM     24  C   UNL     1       2.395   1.413  -0.025  0.00  0.00    +0.002 A 
ATOM     25  C   UNL     1       2.422   0.031  -0.039  0.00  0.00    +0.000 A 
ENDBRANCH   1  23
BRANCH   1  26
ATOM     26  C   UNL     1       1.376   4.106  -1.389  0.00  0.00    +0.208 C 
ATOM     27  O   UNL     1       2.324   4.825  -1.625  0.00  0.00    -0.277 OA
ATOM     28  N   UNL     1       0.521   3.773  -2.375  0.00  0.00    -0.287 N 
ATOM     29  H   UNL     1      -0.198   3.146  -2.203  0.00  0.00    +0.155 HD
BRANCH  28  30
ATOM     30  C   UNL     1       0.671   4.332  -3.650  0.00  0.00    +0.034 A 
ATOM     31  C   UNL     1      -0.449   4.620  -4.419  0.00  0.00    +0.026 A 
ATOM     32  C   UNL     1      -0.299   5.177  -5.674  0.00  0.00    +0.040 A 
ATOM     33  C   UNL     1       0.967   5.438  -6.170  0.00  0.00    +0.124 A 
ATOM     34  C   UNL     1       2.086   5.146  -5.407  0.00  0.00    +0.040 A 
ATOM     35  C   UNL     1       1.940   4.595  -4.150  0.00  0.00    +0.026 A 
ATOM     36  F   UNL     1       1.112   5.978  -7.400  0.00  0.00    -0.205 F 
ENDBRANCH  28  30
ENDBRANCH   1  26
TORSDOF 5
