REMARK  Name = ZINC22742313
REMARK  6 active torsions:
REMARK  status: ('A' for Active; 'I' for Inactive)
REMARK    1  A    between atoms: C_6  and  C_7
REMARK    2  A    between atoms: C_10  and  C_12
REMARK    3  A    between atoms: C_13  and  C_14
REMARK    4  A    between atoms: N_16  and  C_17
REMARK    5  A    between atoms: C_17  and  N_19
REMARK    6  A    between atoms: C_25  and  N_29
REMARK                            x       y       z     vdW  Elec       q    Type
REMARK                         _______ _______ _______ _____ _____    ______ ____
ROOT
ATOM      1  C   UNL     1      -6.754   0.369   0.053  0.00  0.00    +0.242 C 
ATOM      2  O   UNL     1      -7.484  -0.605   0.057  0.00  0.00    -0.270 OA
ATOM      3  N   UNL     1      -7.283   1.608   0.059  0.00  0.00    -0.264 N 
ATOM      4  H   UNL     1      -6.700   2.384   0.056  0.00  0.00    +0.157 HD
ENDROOT
BRANCH   1   6
ATOM      5  C   UNL     1      -4.818  -1.051   0.037  0.00  0.00    +0.051 C 
ATOM      6  C   UNL     1      -5.351   0.199   0.043  0.00  0.00    +0.071 C 
BRANCH   5  10
ATOM      7  C   UNL     1      -1.264  -0.762   0.011  0.00  0.00    +0.136 A 
ATOM      8  C   UNL     1      -1.379  -2.134   0.010  0.00  0.00    +0.050 A 
ATOM      9  C   UNL     1      -2.745  -2.429   0.020  0.00  0.00    +0.050 A 
ATOM     10  C   UNL     1      -3.415  -1.220   0.027  0.00  0.00    +0.129 A 
ATOM     11  O   UNL     1      -2.498  -0.229   0.026  0.00  0.00    -0.455 OA
BRANCH   7  17
ATOM     12  C   UNL     1      -0.017   1.393   0.010  0.00  0.00    +0.013 A 
ATOM     13  C   UNL     1       1.170   2.095   0.002  0.00  0.00    +0.021 A 
ATOM     14  C   UNL     1       2.378   1.419  -0.013  0.00  0.00    +0.041 A 
ATOM     15  C   UNL     1       2.404   0.035  -0.021  0.00  0.00    +0.021 A 
ATOM     16  C   UNL     1       1.225  -0.680  -0.014  0.00  0.00    +0.013 A 
ATOM     17  C   UNL     1       0.002  -0.004   0.002  0.00  0.00    +0.017 A 
ATOM     18 CL   UNL     1       3.868   2.311  -0.023  0.00  0.00    -0.084 Cl
ENDBRANCH   7  17
ENDBRANCH   5  10
ENDBRANCH   1   6
BRANCH   3  19
ATOM     19  C   UNL     1      -8.621   1.770   0.069  0.00  0.00    +0.143 C 
ATOM     20  S   UNL     1      -9.648   0.400   0.074  0.00  0.00    -0.018 S 
BRANCH  19  21
ATOM     21  N   UNL     1      -9.150   3.009   0.074  0.00  0.00    -0.276 N 
ATOM     22  C   UNL     1     -10.524   3.175   0.085  0.00  0.00    +0.165 A 
ATOM     23  N   UNL     1     -11.464   2.259   0.096  0.00  0.00    -0.225 NA
ATOM     24  C   UNL     1     -12.779   2.568   0.105  0.00  0.00    +0.080 A 
ATOM     25  C   UNL     1     -13.883   1.685   0.117  0.00  0.00    +0.031 A 
ATOM     26  C   UNL     1     -15.166   2.167   0.125  0.00  0.00    +0.035 A 
ATOM     27  C   UNL     1     -15.428   3.530   0.120  0.00  0.00    +0.127 A 
ATOM     28  C   UNL     1     -14.371   4.422   0.109  0.00  0.00    +0.050 A 
ATOM     29  C   UNL     1     -13.084   3.948   0.102  0.00  0.00    +0.043 A 
ATOM     30  S   UNL     1     -11.470   4.692   0.093  0.00  0.00    -0.052 S 
ATOM     31  H   UNL     1      -8.568   3.785   0.071  0.00  0.00    +0.156 HD
BRANCH  27  32
ATOM     32  N   UNL     1     -16.823   4.023   0.128  0.00  0.00    +0.056 N 
ATOM     33  O   UNL     1     -17.742   3.237   0.138  0.00  0.00    -0.126 OA
ATOM     34  O   UNL     1     -17.044   5.212   0.124  0.00  0.00    -0.126 OA
ENDBRANCH  27  32
ENDBRANCH  19  21
ENDBRANCH   3  19
TORSDOF 6
