REMARK  Name = ZINC12223350
REMARK  6 active torsions:
REMARK  status: ('A' for Active; 'I' for Inactive)
REMARK    1  A    between atoms: C_1  and  S_2
REMARK    2  A    between atoms: S_2  and  C_3
REMARK    3  A    between atoms: N_16  and  C_17
REMARK    4  A    between atoms: C_17  and  C_18
REMARK    5  A    between atoms: C_18  and  N_19
REMARK    6  A    between atoms: N_19  and  C_20
REMARK                            x       y       z     vdW  Elec       q    Type
REMARK                         _______ _______ _______ _____ _____    ______ ____
ROOT
ATOM      1  C   UNL     1      -1.724  -0.449  -0.204  0.00  0.00    +0.191 A 
ATOM      2  N   UNL     1      -2.058  -1.734  -0.195  0.00  0.00    -0.206 NA
ATOM      3  C   UNL     1      -3.297  -2.136   0.028  0.00  0.00    +0.132 A 
ATOM      4  C   UNL     1      -4.311  -1.167   0.265  0.00  0.00    +0.051 A 
ATOM      5  C   UNL     1      -5.737  -1.378   0.530  0.00  0.00    -0.025 A 
ATOM      6  C   UNL     1      -6.492  -0.280   0.723  0.00  0.00    -0.004 A 
ATOM      7  S   UNL     1      -5.372   1.086   0.569  0.00  0.00    -0.073 S 
ATOM      8  C   UNL     1      -3.885   0.176   0.241  0.00  0.00    +0.115 A 
ATOM      9  N   UNL     1      -2.626   0.498   0.017  0.00  0.00    -0.215 NA
ATOM     10  C   UNL     1      -7.963  -0.228   1.007  0.00  0.00    +0.043 C 
ATOM     11  C   UNL     1      -8.569  -1.600   0.678  0.00  0.00    +0.005 C 
ATOM     12  C   UNL     1      -7.698  -2.686   1.317  0.00  0.00    +0.005 C 
ATOM     13  C   UNL     1      -6.357  -2.772   0.587  0.00  0.00    +0.037 C 
ATOM     14  N   UNL     1      -3.605  -3.485   0.029  0.00  0.00    -0.327 N 
ATOM     15  H   UNL     1      -4.528  -3.771   0.110  0.00  0.00    +0.148 HD
ENDROOT
BRANCH   1  17
ATOM     16  C   UNL     1      -0.064   1.819  -0.419  0.00  0.00    +0.093 C 
ATOM     17  S   UNL     1      -0.049   0.007  -0.508  0.00  0.00    -0.089 S 
ENDBRANCH   1  17
BRANCH  14  18
ATOM     18  C   UNL     1      -2.537  -4.480  -0.091  0.00  0.00    +0.121 C 
BRANCH  18  19
ATOM     19  C   UNL     1      -3.143  -5.885  -0.063  0.00  0.00    +0.120 C 
BRANCH  19  20
ATOM     20  N   UNL     1      -2.075  -6.880  -0.184  0.00  0.00    -0.342 N 
ATOM     21  H   UNL     1      -1.152  -6.593  -0.264  0.00  0.00    +0.146 HD
BRANCH  20  22
ATOM     22  C   UNL     1      -2.385  -8.238  -0.182  0.00  0.00    +0.035 A 
ATOM     23  C   UNL     1      -3.696  -8.652  -0.074  0.00  0.00    +0.023 A 
ATOM     24  C   UNL     1      -4.016 -10.007  -0.072  0.00  0.00    +0.002 A 
ATOM     25  C   UNL     1      -3.048 -10.958  -0.177  0.00  0.00    +0.008 A 
ATOM     26  C   UNL     1      -1.700 -10.578  -0.289  0.00  0.00    -0.016 A 
ATOM     27  C   UNL     1      -1.361  -9.203  -0.298  0.00  0.00    +0.003 A 
ATOM     28  C   UNL     1      -0.015  -8.825  -0.415  0.00  0.00    +0.010 A 
ATOM     29  C   UNL     1       0.947  -9.783  -0.525  0.00  0.00    +0.001 A 
ATOM     30  C   UNL     1       0.615 -11.136  -0.522  0.00  0.00    +0.001 A 
ATOM     31  C   UNL     1      -0.679 -11.539  -0.398  0.00  0.00    +0.008 A 
ENDBRANCH  20  22
ENDBRANCH  19  20
ENDBRANCH  18  19
ENDBRANCH  14  18
TORSDOF 5
