REMARK  Name = ZINC58169438
REMARK  5 active torsions:
REMARK  status: ('A' for Active; 'I' for Inactive)
REMARK    1  A    between atoms: C_1  and  C_2
REMARK    2  A    between atoms: C_14  and  C_24
REMARK    3  A    between atoms: C_22  and  O_23
REMARK    4  A    between atoms: C_24  and  O_26
REMARK    5  A    between atoms: O_26  and  C_27
REMARK                            x       y       z     vdW  Elec       q    Type
REMARK                         _______ _______ _______ _____ _____    ______ ____
ROOT
ATOM      1  C   UNL     1      -0.018   1.503   0.010  0.00  0.00    +0.035 C 
ATOM      2  C   UNL     1       0.002  -0.004   0.002  0.00  0.00    -0.029 C 
ATOM      3  C   UNL     1       0.569  -0.646  -0.989  0.00  0.00    -0.052 C 
ATOM      4  C   UNL     1       0.598  -2.147  -1.026  0.00  0.00    +0.115 C 
ATOM      5  N   UNL     1       0.188  -2.676  -2.340  0.00  0.00    -0.294 NA
ATOM      6  C   UNL     1       0.859  -4.024  -2.394  0.00  0.00    +0.086 C 
ATOM      7  C   UNL     1       2.348  -3.636  -2.581  0.00  0.00    +0.034 C 
ATOM      8  C   UNL     1       2.285  -2.350  -3.433  0.00  0.00    +0.053 C 
ATOM      9  C   UNL     1       0.814  -1.970  -3.481  0.00  0.00    +0.074 C 
ATOM     10  C   UNL     1       0.607  -0.466  -3.430  0.00  0.00    +0.033 C 
ATOM     11  C   UNL     1       1.208   0.098  -2.135  0.00  0.00    +0.056 C 
ATOM     12  C   UNL     1       2.698  -0.168  -2.173  0.00  0.00    +0.062 C 
ATOM     13  C   UNL     1       3.128  -1.244  -2.868  0.00  0.00    +0.031 C 
ATOM     14  N   UNL     1       4.360  -1.405  -3.445  0.00  0.00    -0.314 N 
ATOM     15  C   UNL     1       4.205  -2.047  -4.669  0.00  0.00    +0.077 A 
ATOM     16  C   UNL     1       2.929  -2.633  -4.750  0.00  0.00    -0.009 A 
ATOM     17  C   UNL     1       2.499  -3.301  -5.874  0.00  0.00    +0.006 A 
ATOM     18  C   UNL     1       3.397  -3.408  -6.931  0.00  0.00    +0.004 A 
ATOM     19  C   UNL     1       4.666  -2.872  -6.854  0.00  0.00    +0.047 A 
ATOM     20  C   UNL     1       5.106  -2.186  -5.727  0.00  0.00    +0.138 A 
ATOM     21  H   UNL     1       5.204  -1.118  -3.062  0.00  0.00    +0.152 HD
ENDROOT
BRANCH  20  22
ATOM     22  O   UNL     1       6.363  -1.669  -5.659  0.00  0.00    -0.505 OA
ATOM     23  H   UNL     1       7.018  -2.277  -5.291  0.00  0.00    +0.292 HD
ENDBRANCH  20  22
BRANCH  12  24
ATOM     24  C   UNL     1       3.607   0.676  -1.499  0.00  0.00    +0.337 C 
ATOM     25  O   UNL     1       4.801   0.442  -1.543  0.00  0.00    -0.245 OA
BRANCH  24  26
ATOM     26  O   UNL     1       3.153   1.741  -0.805  0.00  0.00    -0.465 OA
ATOM     27  C   UNL     1       4.130   2.551  -0.148  0.00  0.00    +0.280 C 
ENDBRANCH  24  26
ENDBRANCH  12  24
TORSDOF 3
