REMARK  Name = ZINC28051889
REMARK  8 active torsions:
REMARK  status: ('A' for Active; 'I' for Inactive)
REMARK    1  A    between atoms: C_1  and  C_2
REMARK    2  A    between atoms: C_5  and  C_8
REMARK    3  A    between atoms: C_13  and  C_22
REMARK    4  A    between atoms: C_16  and  C_21
REMARK    5  A    between atoms: C_26  and  O_30
REMARK    6  A    between atoms: C_27  and  O_28
REMARK    7  A    between atoms: O_28  and  C_29
REMARK    8  A    between atoms: O_30  and  C_31
REMARK                            x       y       z     vdW  Elec       q    Type
REMARK                         _______ _______ _______ _____ _____    ______ ____
ROOT
ATOM      1  C   UNL     1       6.043   0.814  -4.135  0.00  0.00    +0.032 C 
ATOM      2  C   UNL     1       6.180   1.683  -2.884  0.00  0.00    +0.059 C 
ATOM      3  C   UNL     1       5.684   0.919  -1.677  0.00  0.00    +0.019 C 
ATOM      4  C   UNL     1       4.687   0.017  -1.795  0.00  0.00    +0.024 C 
ATOM      5  C   UNL     1       4.144  -0.751  -0.607  0.00  0.00    +0.094 C 
ATOM      6  C   UNL     1       5.071  -0.589   0.555  0.00  0.00    +0.049 A 
ATOM      7  C   UNL     1       5.168  -1.250   1.777  0.00  0.00    +0.087 A 
ATOM      8  N   UNL     1       6.168  -0.692   2.413  0.00  0.00    -0.081 NA
ATOM      9  O   UNL     1       6.681   0.198   1.761  0.00  0.00    -0.339 OA
ATOM     10  C   UNL     1       6.076   0.343   0.587  0.00  0.00    +0.226 A 
ATOM     11  N   UNL     1       6.292   1.196  -0.475  0.00  0.00    -0.286 N 
ATOM     12  C   UNL     1       4.299  -2.379   2.268  0.00  0.00    +0.069 C 
ATOM     13  C   UNL     1       4.101  -0.254  -3.045  0.00  0.00    +0.162 C 
ATOM     14  O   UNL     1       3.196  -1.063  -3.114  0.00  0.00    -0.292 OA
ATOM     15  C   UNL     1       4.568   0.433  -4.298  0.00  0.00    +0.088 C 
ATOM     16  H   UNL     1       6.936   2.082  -0.376  0.00  0.00    +0.155 HD
ENDROOT
BRANCH   1  21
ATOM     17  C   UNL     1       7.812   3.778  -8.770  0.00  0.00    +0.044 C 
ATOM     18  C   UNL     1       7.351   3.005  -7.561  0.00  0.00    -0.050 A 
ATOM     19  C   UNL     1       7.981   1.825  -7.213  0.00  0.00    +0.003 A 
ATOM     20  C   UNL     1       7.558   1.116  -6.104  0.00  0.00    +0.004 A 
ATOM     21  C   UNL     1       6.505   1.587  -5.343  0.00  0.00    -0.043 A 
ATOM     22  C   UNL     1       5.871   2.765  -5.694  0.00  0.00    +0.004 A 
ATOM     23  C   UNL     1       6.298   3.477  -6.799  0.00  0.00    +0.003 A 
ENDBRANCH   1  21
BRANCH   5  24
ATOM     24  C   UNL     1       2.783  -0.216  -0.243  0.00  0.00    +0.010 A 
ATOM     25  C   UNL     1       1.742  -1.090   0.012  0.00  0.00    +0.008 A 
ATOM     26  C   UNL     1       0.492  -0.603   0.346  0.00  0.00    +0.004 A 
ATOM     27  C   UNL     1       0.278   0.761   0.427  0.00  0.00    +0.049 A 
ATOM     28  C   UNL     1       1.316   1.642   0.173  0.00  0.00    +0.162 A 
ATOM     29  C   UNL     1       2.574   1.151  -0.163  0.00  0.00    +0.166 A 
BRANCH  29  30
ATOM     30  O   UNL     1       3.597   2.012  -0.413  0.00  0.00    -0.491 OA
ATOM     31  C   UNL     1       4.271   2.564   0.719  0.00  0.00    +0.277 C 
ENDBRANCH  29  30
BRANCH  28  32
ATOM     32  O   UNL     1       1.106   2.983   0.253  0.00  0.00    -0.491 OA
ATOM     33  C   UNL     1      -0.210   3.414   0.604  0.00  0.00    +0.277 C 
ENDBRANCH  28  32
ENDBRANCH   5  24
TORSDOF 4
