REMARK  Name = ZINC00647863
REMARK  11 active torsions:
REMARK  status: ('A' for Active; 'I' for Inactive)
REMARK    1  A    between atoms: C_1  and  C_2
REMARK    2  A    between atoms: C_4  and  C_37
REMARK    3  A    between atoms: C_5  and  C_18
REMARK    4  A    between atoms: C_6  and  C_17
REMARK    5  A    between atoms: C_7  and  C_8
REMARK    6  A    between atoms: C_8  and  O_9
REMARK    7  A    between atoms: O_9  and  C_10
REMARK    8  A    between atoms: C_27  and  C_35
REMARK    9  A    between atoms: C_28  and  N_34
REMARK   10  A    between atoms: C_29  and  C_30
REMARK   11  A    between atoms: C_29  and  C_32
REMARK                            x       y       z     vdW  Elec       q    Type
REMARK                         _______ _______ _______ _____ _____    ______ ____
ROOT
ATOM      1  C   UNL     1      -0.546  10.855  -2.367  0.00  0.00    +0.067 C 
ATOM      2  C   UNL     1      -0.546   9.904  -3.565  0.00  0.00    +0.030 C 
ATOM      3  C   UNL     1       0.678   9.020  -3.589  0.00  0.00    +0.009 C 
ATOM      4  C   UNL     1       0.381   7.618  -3.062  0.00  0.00    +0.005 C 
ATOM      5  C   UNL     1      -0.733   7.004  -3.921  0.00  0.00    +0.027 C 
ATOM      6  C   UNL     1      -1.959   7.867  -3.766  0.00  0.00    -0.022 C 
ATOM      7  C   UNL     1      -1.852   9.168  -3.582  0.00  0.00    -0.029 C 
ATOM      8  C   UNL     1      -3.081   9.979  -3.375  0.00  0.00    +0.074 C 
ATOM      9  C   UNL     1      -2.969  11.239  -2.886  0.00  0.00    +0.054 C 
ATOM     10  C   UNL     1      -1.658  11.888  -2.557  0.00  0.00    +0.188 C 
ENDROOT
BRANCH   1  15
ATOM     11  C   UNL     1      -1.503   7.863   2.483  0.00  0.00    +0.044 C 
ATOM     12  C   UNL     1      -1.251   8.643   1.218  0.00  0.00    -0.044 A 
ATOM     13  C   UNL     1      -0.845   9.963   1.289  0.00  0.00    +0.007 A 
ATOM     14  C   UNL     1      -0.618  10.679   0.129  0.00  0.00    -0.046 A 
ATOM     15  C   UNL     1      -0.794  10.074  -1.103  0.00  0.00    -0.035 A 
ATOM     16  C   UNL     1      -1.195   8.754  -1.173  0.00  0.00    -0.040 A 
ATOM     17  C   UNL     1      -1.421   8.037  -0.013  0.00  0.00    -0.004 A 
ATOM     18  C   UNL     1      -1.387   8.095  -2.515  0.00  0.00    +0.044 C 
ATOM     19  C   UNL     1      -0.179  12.118   0.205  0.00  0.00    +0.044 C 
BRANCH  17  20
ATOM     20  C   UNL     1      -1.859   6.597  -0.090  0.00  0.00    +0.265 C 
BRANCH  20  21
ATOM     21  O   UNL     1      -0.709   5.750  -0.105  0.00  0.00    -0.487 OA
BRANCH  21  22
ATOM     22  C   UNL     1      -0.930   4.410  -0.173  0.00  0.00    +0.121 A 
ATOM     23  C   UNL     1       0.142   3.529  -0.192  0.00  0.00    +0.047 A 
ATOM     24  C   UNL     1      -0.085   2.168  -0.261  0.00  0.00    +0.023 A 
ATOM     25  C   UNL     1      -1.380   1.684  -0.312  0.00  0.00    +0.041 A 
ATOM     26  C   UNL     1      -2.450   2.561  -0.298  0.00  0.00    +0.023 A 
ATOM     27  C   UNL     1      -2.227   3.922  -0.224  0.00  0.00    +0.047 A 
ATOM     28 CL   UNL     1      -1.663  -0.027  -0.399  0.00  0.00    -0.084 Cl
ENDBRANCH  21  22
ENDBRANCH  20  21
ENDBRANCH  17  20
ENDBRANCH   1  15
BRANCH   9  29
ATOM     29  N   UNL     1      -4.114  11.957  -2.682  0.00  0.00    -0.358 N 
ATOM     30  H   UNL     1      -4.057  12.982  -2.286  0.00  0.00    +0.142 HD
ATOM     31  H   UNL     1      -5.091  11.510  -2.913  0.00  0.00    +0.142 HD
ENDBRANCH   9  29
BRANCH  10  32
ATOM     32  C   UNL     1      -1.806  12.668  -1.317  0.00  0.00    +0.091 C 
ATOM     33  N   UNL     1      -1.920  13.269  -0.360  0.00  0.00    -0.194 NA
ENDBRANCH  10  32
BRANCH  10  34
ATOM     34  C   UNL     1      -1.286  12.799  -3.652  0.00  0.00    +0.091 C 
ATOM     35  N   UNL     1      -0.998  13.501  -4.498  0.00  0.00    -0.194 NA
ENDBRANCH  10  34
BRANCH   8  36
ATOM     36  C   UNL     1      -4.369   9.436  -3.689  0.00  0.00    +0.101 C 
ATOM     37  N   UNL     1      -5.390   9.005  -3.937  0.00  0.00    -0.191 NA
ENDBRANCH   8  36
TORSDOF 8
