REMARK  Name = ZINC08792553
REMARK  8 active torsions:
REMARK  status: ('A' for Active; 'I' for Inactive)
REMARK    1  A    between atoms: C_1  and  S_2
REMARK    2  A    between atoms: S_2  and  C_3
REMARK    3  A    between atoms: C_3  and  C_4
REMARK    4  A    between atoms: C_4  and  C_5
REMARK    5  A    between atoms: C_5  and  C_7
REMARK    6  A    between atoms: C_5  and  N_17
REMARK    7  A    between atoms: N_9  and  C_10
REMARK    8  A    between atoms: C_10  and  C_11
REMARK                            x       y       z     vdW  Elec       q    Type
REMARK                         _______ _______ _______ _____ _____    ______ ____
ROOT
ATOM      1  C   UNL     1      -3.336  -2.376   0.030  0.00  0.00    +0.161 C 
ENDROOT
BRANCH   1   2
ATOM      2  N   UNL     1      -3.957  -1.946   1.285  0.00  0.00    -0.288 N 
ATOM      3  C   UNL     1      -4.430  -0.690   1.408  0.00  0.00    +0.308 C 
ATOM      4  O   UNL     1      -4.269   0.110   0.506  0.00  0.00    -0.252 OA
ATOM      5  N   UNL     1      -5.080  -0.321   2.529  0.00  0.00    -0.245 N 
ATOM      6  C   UNL     1      -5.196  -1.235   3.675  0.00  0.00    +0.211 C 
ATOM      7  C   UNL     1      -6.594  -1.150   4.232  0.00  0.00    +0.235 C 
ATOM      8  O   UNL     1      -7.079  -2.116   4.782  0.00  0.00    -0.274 OA
ATOM      9  N   UNL     1      -7.311  -0.015   4.127  0.00  0.00    -0.283 N 
ATOM     10  C   UNL     1      -6.794   1.097   3.453  0.00  0.00    +0.055 A 
ATOM     11  C   UNL     1      -5.663   0.951   2.643  0.00  0.00    +0.059 A 
ATOM     12  C   UNL     1      -5.140   2.040   1.970  0.00  0.00    +0.025 A 
ATOM     13  C   UNL     1      -5.735   3.282   2.106  0.00  0.00    +0.002 A 
ATOM     14  C   UNL     1      -6.848   3.435   2.912  0.00  0.00    +0.002 A 
ATOM     15  C   UNL     1      -7.387   2.342   3.583  0.00  0.00    +0.025 A 
ATOM     16  H   UNL     1      -4.028  -2.566   2.028  0.00  0.00    +0.151 HD
ATOM     17  H   UNL     1      -8.195   0.032   4.523  0.00  0.00    +0.155 HD
ENDBRANCH   1   2
BRANCH   1  18
ATOM     18  C   UNL     1      -3.453  -3.873  -0.101  0.00  0.00    +0.234 C 
ATOM     19  O   UNL     1      -4.000  -4.517   0.768  0.00  0.00    -0.274 OA
ATOM     20  N   UNL     1      -2.948  -4.496  -1.185  0.00  0.00    -0.310 N 
ATOM     21  H   UNL     1      -2.510  -3.981  -1.880  0.00  0.00    +0.149 HD
BRANCH  20  22
ATOM     22  C   UNL     1      -3.061  -5.951  -1.312  0.00  0.00    +0.141 C 
BRANCH  22  23
ATOM     23  C   UNL     1      -2.422  -6.393  -2.603  0.00  0.00    -0.012 A 
ATOM     24  C   UNL     1      -3.170  -6.463  -3.769  0.00  0.00    +0.008 A 
ATOM     25  C   UNL     1      -2.541  -6.875  -4.933  0.00  0.00    +0.020 A 
ATOM     26  C   UNL     1      -1.198  -7.200  -4.894  0.00  0.00    +0.111 A 
ATOM     27  N   UNL     1      -0.518  -7.122  -3.767  0.00  0.00    -0.263 NA
ATOM     28  C   UNL     1      -1.082  -6.729  -2.642  0.00  0.00    +0.115 A 
ENDBRANCH  22  23
ENDBRANCH  20  22
ENDBRANCH   1  18
BRANCH   1  29
ATOM     29  C   UNL     1      -1.859  -1.977   0.029  0.00  0.00    +0.042 C 
BRANCH  29  30
ATOM     30  C   UNL     1      -1.743  -0.452   0.036  0.00  0.00    +0.071 C 
BRANCH  30  32
ATOM     31  C   UNL     1      -0.027   1.835   0.044  0.00  0.00    +0.084 C 
ATOM     32  S   UNL     1       0.008   0.021   0.035  0.00  0.00    -0.164 S 
ENDBRANCH  30  32
ENDBRANCH  29  30
ENDBRANCH   1  29
TORSDOF 7
