REMARK  Name = ZINC39964700
REMARK  4 active torsions:
REMARK  status: ('A' for Active; 'I' for Inactive)
REMARK    1  A    between atoms: C_4  and  C_7
REMARK    2  A    between atoms: C_17  and  C_19
REMARK    3  A    between atoms: C_22  and  C_25
REMARK    4  A    between atoms: C_30  and  C_32
REMARK                            x       y       z     vdW  Elec       q    Type
REMARK                         _______ _______ _______ _____ _____    ______ ____
ROOT
ATOM      1  C   UNL     1       3.648  -0.649  -0.037  0.00  0.00    -0.014 C 
ATOM      2  C   UNL     1       4.861   0.036  -0.144  0.00  0.00    +0.002 A 
ATOM      3  C   UNL     1       4.888   1.444  -0.239  0.00  0.00    +0.030 A 
ATOM      4  C   UNL     1       6.083   2.086  -0.342  0.00  0.00    +0.042 A 
ATOM      5  C   UNL     1       7.286   1.381  -0.355  0.00  0.00    +0.022 A 
ATOM      6  C   UNL     1       7.323   0.023  -0.268  0.00  0.00    +0.025 A 
ATOM      7  C   UNL     1       6.126  -0.707  -0.158  0.00  0.00    +0.041 A 
ATOM      8  N   UNL     1       6.165  -2.041  -0.071  0.00  0.00    -0.284 N 
ATOM      9  C   UNL     1       5.089  -2.796   0.033  0.00  0.00    +0.230 C 
ATOM     10  O   UNL     1       5.200  -4.006   0.108  0.00  0.00    -0.274 OA
ATOM     11  C   UNL     1       3.718  -2.161   0.066  0.00  0.00    +0.152 C 
ATOM     12 CL   UNL     1       6.111   3.818  -0.459  0.00  0.00    -0.084 Cl
ATOM     13  H   UNL     1       7.032  -2.477  -0.085  0.00  0.00    +0.155 HD
ENDROOT
BRANCH  11  14
ATOM     14  C   UNL     1       3.045  -2.567   1.352  0.00  0.00    +0.056 C 
ATOM     15  N   UNL     1       2.594  -1.765   2.227  0.00  0.00    -0.184 NA
ATOM     16  N   UNL     1       2.013  -2.382   3.333  0.00  0.00    -0.176 N 
ATOM     17  C   UNL     1       2.096  -3.841   3.156  0.00  0.00    +0.173 C 
ATOM     18  C   UNL     1       2.800  -3.993   1.792  0.00  0.00    +0.086 C 
ATOM     19  C   UNL     1       1.467  -1.748   4.389  0.00  0.00    +0.302 C 
ATOM     20  O   UNL     1       0.986  -2.392   5.303  0.00  0.00    -0.265 OA
BRANCH  17  21
ATOM     21  C   UNL     1       2.913  -4.465   4.258  0.00  0.00    +0.128 A 
ATOM     22  C   UNL     1       2.657  -5.641   4.859  0.00  0.00    +0.046 A 
ATOM     23  C   UNL     1       3.670  -5.836   5.826  0.00  0.00    +0.041 A 
ATOM     24  C   UNL     1       4.484  -4.768   5.758  0.00  0.00    +0.195 A 
ATOM     25  O   UNL     1       4.025  -3.943   4.803  0.00  0.00    -0.466 OA
ENDBRANCH  17  21
BRANCH  19  26
ATOM     26  C   UNL     1       1.451  -0.283   4.437  0.00  0.00    +0.191 A 
ATOM     27  C   UNL     1       0.937   0.482   5.445  0.00  0.00    +0.054 A 
ATOM     28  C   UNL     1       1.135   1.822   5.076  0.00  0.00    +0.042 A 
ATOM     29  C   UNL     1       1.753   1.817   3.875  0.00  0.00    +0.196 A 
ATOM     30  O   UNL     1       1.947   0.547   3.496  0.00  0.00    -0.458 OA
ENDBRANCH  19  26
ENDBRANCH  11  14
BRANCH   1  34
ATOM     31  C   UNL     1      -0.016   1.382   0.010  0.00  0.00    +0.000 A 
ATOM     32  C   UNL     1       1.003   1.782   0.859  0.00  0.00    +0.001 A 
ATOM     33  C   UNL     1       2.211   1.121   0.851  0.00  0.00    +0.008 A 
ATOM     34  C   UNL     1       2.408   0.038  -0.021  0.00  0.00    -0.020 A 
ATOM     35  C   UNL     1       1.368  -0.360  -0.877  0.00  0.00    +0.008 A 
ATOM     36  C   UNL     1       0.167   0.315  -0.854  0.00  0.00    +0.001 A 
ENDBRANCH   1  34
TORSDOF 4
