REMARK  Name = ZINC09461976
REMARK  9 active torsions:
REMARK  status: ('A' for Active; 'I' for Inactive)
REMARK    1  A    between atoms: C_1  and  N_63
REMARK    2  A    between atoms: N_4  and  S_7
REMARK    3  A    between atoms: S_7  and  C_10
REMARK    4  A    between atoms: C_13  and  N_19
REMARK    5  A    between atoms: C_14  and  N_16
REMARK    6  A    between atoms: N_19  and  C_20
REMARK    7  A    between atoms: C_20  and  C_21
REMARK    8  A    between atoms: C_21  and  C_23
REMARK    9  A    between atoms: C_21  and  N_65
REMARK                            x       y       z     vdW  Elec       q    Type
REMARK                         _______ _______ _______ _____ _____    ______ ____
ROOT
ATOM      1  C   UNL     1      -3.731   2.845   0.132  0.00  0.00    +0.108 A 
ATOM      2  C   UNL     1      -2.571   3.596   0.089  0.00  0.00    +0.030 A 
ATOM      3  C   UNL     1      -1.342   2.968   0.025  0.00  0.00    +0.027 A 
ATOM      4  C   UNL     1      -1.274   1.581   0.004  0.00  0.00    +0.058 A 
ATOM      5  C   UNL     1      -2.442   0.830   0.041  0.00  0.00    +0.149 A 
ATOM      6  C   UNL     1      -3.667   1.464   0.111  0.00  0.00    +0.063 A 
ENDROOT
BRANCH   1   7
ATOM      7  S   UNL     1      -5.296   3.651   0.215  0.00  0.00    +0.061 S 
ATOM      8  O   UNL     1      -6.201   2.721   0.794  0.00  0.00    -0.153 OA
ATOM      9  O   UNL     1      -5.063   4.936   0.773  0.00  0.00    -0.153 OA
BRANCH   7  13
ATOM     10  C   UNL     1      -5.308   3.602  -5.500  0.00  0.00    -0.096 C 
ATOM     11  C   UNL     1      -5.959   2.593  -3.397  0.00  0.00    -0.062 C 
ATOM     12  C   UNL     1      -6.612   2.886  -2.042  0.00  0.00    +0.091 C 
ATOM     13  N   UNL     1      -5.803   3.896  -1.343  0.00  0.00    -0.180 NA
ATOM     14  C   UNL     1      -5.462   5.133  -2.061  0.00  0.00    +0.091 C 
ATOM     15  C   UNL     1      -4.850   4.750  -3.418  0.00  0.00    -0.062 C 
ATOM     16  N   UNL     1      -5.798   3.867  -4.131  0.00  0.00    +0.380 N 
ATOM     17  H   UNL     1      -6.710   4.335  -4.189  0.00  0.00    -0.082 HD
ENDBRANCH   7  13
ENDBRANCH   1   7
BRANCH   5  18
ATOM     18  N   UNL     1      -2.373  -0.648   0.011  0.00  0.00    +0.058 N 
ATOM     19  O   UNL     1      -3.397  -1.304  -0.071  0.00  0.00    -0.126 OA
ATOM     20  O   UNL     1      -1.294  -1.210   0.070  0.00  0.00    -0.126 OA
ENDBRANCH   5  18
BRANCH   4  21
ATOM     21  N   UNL     1      -0.033   0.942  -0.061  0.00  0.00    -0.343 N 
ATOM     22  H   UNL     1       0.012  -0.020  -0.176  0.00  0.00    +0.146 HD
BRANCH  21  23
ATOM     23  C   UNL     1       1.200   1.726   0.038  0.00  0.00    +0.094 C 
BRANCH  23  24
ATOM     24  C   UNL     1       2.405   0.783   0.056  0.00  0.00    +0.016 C 
BRANCH  24  30
ATOM     25  C   UNL     1       2.147   0.453   2.440  0.00  0.00    -0.078 C 
ATOM     26  C   UNL     1       1.828  -0.589   3.514  0.00  0.00    -0.019 C 
ATOM     27  C   UNL     1       2.930  -1.652   3.531  0.00  0.00    -0.004 C 
ATOM     28  C   UNL     1       3.036  -2.288   2.142  0.00  0.00    -0.019 C 
ATOM     29  C   UNL     1       3.320  -1.196   1.107  0.00  0.00    -0.078 C 
ATOM     30  N   UNL     1       2.211  -0.219   1.124  0.00  0.00    +0.387 N 
ATOM     31  H   UNL     1       1.327  -0.715   0.960  0.00  0.00    -0.081 HD
ENDBRANCH  24  30
BRANCH  24  32
ATOM     32  C   UNL     1       2.505   0.072  -1.269  0.00  0.00    +0.093 A 
ATOM     33  C   UNL     1       3.332   0.401  -2.278  0.00  0.00    +0.043 A 
ATOM     34  C   UNL     1       3.097  -0.526  -3.319  0.00  0.00    +0.041 A 
ATOM     35  C   UNL     1       2.135  -1.362  -2.888  0.00  0.00    +0.195 A 
ATOM     36  O   UNL     1       1.781  -0.995  -1.645  0.00  0.00    -0.469 OA
ENDBRANCH  24  32
ENDBRANCH  23  24
ENDBRANCH  21  23
ENDBRANCH   4  21
TORSDOF 8
