REMARK  Name = ZINC63637834
REMARK  1 active torsions:
REMARK  status: ('A' for Active; 'I' for Inactive)
REMARK    1  A    between atoms: C_5  and  C_7
REMARK                            x       y       z     vdW  Elec       q    Type
REMARK                         _______ _______ _______ _____ _____    ______ ____
ROOT
ATOM      1  C   UNL     1       1.229  -2.186  -0.022  0.00  0.00    +0.074 C 
ATOM      2  C   UNL     1       0.491  -2.705  -1.265  0.00  0.00    +0.148 C 
ATOM      3  C   UNL     1       0.144  -4.158  -1.058  0.00  0.00    +0.106 C 
ATOM      4  N   UNL     1       0.553  -5.091  -1.863  0.00  0.00    -0.151 NA
ATOM      5  C   UNL     1       1.321  -4.837  -2.932  0.00  0.00    +0.331 C 
ATOM      6  O   UNL     1       1.660  -5.758  -3.651  0.00  0.00    -0.250 OA
ATOM      7  N   UNL     1       1.726  -3.592  -3.228  0.00  0.00    -0.238 N 
ATOM      8  C   UNL     1       1.370  -2.549  -2.473  0.00  0.00    +0.231 C 
ATOM      9  O   UNL     1       1.767  -1.445  -2.778  0.00  0.00    -0.275 OA
ATOM     10  N   UNL     1      -0.628  -4.480   0.034  0.00  0.00    -0.303 N 
ATOM     11  C   UNL     1      -0.332  -3.780   1.194  0.00  0.00    +0.047 C 
ATOM     12  C   UNL     1       0.527  -2.711   1.209  0.00  0.00    +0.030 C 
ATOM     13  C   UNL     1       0.634  -2.202   2.527  0.00  0.00    +0.192 C 
ATOM     14  O   UNL     1       1.308  -1.254   2.880  0.00  0.00    -0.287 OA
ATOM     15  C   UNL     1      -0.224  -3.035   3.397  0.00  0.00    +0.031 A 
ATOM     16  C   UNL     1      -0.830  -4.015   2.554  0.00  0.00    +0.007 A 
ATOM     17  C   UNL     1      -1.703  -4.959   3.069  0.00  0.00    +0.010 A 
ATOM     18  C   UNL     1      -1.966  -4.897   4.441  0.00  0.00    +0.001 A 
ATOM     19  C   UNL     1      -1.389  -3.947   5.250  0.00  0.00    +0.001 A 
ATOM     20  C   UNL     1      -0.487  -2.987   4.752  0.00  0.00    +0.012 A 
ATOM     21  H   UNL     1       2.291  -3.448  -4.003  0.00  0.00    +0.159 HD
ATOM     22  H   UNL     1      -1.329  -5.149  -0.004  0.00  0.00    +0.153 HD
ENDROOT
BRANCH   1  27
ATOM     23  C   UNL     1      -0.017   1.378   0.010  0.00  0.00    +0.000 A 
ATOM     24  C   UNL     1       1.171   2.086   0.002  0.00  0.00    +0.001 A 
ATOM     25  C   UNL     1       2.377   1.412  -0.013  0.00  0.00    +0.015 A 
ATOM     26  C   UNL     1       2.397   0.029  -0.021  0.00  0.00    +0.022 A 
ATOM     27  C   UNL     1       1.208  -0.679  -0.013  0.00  0.00    -0.025 A 
ATOM     28  C   UNL     1       0.002  -0.004   0.002  0.00  0.00    +0.005 A 
ATOM     29 BR   UNL     1       4.047  -0.894  -0.042  0.00  0.00    -0.050 Br
ENDBRANCH   1  27
TORSDOF 1
