REMARK  Name = ZINC03032266
REMARK  8 active torsions:
REMARK  status: ('A' for Active; 'I' for Inactive)
REMARK    1  A    between atoms: C_1  and  C_2
REMARK    2  A    between atoms: C_4  and  C_34
REMARK    3  A    between atoms: C_9  and  C_11
REMARK    4  A    between atoms: C_13  and  N_18
REMARK    5  A    between atoms: C_16  and  O_17
REMARK    6  A    between atoms: C_19  and  C_20
REMARK    7  A    between atoms: C_24  and  N_31
REMARK    8  A    between atoms: C_29  and  O_30
REMARK                            x       y       z     vdW  Elec       q    Type
REMARK                         _______ _______ _______ _____ _____    ______ ____
ROOT
ATOM      1  C   UNL     1      -7.141   4.079  -0.757  0.00  0.00    +0.080 A 
ATOM      2  C   UNL     1      -5.921   3.406  -0.777  0.00  0.00    +0.044 A 
ATOM      3  C   UNL     1      -4.892   3.815   0.069  0.00  0.00    +0.065 A 
ATOM      4  C   UNL     1      -5.088   4.894   0.937  0.00  0.00    +0.031 A 
ATOM      5  C   UNL     1      -6.294   5.562   0.952  0.00  0.00    +0.048 A 
ATOM      6  C   UNL     1      -7.325   5.162   0.113  0.00  0.00    +0.129 A 
ENDROOT
BRANCH   1  15
ATOM      7  C   UNL     1     -11.664   0.930  -5.666  0.00  0.00    +0.044 C 
ATOM      8  C   UNL     1     -11.134   1.855  -4.600  0.00  0.00    -0.048 A 
ATOM      9  C   UNL     1     -11.946   2.860  -4.095  0.00  0.00    +0.010 A 
ATOM     10  C   UNL     1     -11.476   3.715  -3.119  0.00  0.00    -0.006 A 
ATOM     11  C   UNL     1     -10.184   3.571  -2.637  0.00  0.00    +0.159 A 
ATOM     12  C   UNL     1      -9.359   2.554  -3.146  0.00  0.00    +0.110 A 
ATOM     13  C   UNL     1      -9.848   1.697  -4.134  0.00  0.00    +0.035 A 
ATOM     14  N   UNL     1      -8.170   2.656  -2.498  0.00  0.00    -0.209 NA
ATOM     15  C   UNL     1      -8.237   3.652  -1.650  0.00  0.00    +0.232 A 
ATOM     16  O   UNL     1      -9.454   4.226  -1.708  0.00  0.00    -0.435 OA
ATOM     17  C   UNL     1     -12.367   4.803  -2.576  0.00  0.00    +0.047 C 
ENDBRANCH   1  15
BRANCH   6  18
ATOM     18  O   UNL     1      -8.512   5.820   0.136  0.00  0.00    -0.506 OA
ATOM     19  H   UNL     1      -9.149   5.460   0.767  0.00  0.00    +0.292 HD
ENDBRANCH   6  18
BRANCH   3  20
ATOM     20  N   UNL     1      -3.691   3.158   0.054  0.00  0.00    -0.255 NA
ATOM     21  C   UNL     1      -2.576   3.837   0.047  0.00  0.00    +0.123 C 
BRANCH  21  22
ATOM     22  C   UNL     1      -1.290   3.134   0.031  0.00  0.00    +0.042 A 
ATOM     23  C   UNL     1      -0.031   3.878   0.023  0.00  0.00    -0.006 A 
ATOM     24  C   UNL     1      -0.009   5.277   0.030  0.00  0.00    +0.011 A 
ATOM     25  C   UNL     1       1.186   5.933   0.022  0.00  0.00    +0.033 A 
ATOM     26  C   UNL     1       2.387   5.230   0.007  0.00  0.00    +0.127 A 
ATOM     27  C   UNL     1       2.402   3.868  -0.001  0.00  0.00    +0.041 A 
ATOM     28  C   UNL     1       1.189   3.159   0.007  0.00  0.00    -0.015 A 
ATOM     29  C   UNL     1       1.165   1.753   0.000  0.00  0.00    +0.012 A 
ATOM     30  C   UNL     1      -0.013   1.076   0.008  0.00  0.00    +0.046 A 
ATOM     31  C   UNL     1      -1.240   1.738   0.018  0.00  0.00    +0.126 A 
BRANCH  26  32
ATOM     32  N   UNL     1       3.667   5.973  -0.001  0.00  0.00    +0.056 N 
ATOM     33  O   UNL     1       4.723   5.366  -0.015  0.00  0.00    -0.126 OA
ATOM     34  O   UNL     1       3.664   7.191   0.005  0.00  0.00    -0.126 OA
ENDBRANCH  26  32
BRANCH  31  35
ATOM     35  O   UNL     1      -2.392   1.021   0.019  0.00  0.00    -0.506 OA
ATOM     36  H   UNL     1      -2.722   0.809   0.903  0.00  0.00    +0.292 HD
ENDBRANCH  31  35
ENDBRANCH  21  22
ENDBRANCH   3  20
TORSDOF 6
