REMARK  Name = ZINC40588059
REMARK  5 active torsions:
REMARK  status: ('A' for Active; 'I' for Inactive)
REMARK    1  A    between atoms: C_6  and  C_7
REMARK    2  A    between atoms: N_9  and  N_10
REMARK    3  A    between atoms: C_12  and  N_26
REMARK    4  A    between atoms: C_13  and  N_17
REMARK    5  A    between atoms: N_17  and  C_18
REMARK                            x       y       z     vdW  Elec       q    Type
REMARK                         _______ _______ _______ _____ _____    ______ ____
ROOT
ATOM      1  N   UNL     1      -2.421  -2.864   0.403  0.00  0.00    -0.246 N 
ATOM      2  C   UNL     1      -2.413  -4.232   0.179  0.00  0.00    +0.171 A 
ATOM      3  C   UNL     1      -3.599  -4.959   0.210  0.00  0.00    +0.207 A 
ATOM      4  C   UNL     1      -3.538  -6.330  -0.021  0.00  0.00    +0.159 A 
ATOM      5  N   UNL     1      -2.355  -6.892  -0.263  0.00  0.00    -0.218 NA
ATOM      6  C   UNL     1      -1.254  -6.169  -0.283  0.00  0.00    +0.225 A 
ATOM      7  N   UNL     1      -1.271  -4.868  -0.074  0.00  0.00    -0.217 NA
ATOM      8  H   UNL     1      -3.256  -2.407   0.586  0.00  0.00    +0.172 HD
ENDROOT
BRANCH   1  11
ATOM      9  C   UNL     1      -1.229  -0.810   0.581  0.00  0.00    +0.260 C 
ATOM     10  O   UNL     1      -2.276  -0.238   0.811  0.00  0.00    -0.269 OA
ATOM     11  N   UNL     1      -1.221  -2.140   0.363  0.00  0.00    -0.231 N 
ATOM     12  H   UNL     1      -0.385  -2.597   0.179  0.00  0.00    +0.173 HD
BRANCH   9  18
ATOM     13  C   UNL     1       0.032   1.330   0.764  0.00  0.00    +0.014 A 
ATOM     14  C   UNL     1       1.216   2.037   0.724  0.00  0.00    +0.016 A 
ATOM     15  C   UNL     1       2.407   1.382   0.462  0.00  0.00    +0.018 A 
ATOM     16  C   UNL     1       2.418   0.015   0.238  0.00  0.00    +0.016 A 
ATOM     17  C   UNL     1       1.241  -0.702   0.275  0.00  0.00    +0.014 A 
ATOM     18  C   UNL     1       0.036  -0.048   0.539  0.00  0.00    +0.038 A 
ATOM     19 BR   UNL     1       4.026   2.358   0.408  0.00  0.00    -0.050 Br
ENDBRANCH   9  18
ENDBRANCH   1  11
BRANCH   3  20
ATOM     20  N   UNL     1      -4.892  -4.292   0.482  0.00  0.00    +0.063 N 
ATOM     21  O   UNL     1      -5.550  -3.852  -0.431  0.00  0.00    -0.126 OA
ATOM     22  O   UNL     1      -5.290  -4.187   1.619  0.00  0.00    -0.126 OA
ENDBRANCH   3  20
BRANCH   4  23
ATOM     23  N   UNL     1      -4.692  -7.099  -0.001  0.00  0.00    -0.297 N 
ATOM     24  H   UNL     1      -5.558  -6.672   0.093  0.00  0.00    +0.154 HD
BRANCH  23  25
ATOM     25  C   UNL     1      -4.607  -8.490  -0.115  0.00  0.00    +0.035 A 
ATOM     26  C   UNL     1      -5.580  -9.191  -0.815  0.00  0.00    +0.043 A 
ATOM     27  C   UNL     1      -5.493 -10.566  -0.926  0.00  0.00    +0.044 A 
ATOM     28  C   UNL     1      -4.438 -11.244  -0.341  0.00  0.00    +0.040 A 
ATOM     29  C   UNL     1      -3.467 -10.547   0.357  0.00  0.00    +0.044 A 
ATOM     30  C   UNL     1      -3.546  -9.172   0.467  0.00  0.00    +0.043 A 
ATOM     31 CL   UNL     1      -2.145 -11.402   1.089  0.00  0.00    -0.083 Cl
ATOM     32 CL   UNL     1      -6.710 -11.444  -1.800  0.00  0.00    -0.083 Cl
ENDBRANCH  23  25
ENDBRANCH   4  23
TORSDOF 5
