REMARK  Name = ZINC39695359
REMARK  8 active torsions:
REMARK  status: ('A' for Active; 'I' for Inactive)
REMARK    1  A    between atoms: C_1  and  C_2
REMARK    2  A    between atoms: C_2  and  C_3
REMARK    3  A    between atoms: C_3  and  C_5
REMARK    4  A    between atoms: C_3  and  N_11
REMARK    5  A    between atoms: C_12  and  C_14
REMARK    6  A    between atoms: C_25  and  C_27
REMARK    7  A    between atoms: C_30  and  O_33
REMARK    8  A    between atoms: O_33  and  C_34
REMARK                            x       y       z     vdW  Elec       q    Type
REMARK                         _______ _______ _______ _____ _____    ______ ____
ROOT
ATOM      1  C   UNL     1      -1.516   1.266  -4.799  0.00  0.00    +0.100 C 
ATOM      2  C   UNL     1      -2.928   1.246  -4.171  0.00  0.00    +0.121 C 
ATOM      3  N   UNL     1      -3.161   2.642  -3.730  0.00  0.00    -0.296 N 
ATOM      4  C   UNL     1      -2.578   3.472  -4.811  0.00  0.00    +0.115 C 
ATOM      5  C   UNL     1      -1.292   2.728  -5.221  0.00  0.00    -0.004 C 
ATOM      6  C   UNL     1      -0.089   3.312  -4.485  0.00  0.00    -0.010 C 
ATOM      7  C   UNL     1       0.148   4.747  -4.963  0.00  0.00    -0.082 C 
ATOM      8  N   UNL     1       0.386   4.749  -6.412  0.00  0.00    +0.379 N 
ATOM      9  C   UNL     1      -0.810   4.273  -7.117  0.00  0.00    -0.082 C 
ATOM     10  C   UNL     1      -1.088   2.818  -6.730  0.00  0.00    -0.010 C 
ATOM     11  C   UNL     1      -3.766   3.061  -2.601  0.00  0.00    +0.248 C 
ATOM     12  O   UNL     1      -4.079   2.257  -1.744  0.00  0.00    -0.270 OA
ATOM     13  H   UNL     1       0.602   5.687  -6.714  0.00  0.00    -0.086 HD
ATOM     14  H   UNL     1       1.164   4.143  -6.624  0.00  0.00    -0.086 HD
ENDROOT
BRANCH  11  15
ATOM     15  C   UNL     1      -4.050   4.496  -2.405  0.00  0.00    +0.055 A 
ATOM     16  C   UNL     1      -4.086   5.371  -3.501  0.00  0.00    +0.020 A 
ATOM     17  C   UNL     1      -4.355   6.704  -3.267  0.00  0.00    +0.068 A 
ATOM     18  C   UNL     1      -4.580   7.134  -1.963  0.00  0.00    +0.220 A 
ATOM     19  N   UNL     1      -4.538   6.283  -0.949  0.00  0.00    -0.220 NA
ATOM     20  C   UNL     1      -4.291   5.002  -1.127  0.00  0.00    +0.127 A 
BRANCH  18  21
ATOM     21  O   UNL     1      -4.844   8.442  -1.727  0.00  0.00    -0.438 OA
BRANCH  21  22
ATOM     22  C   UNL     1      -5.154   8.811  -0.456  0.00  0.00    +0.130 A 
ATOM     23  C   UNL     1      -4.149   8.968   0.487  0.00  0.00    +0.046 A 
ATOM     24  C   UNL     1      -4.466   9.344   1.778  0.00  0.00    +0.004 A 
ATOM     25  C   UNL     1      -5.785   9.562   2.130  0.00  0.00    +0.000 A 
ATOM     26  C   UNL     1      -6.789   9.406   1.193  0.00  0.00    +0.004 A 
ATOM     27  C   UNL     1      -6.476   9.037  -0.101  0.00  0.00    +0.046 A 
ENDBRANCH  21  22
ENDBRANCH  18  21
ENDBRANCH  11  15
BRANCH   1  29
ATOM     28  N   UNL     1       0.667   0.277  -4.188  0.00  0.00    -0.308 N 
ATOM     29  C   UNL     1      -0.484   0.849  -3.783  0.00  0.00    +0.219 C 
ATOM     30  O   UNL     1      -0.689   1.028  -2.601  0.00  0.00    -0.275 OA
ATOM     31  H   UNL     1       0.832   0.134  -5.133  0.00  0.00    +0.149 HD
BRANCH  28  32
ATOM     32  C   UNL     1       1.671  -0.128  -3.200  0.00  0.00    +0.103 C 
BRANCH  32  33
ATOM     33  C   UNL     1       3.032  -0.150  -3.847  0.00  0.00    -0.027 A 
ATOM     34  C   UNL     1       3.177  -0.628  -5.136  0.00  0.00    +0.005 A 
ATOM     35  C   UNL     1       4.425  -0.648  -5.729  0.00  0.00    +0.000 A 
ATOM     36  C   UNL     1       5.529  -0.191  -5.034  0.00  0.00    +0.000 A 
ATOM     37  C   UNL     1       5.383   0.287  -3.745  0.00  0.00    +0.000 A 
ATOM     38  C   UNL     1       4.134   0.312  -3.153  0.00  0.00    +0.005 A 
ENDBRANCH  32  33
BRANCH  32  40
ATOM     39  C   UNL     1       0.009  -1.475  -1.909  0.00  0.00    +0.006 C 
ATOM     40  C   UNL     1       1.333  -1.525  -2.674  0.00  0.00    +0.024 C 
ENDBRANCH  32  40
ENDBRANCH  28  32
ENDBRANCH   1  29
TORSDOF 7
