REMARK  Name = ZINC08695580
REMARK  13 active torsions:
REMARK  status: ('A' for Active; 'I' for Inactive)
REMARK    1  A    between atoms: C_1  and  C_2
REMARK    2  A    between atoms: C_14  and  C_16
REMARK    3  A    between atoms: C_18  and  O_26
REMARK    4  A    between atoms: C_19  and  O_24
REMARK    5  A    between atoms: C_20  and  O_22
REMARK    6  A    between atoms: O_22  and  C_23
REMARK    7  A    between atoms: O_24  and  C_25
REMARK    8  A    between atoms: O_26  and  C_27
REMARK    9  A    between atoms: C_31  and  C_34
REMARK   10  A    between atoms: C_37  and  O_42
REMARK   11  A    between atoms: C_38  and  O_40
REMARK   12  A    between atoms: O_40  and  C_41
REMARK   13  A    between atoms: O_42  and  C_43
REMARK                            x       y       z     vdW  Elec       q    Type
REMARK                         _______ _______ _______ _____ _____    ______ ____
ROOT
ATOM      1  C   UNL     1      -5.940   1.920  -1.395  0.00  0.00    +0.110 C 
ATOM      2  C   UNL     1      -4.606   1.252  -1.184  0.00  0.00    +0.218 C 
ATOM      3  O   UNL     1      -4.215   0.415  -1.972  0.00  0.00    -0.276 OA
ATOM      4  N   UNL     1      -3.846   1.583  -0.121  0.00  0.00    -0.258 N 
ATOM      5  C   UNL     1      -4.306   2.546   0.778  0.00  0.00    +0.058 A 
ATOM      6  C   UNL     1      -5.401   2.310   1.593  0.00  0.00    +0.025 A 
ATOM      7  C   UNL     1      -5.752   3.248   2.549  0.00  0.00    +0.002 A 
ATOM      8  C   UNL     1      -5.018   4.412   2.689  0.00  0.00    +0.002 A 
ATOM      9  C   UNL     1      -3.937   4.661   1.861  0.00  0.00    +0.025 A 
ATOM     10  C   UNL     1      -3.596   3.732   0.893  0.00  0.00    +0.053 A 
ATOM     11  N   UNL     1      -2.554   3.938  -0.002  0.00  0.00    -0.316 N 
ATOM     12  C   UNL     1      -1.417   3.199  -0.054  0.00  0.00    +0.017 C 
ATOM     13  C   UNL     1      -1.375   1.856  -0.036  0.00  0.00    +0.037 C 
ATOM     14  C   UNL     1      -2.567   0.934   0.070  0.00  0.00    +0.147 C 
ATOM     15  C   UNL     1      -0.133   1.181  -0.091  0.00  0.00    +0.163 C 
ATOM     16  O   UNL     1      -0.126  -0.035  -0.095  0.00  0.00    -0.292 OA
ATOM     17  C   UNL     1       1.175   1.912  -0.153  0.00  0.00    +0.088 C 
ATOM     18  C   UNL     1       1.006   3.270   0.538  0.00  0.00    +0.032 C 
ATOM     19  C   UNL     1      -0.135   4.008  -0.160  0.00  0.00    +0.059 C 
ATOM     20  H   UNL     1      -2.646   4.666  -0.637  0.00  0.00    +0.152 HD
ENDROOT
BRANCH  14  21
ATOM     21  C   UNL     1      -2.557   0.292   1.434  0.00  0.00    -0.015 A 
ATOM     22  C   UNL     1      -2.655   1.078   2.567  0.00  0.00    +0.055 A 
ATOM     23  C   UNL     1      -2.652   0.491   3.823  0.00  0.00    +0.165 A 
ATOM     24  C   UNL     1      -2.538  -0.889   3.942  0.00  0.00    +0.204 A 
ATOM     25  C   UNL     1      -2.434  -1.675   2.801  0.00  0.00    +0.165 A 
ATOM     26  C   UNL     1      -2.444  -1.081   1.549  0.00  0.00    +0.055 A 
BRANCH  25  27
ATOM     27  O   UNL     1      -2.321  -3.026   2.913  0.00  0.00    -0.491 OA
ATOM     28  C   UNL     1      -2.218  -3.771   1.698  0.00  0.00    +0.277 C 
ENDBRANCH  25  27
BRANCH  24  29
ATOM     29  O   UNL     1      -2.529  -1.469   5.174  0.00  0.00    -0.488 OA
ATOM     30  C   UNL     1      -1.256  -1.637   5.802  0.00  0.00    +0.277 C 
ENDBRANCH  24  29
BRANCH  23  31
ATOM     31  O   UNL     1      -2.754   1.265   4.936  0.00  0.00    -0.491 OA
ATOM     32  C   UNL     1      -2.944   2.667   4.737  0.00  0.00    +0.277 C 
ENDBRANCH  23  31
ENDBRANCH  14  21
BRANCH  18  33
ATOM     33  C   UNL     1       2.280   4.066   0.416  0.00  0.00    -0.040 A 
ATOM     34  C   UNL     1       2.774   4.391  -0.833  0.00  0.00    +0.008 A 
ATOM     35  C   UNL     1       3.942   5.122  -0.950  0.00  0.00    +0.049 A 
ATOM     36  C   UNL     1       4.620   5.530   0.187  0.00  0.00    +0.161 A 
ATOM     37  C   UNL     1       4.123   5.203   1.445  0.00  0.00    +0.162 A 
ATOM     38  C   UNL     1       2.949   4.475   1.555  0.00  0.00    +0.053 A 
BRANCH  37  39
ATOM     39  O   UNL     1       4.785   5.602   2.564  0.00  0.00    -0.491 OA
ATOM     40  C   UNL     1       4.216   5.230   3.821  0.00  0.00    +0.277 C 
ENDBRANCH  37  39
BRANCH  36  41
ATOM     41  O   UNL     1       5.769   6.249   0.074  0.00  0.00    -0.491 OA
ATOM     42  C   UNL     1       6.219   6.549  -1.248  0.00  0.00    +0.277 C 
ENDBRANCH  36  41
ENDBRANCH  18  33
TORSDOF 7
