REMARK  Name = ZINC20527723
REMARK  12 active torsions:
REMARK  status: ('A' for Active; 'I' for Inactive)
REMARK    1  A    between atoms: C_1  and  C_2
REMARK    2  A    between atoms: C_2  and  N_3
REMARK    3  A    between atoms: N_3  and  C_4
REMARK    4  A    between atoms: N_3  and  C_6
REMARK    5  A    between atoms: C_4  and  C_5
REMARK    6  A    between atoms: C_9  and  C_12
REMARK    7  A    between atoms: N_13  and  N_14
REMARK    8  A    between atoms: C_18  and  S_21
REMARK    9  A    between atoms: N_19  and  N_20
REMARK   10  A    between atoms: S_21  and  C_22
REMARK   11  A    between atoms: C_22  and  C_23
REMARK   12  A    between atoms: N_25  and  C_26
REMARK                            x       y       z     vdW  Elec       q    Type
REMARK                         _______ _______ _______ _____ _____    ______ ____
ROOT
ATOM      1  N   UNL     1      -0.013   1.383   0.075  0.00  0.00    -0.204 N 
ATOM      2  C   UNL     1       0.006  -0.004   0.058  0.00  0.00    +0.254 A 
ATOM      3  N   UNL     1      -1.045  -0.789   0.067  0.00  0.00    -0.109 NA
ATOM      4  N   UNL     1      -0.594  -2.115   0.039  0.00  0.00    -0.119 NA
ATOM      5  C   UNL     1       0.717  -2.098   0.022  0.00  0.00    +0.210 A 
ATOM      6  N   UNL     1       1.122  -0.793   0.034  0.00  0.00    -0.211 N 
ATOM      7  H   UNL     1       0.933   1.945   0.075  0.00  0.00    +0.177 HD
ENDROOT
BRANCH   6   8
ATOM      8  N   UNL     1       2.416  -0.354   0.022  0.00  0.00    -0.294 N 
ATOM      9  H   UNL     1       3.243  -1.079   0.002  0.00  0.00    +0.163 HD
ATOM     10  H   UNL     1       2.630   0.725   0.032  0.00  0.00    +0.163 HD
ENDBRANCH   6   8
BRANCH   1  12
ATOM     11  C   UNL     1      -1.252   3.366   0.110  0.00  0.00    +0.138 C 
ATOM     12  N   UNL     1      -1.235   2.067   0.094  0.00  0.00    -0.188 NA
BRANCH  11  16
ATOM     13  C   UNL     1      -4.956   5.440   0.165  0.00  0.00    +0.030 A 
ATOM     14  C   UNL     1      -3.762   6.153   0.165  0.00  0.00    +0.024 A 
ATOM     15  C   UNL     1      -2.558   5.483   0.148  0.00  0.00    +0.011 A 
ATOM     16  C   UNL     1      -2.538   4.086   0.130  0.00  0.00    -0.005 A 
ATOM     17  C   UNL     1      -3.740   3.373   0.124  0.00  0.00    +0.011 A 
ATOM     18  C   UNL     1      -4.940   4.049   0.147  0.00  0.00    +0.024 A 
BRANCH  13  19
ATOM     19  N   UNL     1      -6.174   6.122   0.182  0.00  0.00    -0.330 N 
BRANCH  19  21
ATOM     20  C   UNL     1      -7.861   5.093   1.624  0.00  0.00    +0.024 C 
ATOM     21  C   UNL     1      -7.433   5.372   0.182  0.00  0.00    +0.102 C 
ENDBRANCH  19  21
BRANCH  19  22
ATOM     22  C   UNL     1      -6.193   7.586   0.201  0.00  0.00    +0.102 C 
ATOM     23  C   UNL     1      -6.210   8.114  -1.235  0.00  0.00    +0.024 C 
ENDBRANCH  19  22
ENDBRANCH  13  19
ENDBRANCH  11  16
ENDBRANCH   1  12
BRANCH   5  24
ATOM     24  S   UNL     1       1.771  -3.509  -0.009  0.00  0.00    -0.075 S 
BRANCH  24  25
ATOM     25  C   UNL     1       0.624  -4.914  -0.012  0.00  0.00    +0.173 C 
BRANCH  25  26
ATOM     26  C   UNL     1       1.406  -6.202  -0.038  0.00  0.00    +0.228 C 
ATOM     27  O   UNL     1       2.619  -6.174  -0.053  0.00  0.00    -0.275 OA
ATOM     28  N   UNL     1       0.759  -7.384  -0.045  0.00  0.00    -0.284 N 
ATOM     29  H   UNL     1      -0.337  -7.411   0.043  0.00  0.00    +0.155 HD
BRANCH  28  30
ATOM     30  C   UNL     1       1.481  -8.577  -0.164  0.00  0.00    +0.052 A 
ATOM     31  C   UNL     1       2.738  -8.690   0.415  0.00  0.00    +0.026 A 
ATOM     32  C   UNL     1       3.449  -9.868   0.296  0.00  0.00    +0.022 A 
ATOM     33  C   UNL     1       2.909 -10.937  -0.398  0.00  0.00    +0.042 A 
ATOM     34  C   UNL     1       1.657 -10.828  -0.976  0.00  0.00    +0.041 A 
ATOM     35  C   UNL     1       0.939  -9.653  -0.856  0.00  0.00    +0.064 A 
ATOM     36 CL   UNL     1      -0.635  -9.519  -1.576  0.00  0.00    -0.082 Cl
ATOM     37 CL   UNL     1       3.806 -12.416  -0.544  0.00  0.00    -0.083 Cl
ENDBRANCH  28  30
ENDBRANCH  25  26
ENDBRANCH  24  25
ENDBRANCH   5  24
TORSDOF 10
