REMARK  Name = ZINC09319045
REMARK  4 active torsions:
REMARK  status: ('A' for Active; 'I' for Inactive)
REMARK    1  A    between atoms: C_10  and  C_11
REMARK    2  A    between atoms: C_12  and  O_13
REMARK    3  A    between atoms: C_23  and  C_25
REMARK    4  A    between atoms: C_28  and  N_31
REMARK                            x       y       z     vdW  Elec       q    Type
REMARK                         _______ _______ _______ _____ _____    ______ ____
ROOT
ATOM      1  C   UNL     1       4.947   0.135  -0.044  0.00  0.00    +0.082 A 
ATOM      2  C   UNL     1       5.380   0.774  -1.206  0.00  0.00    +0.140 A 
ATOM      3  C   UNL     1       6.649   1.508  -1.151  0.00  0.00    +0.061 A 
ATOM      4  C   UNL     1       7.145   2.173  -2.277  0.00  0.00    +0.035 A 
ATOM      5  C   UNL     1       8.339   2.854  -2.195  0.00  0.00    +0.042 A 
ATOM      6  C   UNL     1       9.048   2.883  -1.002  0.00  0.00    +0.023 A 
ATOM      7  C   UNL     1       8.571   2.232   0.116  0.00  0.00    +0.048 A 
ATOM      8  C   UNL     1       7.368   1.538   0.056  0.00  0.00    +0.141 A 
ATOM      9  O   UNL     1       6.892   0.898   1.145  0.00  0.00    -0.440 OA
ATOM     10  C   UNL     1       5.732   0.224   1.125  0.00  0.00    +0.205 A 
ATOM     11  N   UNL     1       5.315  -0.382   2.234  0.00  0.00    -0.252 N 
ATOM     12  C   UNL     1       6.046  -0.309   3.351  0.00  0.00    +0.250 C 
ATOM     13  O   UNL     1       7.095   0.312   3.353  0.00  0.00    -0.270 OA
ATOM     14 CL   UNL     1       8.960   3.681  -3.590  0.00  0.00    -0.084 Cl
ATOM     15  H   UNL     1       4.480  -0.876   2.232  0.00  0.00    +0.158 HD
ENDROOT
BRANCH   1  25
ATOM     16  C   UNL     1      -0.016   1.357   0.009  0.00  0.00    +0.001 A 
ATOM     17  C   UNL     1       1.168   2.090   0.002  0.00  0.00    +0.001 A 
ATOM     18  C   UNL     1       2.379   1.464  -0.013  0.00  0.00    +0.009 A 
ATOM     19  C   UNL     1       2.436   0.064  -0.021  0.00  0.00    -0.010 A 
ATOM     20  C   UNL     1       1.233  -0.683  -0.013  0.00  0.00    -0.017 A 
ATOM     21  C   UNL     1       0.002  -0.004   0.002  0.00  0.00    +0.008 A 
ATOM     22  C   UNL     1       1.289  -2.087  -0.021  0.00  0.00    +0.008 A 
ATOM     23  C   UNL     1       2.495  -2.723  -0.035  0.00  0.00    +0.001 A 
ATOM     24  C   UNL     1       3.685  -2.006  -0.042  0.00  0.00    +0.009 A 
ATOM     25  C   UNL     1       3.676  -0.621  -0.036  0.00  0.00    -0.002 A 
ENDBRANCH   1  25
BRANCH  12  26
ATOM     26  C   UNL     1       5.581  -0.982   4.585  0.00  0.00    +0.037 A 
ATOM     27  C   UNL     1       4.383  -1.698   4.584  0.00  0.00    +0.015 A 
ATOM     28  C   UNL     1       3.956  -2.324   5.737  0.00  0.00    +0.033 A 
ATOM     29  C   UNL     1       4.712  -2.241   6.893  0.00  0.00    +0.126 A 
ATOM     30  C   UNL     1       5.900  -1.533   6.901  0.00  0.00    +0.033 A 
ATOM     31  C   UNL     1       6.341  -0.908   5.752  0.00  0.00    +0.015 A 
BRANCH  29  32
ATOM     32  N   UNL     1       4.247  -2.914   8.127  0.00  0.00    +0.056 N 
ATOM     33  O   UNL     1       3.209  -3.534   8.123  0.00  0.00    -0.126 OA
ATOM     34  O   UNL     1       4.905  -2.844   9.138  0.00  0.00    -0.126 OA
ENDBRANCH  29  32
ENDBRANCH  12  26
BRANCH   2  35
ATOM     35  O   UNL     1       4.654   0.718  -2.345  0.00  0.00    -0.505 OA
ATOM     36  H   UNL     1       5.050   1.196  -3.087  0.00  0.00    +0.292 HD
ENDBRANCH   2  35
TORSDOF 4
