REMARK  Name = ZINC00435672
REMARK  6 active torsions:
REMARK  status: ('A' for Active; 'I' for Inactive)
REMARK    1  A    between atoms: C_1  and  C_2
REMARK    2  A    between atoms: C_2  and  O_3
REMARK    3  A    between atoms: O_3  and  C_4
REMARK    4  A    between atoms: C_9  and  S_14
REMARK    5  A    between atoms: S_14  and  N_17
REMARK    6  A    between atoms: C_22  and  C_24
REMARK                            x       y       z     vdW  Elec       q    Type
REMARK                         _______ _______ _______ _____ _____    ______ ____
ROOT
ATOM      1  C   UNL     1       2.218  -2.323  -8.636  0.00  0.00    +0.121 A 
ATOM      2  C   UNL     1       1.493  -3.228  -7.854  0.00  0.00    +0.046 A 
ATOM      3  C   UNL     1       1.519  -3.157  -6.497  0.00  0.00    +0.012 A 
ATOM      4  C   UNL     1       2.284  -2.161  -5.865  0.00  0.00    -0.016 A 
ATOM      5  C   UNL     1       2.340  -2.063  -4.465  0.00  0.00    +0.037 A 
ATOM      6  C   UNL     1       3.087  -1.083  -3.887  0.00  0.00    +0.106 A 
ATOM      7  C   UNL     1       3.809  -0.179  -4.663  0.00  0.00    +0.029 A 
ATOM      8  C   UNL     1       3.785  -0.247  -6.022  0.00  0.00    +0.010 A 
ATOM      9  C   UNL     1       3.020  -1.242  -6.655  0.00  0.00    -0.014 A 
ATOM     10  C   UNL     1       2.971  -1.343  -8.056  0.00  0.00    +0.054 A 
ENDROOT
BRANCH   6  11
ATOM     11  S   UNL     1       3.147  -0.960  -2.130  0.00  0.00    +0.061 S 
ATOM     12  O   UNL     1       4.361  -0.294  -1.811  0.00  0.00    -0.153 OA
ATOM     13  O   UNL     1       2.828  -2.248  -1.621  0.00  0.00    -0.153 OA
BRANCH  11  14
ATOM     14  N   UNL     1       1.917   0.048  -1.667  0.00  0.00    -0.174 NA
ATOM     15  C   UNL     1       2.170   1.476  -1.427  0.00  0.00    +0.110 C 
ATOM     16  C   UNL     1       1.658   1.838  -0.029  0.00  0.00    +0.017 C 
ATOM     17  C   UNL     1       0.188   1.431   0.093  0.00  0.00    +0.003 C 
ATOM     18  C   UNL     1       0.059  -0.083  -0.091  0.00  0.00    +0.020 C 
ATOM     19  C   UNL     1       0.553  -0.467  -1.489  0.00  0.00    +0.077 C 
ATOM     20  C   UNL     1       0.555  -1.991  -1.632  0.00  0.00    +0.026 C 
ENDBRANCH  11  14
ENDBRANCH   6  11
BRANCH   1  21
ATOM     21  O   UNL     1       2.171  -2.419  -9.991  0.00  0.00    -0.492 OA
BRANCH  21  23
ATOM     22  C   UNL     1       1.438  -3.414 -12.067  0.00  0.00    +0.048 C 
ATOM     23  C   UNL     1       1.366  -3.464 -10.540  0.00  0.00    +0.225 C 
ENDBRANCH  21  23
ENDBRANCH   1  21
TORSDOF 4
