REMARK  Name = ZINC10188126
REMARK  8 active torsions:
REMARK  status: ('A' for Active; 'I' for Inactive)
REMARK    1  A    between atoms: C_5  and  C_20
REMARK    2  A    between atoms: N_8  and  C_12
REMARK    3  A    between atoms: C_12  and  C_13
REMARK    4  A    between atoms: N_22  and  C_23
REMARK    5  A    between atoms: C_23  and  C_24
REMARK    6  A    between atoms: C_24  and  C_25
REMARK    7  A    between atoms: C_28  and  S_31
REMARK    8  A    between atoms: S_31  and  N_34
REMARK                            x       y       z     vdW  Elec       q    Type
REMARK                         _______ _______ _______ _____ _____    ______ ____
ROOT
ATOM      1  C   UNL     1       0.026  -2.016   3.597  0.00  0.00    +0.020 A 
ATOM      2  C   UNL     1       0.026  -2.771   2.442  0.00  0.00    +0.013 A 
ATOM      3  C   UNL     1       0.021  -2.097   1.209  0.00  0.00    +0.018 A 
ATOM      4  C   UNL     1       0.021  -2.822  -0.005  0.00  0.00    +0.030 A 
ATOM      5  C   UNL     1       0.015  -2.126  -1.201  0.00  0.00    +0.102 A 
ATOM      6  C   UNL     1       0.005  -0.660  -1.173  0.00  0.00    +0.265 A 
ATOM      7  O   UNL     1      -0.004  -0.033  -2.217  0.00  0.00    -0.267 OA
ATOM      8  N   UNL     1       0.010  -0.004   0.003  0.00  0.00    -0.288 N 
ATOM      9  C   UNL     1       0.016  -0.688   1.196  0.00  0.00    +0.144 A 
ATOM     10  N   UNL     1       0.016  -0.018   2.342  0.00  0.00    -0.237 NA
ATOM     11  C   UNL     1       0.020  -0.631   3.506  0.00  0.00    +0.113 A 
ENDROOT
BRANCH   5  12
ATOM     12  C   UNL     1       0.014  -2.848  -2.485  0.00  0.00    +0.249 C 
ATOM     13  O   UNL     1       0.123  -4.059  -2.501  0.00  0.00    -0.270 OA
ATOM     14  N   UNL     1      -0.108  -2.167  -3.641  0.00  0.00    -0.311 N 
ATOM     15  H   UNL     1      -0.120  -1.197  -3.633  0.00  0.00    +0.149 HD
BRANCH  14  16
ATOM     16  C   UNL     1      -0.222  -2.890  -4.909  0.00  0.00    +0.109 C 
BRANCH  16  17
ATOM     17  C   UNL     1      -0.348  -1.889  -6.059  0.00  0.00    +0.054 C 
BRANCH  17  18
ATOM     18  C   UNL     1      -0.465  -2.633  -7.364  0.00  0.00    -0.046 A 
ATOM     19  C   UNL     1       0.672  -2.954  -8.081  0.00  0.00    +0.005 A 
ATOM     20  C   UNL     1       0.565  -3.641  -9.276  0.00  0.00    +0.029 A 
ATOM     21  C   UNL     1      -0.680  -3.999  -9.758  0.00  0.00    +0.105 A 
ATOM     22  C   UNL     1      -1.818  -3.674  -9.043  0.00  0.00    +0.029 A 
ATOM     23  C   UNL     1      -1.710  -2.991  -7.846  0.00  0.00    +0.005 A 
BRANCH  21  24
ATOM     24  S   UNL     1      -0.817  -4.871 -11.283  0.00  0.00    +0.056 S 
ATOM     25  O   UNL     1       0.424  -5.533 -11.485  0.00  0.00    -0.153 OA
ATOM     26  O   UNL     1      -2.055  -5.568 -11.242  0.00  0.00    -0.153 OA
BRANCH  24  27
ATOM     27  N   UNL     1      -0.951  -3.739 -12.484  0.00  0.00    -0.204 NA
ATOM     28  H   UNL     1      -0.942  -2.794 -12.263  0.00  0.00    +0.144 HD
ATOM     29  H   UNL     1      -1.037  -4.020 -13.408  0.00  0.00    +0.144 HD
ENDBRANCH  24  27
ENDBRANCH  21  24
ENDBRANCH  17  18
ENDBRANCH  16  17
ENDBRANCH  14  16
ENDBRANCH   5  12
BRANCH   8  30
ATOM     30  C   UNL     1       0.004   1.460   0.011  0.00  0.00    +0.162 C 
BRANCH  30  31
ATOM     31  C   UNL     1       1.423   1.969   0.011  0.00  0.00    -0.027 A 
ATOM     32  C   UNL     1       2.073   2.201   1.208  0.00  0.00    +0.008 A 
ATOM     33  C   UNL     1       3.376   2.662   1.209  0.00  0.00    +0.038 A 
ATOM     34  C   UNL     1       4.026   2.903   0.010  0.00  0.00    +0.123 A 
ATOM     35  C   UNL     1       3.371   2.675  -1.189  0.00  0.00    +0.038 A 
ATOM     36  C   UNL     1       2.070   2.209  -1.187  0.00  0.00    +0.008 A 
ATOM     37  F   UNL     1       5.297   3.359   0.010  0.00  0.00    -0.205 F 
ENDBRANCH  30  31
ENDBRANCH   8  30
TORSDOF 8
