REMARK  Name = ZINC17156284
REMARK  7 active torsions:
REMARK  status: ('A' for Active; 'I' for Inactive)
REMARK    1  A    between atoms: C_1  and  C_2
REMARK    2  A    between atoms: C_2  and  O_3
REMARK    3  A    between atoms: O_3  and  C_4
REMARK    4  A    between atoms: C_4  and  N_6
REMARK    5  A    between atoms: C_15  and  N_18
REMARK    6  A    between atoms: N_18  and  N_19
REMARK    7  A    between atoms: N_19  and  C_20
REMARK                            x       y       z     vdW  Elec       q    Type
REMARK                         _______ _______ _______ _____ _____    ______ ____
ROOT
ATOM      1  N   UNL     1       1.543  -2.287  -2.312  0.00  0.00    -0.140 NA
ATOM      2  C   UNL     1       1.661  -3.615  -2.473  0.00  0.00    +0.109 C 
ATOM      3  C   UNL     1       1.051  -4.473  -1.586  0.00  0.00    +0.037 C 
ATOM      4  C   UNL     1       1.156  -5.870  -1.727  0.00  0.00    -0.014 A 
ATOM      5  C   UNL     1       0.526  -6.724  -0.811  0.00  0.00    +0.008 A 
ATOM      6  C   UNL     1       0.637  -8.088  -0.962  0.00  0.00    +0.001 A 
ATOM      7  C   UNL     1       1.365  -8.647  -2.007  0.00  0.00    +0.001 A 
ATOM      8  C   UNL     1       1.998  -7.869  -2.928  0.00  0.00    +0.010 A 
ATOM      9  C   UNL     1       1.921  -6.464  -2.828  0.00  0.00    +0.008 A 
ATOM     10  C   UNL     1       2.563  -5.643  -3.763  0.00  0.00    +0.101 C 
ATOM     11  C   UNL     1       2.446  -4.160  -3.613  0.00  0.00    +0.225 C 
ATOM     12  O   UNL     1       2.983  -3.417  -4.401  0.00  0.00    -0.284 OA
ENDROOT
BRANCH   1  13
ATOM     13  C   UNL     1       0.935  -1.798  -1.232  0.00  0.00    +0.425 C 
ATOM     14  O   UNL     1       1.322  -2.112  -0.120  0.00  0.00    -0.224 OA
BRANCH  13  15
ATOM     15  O   UNL     1      -0.111  -0.954  -1.369  0.00  0.00    -0.449 OA
BRANCH  15  17
ATOM     16  C   UNL     1      -1.873   0.467  -0.522  0.00  0.00    +0.048 C 
ATOM     17  C   UNL     1      -0.715  -0.468  -0.168  0.00  0.00    +0.230 C 
ENDBRANCH  15  17
ENDBRANCH  13  15
ENDBRANCH   1  13
BRANCH  10  18
ATOM     18  N   UNL     1       3.269  -6.179  -4.779  0.00  0.00    -0.263 N 
ATOM     19  H   UNL     1       2.970  -7.003  -5.195  0.00  0.00    +0.170 HD
BRANCH  18  20
ATOM     20  N   UNL     1       4.434  -5.547  -5.232  0.00  0.00    -0.266 N 
ATOM     21  H   UNL     1       4.694  -4.688  -4.865  0.00  0.00    +0.170 HD
BRANCH  20  22
ATOM     22  C   UNL     1       5.220  -6.153  -6.215  0.00  0.00    +0.044 A 
ATOM     23  C   UNL     1       4.846  -7.381  -6.747  0.00  0.00    +0.024 A 
ATOM     24  C   UNL     1       5.625  -7.977  -7.718  0.00  0.00    +0.002 A 
ATOM     25  C   UNL     1       6.778  -7.355  -8.161  0.00  0.00    +0.000 A 
ATOM     26  C   UNL     1       7.154  -6.133  -7.633  0.00  0.00    +0.002 A 
ATOM     27  C   UNL     1       6.376  -5.528  -6.666  0.00  0.00    +0.024 A 
ENDBRANCH  20  22
ENDBRANCH  18  20
ENDBRANCH  10  18
TORSDOF 6
