REMARK  Name = ZINC16427859
REMARK  4 active torsions:
REMARK  status: ('A' for Active; 'I' for Inactive)
REMARK    1  A    between atoms: C_6  and  N_7
REMARK    2  A    between atoms: N_7  and  C_8
REMARK    3  A    between atoms: C_10  and  N_22
REMARK    4  A    between atoms: N_22  and  C_23
REMARK                            x       y       z     vdW  Elec       q    Type
REMARK                         _______ _______ _______ _____ _____    ______ ____
ROOT
ATOM      1  C   UNL     1       3.536   6.606  -0.386  0.00  0.00    +0.084 C 
ATOM      2  C   UNL     1       2.374   5.920  -0.308  0.00  0.00    +0.072 C 
ATOM      3  C   UNL     1       1.069   6.571  -0.694  0.00  0.00    +0.297 C 
ATOM      4  O   UNL     1       0.003   6.050   0.100  0.00  0.00    -0.466 OA
ATOM      5  C   UNL     1      -0.116   4.705   0.204  0.00  0.00    +0.134 A 
ATOM      6  C   UNL     1      -1.363   4.105   0.285  0.00  0.00    +0.048 A 
ATOM      7  C   UNL     1      -1.461   2.731   0.391  0.00  0.00    +0.023 A 
ATOM      8  C   UNL     1      -0.321   1.942   0.428  0.00  0.00    +0.042 A 
ATOM      9  C   UNL     1       0.929   2.524   0.347  0.00  0.00    +0.035 A 
ATOM     10  C   UNL     1       1.037   3.907   0.233  0.00  0.00    +0.065 A 
ATOM     11  C   UNL     1       2.357   4.570   0.138  0.00  0.00    +0.199 C 
ATOM     12  O   UNL     1       3.385   3.985   0.431  0.00  0.00    -0.287 OA
ATOM     13 CL   UNL     1      -0.466   0.218   0.569  0.00  0.00    -0.084 Cl
ENDROOT
BRANCH   1  14
ATOM     14  N   UNL     1       4.724   5.962  -0.186  0.00  0.00    -0.320 N 
ATOM     15  H   UNL     1       4.741   4.998  -0.073  0.00  0.00    +0.152 HD
BRANCH  14  21
ATOM     16  C   UNL     1       5.894   8.070  -0.309  0.00  0.00    +0.024 A 
ATOM     17  C   UNL     1       7.072   8.789  -0.260  0.00  0.00    +0.022 A 
ATOM     18  C   UNL     1       8.275   8.136  -0.057  0.00  0.00    +0.041 A 
ATOM     19  C   UNL     1       8.300   6.761   0.103  0.00  0.00    +0.022 A 
ATOM     20  C   UNL     1       7.125   6.038   0.062  0.00  0.00    +0.024 A 
ATOM     21  C   UNL     1       5.916   6.691  -0.142  0.00  0.00    +0.031 A 
ATOM     22 CL   UNL     1       9.755   9.042  -0.003  0.00  0.00    -0.084 Cl
ENDBRANCH  14  21
ENDBRANCH   1  14
BRANCH   3  23
ATOM     23  N   UNL     1       0.794   6.307  -2.108  0.00  0.00    -0.306 N 
ATOM     24  H   UNL     1       1.048   5.457  -2.501  0.00  0.00    +0.150 HD
BRANCH  23  25
ATOM     25  C   UNL     1       0.165   7.279  -2.891  0.00  0.00    +0.030 A 
ATOM     26  C   UNL     1       0.014   7.080  -4.257  0.00  0.00    +0.024 A 
ATOM     27  C   UNL     1      -0.614   8.040  -5.027  0.00  0.00    +0.022 A 
ATOM     28  C   UNL     1      -1.081   9.203  -4.441  0.00  0.00    +0.041 A 
ATOM     29  C   UNL     1      -0.926   9.405  -3.081  0.00  0.00    +0.022 A 
ATOM     30  C   UNL     1      -0.305   8.447  -2.305  0.00  0.00    +0.024 A 
ATOM     31 CL   UNL     1      -1.862  10.411  -5.413  0.00  0.00    -0.084 Cl
ENDBRANCH  23  25
ENDBRANCH   3  23
TORSDOF 4
