REMARK  Name = ZINC22015008
REMARK  14 active torsions:
REMARK  status: ('A' for Active; 'I' for Inactive)
REMARK    1  A    between atoms: C_1  and  C_2
REMARK    2  A    between atoms: C_2  and  C_3
REMARK    3  A    between atoms: C_3  and  C_4
REMARK    4  A    between atoms: C_4  and  N_5
REMARK    5  A    between atoms: N_5  and  C_6
REMARK    6  A    between atoms: C_7  and  N_18
REMARK    7  A    between atoms: N_8  and  C_15
REMARK    8  A    between atoms: C_15  and  C_16
REMARK    9  A    between atoms: C_16  and  C_17
REMARK   10  A    between atoms: C_19  and  C_21
REMARK   11  A    between atoms: C_21  and  N_22
REMARK   12  A    between atoms: N_22  and  C_23
REMARK   13  A    between atoms: N_22  and  C_33
REMARK   14  A    between atoms: C_23  and  C_24
REMARK                            x       y       z     vdW  Elec       q    Type
REMARK                         _______ _______ _______ _____ _____    ______ ____
ROOT
ATOM      1  N   UNL     1      -0.530   1.488   0.984  0.00  0.00    -0.266 N 
ATOM      2  C   UNL     1      -1.444   0.757   1.656  0.00  0.00    +0.203 C 
ATOM      3  O   UNL     1      -2.104   1.270   2.535  0.00  0.00    -0.277 OA
ENDROOT
BRANCH   1   4
ATOM      4  C   UNL     1      -0.267   2.818   1.372  0.00  0.00    +0.140 A 
ATOM      5  C   UNL     1      -1.228   3.797   1.220  0.00  0.00    +0.127 A 
ATOM      6  N   UNL     1      -0.943   5.084   1.613  0.00  0.00    -0.280 N 
ATOM      7  C   UNL     1       0.261   5.387   2.130  0.00  0.00    +0.331 A 
ATOM      8  O   UNL     1       0.494   6.532   2.468  0.00  0.00    -0.246 OA
ATOM      9  N   UNL     1       1.211   4.448   2.281  0.00  0.00    -0.273 N 
ATOM     10  H   UNL     1       2.189   4.718   2.706  0.00  0.00    +0.173 HD
ATOM     11  C   UNL     1       0.982   3.171   1.917  0.00  0.00    +0.277 A 
ATOM     12  O   UNL     1       1.850   2.327   2.058  0.00  0.00    -0.266 OA
BRANCH   5  13
ATOM     13  N   UNL     1      -2.456   3.488   0.686  0.00  0.00    -0.343 N 
ATOM     14  H   UNL     1      -3.217   4.274   0.568  0.00  0.00    +0.144 HD
ATOM     15  H   UNL     1      -2.678   2.456   0.378  0.00  0.00    +0.144 HD
ENDBRANCH   5  13
BRANCH   6  16
ATOM     16  C   UNL     1      -1.956   6.132   1.462  0.00  0.00    +0.128 C 
BRANCH  16  17
ATOM     17  C   UNL     1      -1.813   6.785   0.086  0.00  0.00    +0.018 C 
ATOM     18  C   UNL     1      -2.870   7.880  -0.072  0.00  0.00    +0.005 C 
ENDBRANCH  16  17
ENDBRANCH   6  16
ENDBRANCH   1   4
BRANCH   1  19
ATOM     19  C   UNL     1       0.188   0.900  -0.150  0.00  0.00    +0.114 C 
BRANCH  19  20
ATOM     20  C   UNL     1      -0.647   1.060  -1.422  0.00  0.00    +0.019 C 
BRANCH  20  22
ATOM     21  C   UNL     1      -0.732   0.606  -3.877  0.00  0.00    +0.004 C 
ATOM     22  C   UNL     1       0.104   0.446  -2.605  0.00  0.00    -0.002 C 
ENDBRANCH  20  22
ENDBRANCH  19  20
ENDBRANCH   1  19
BRANCH   2  23
ATOM     23  C   UNL     1      -1.645  -0.698   1.315  0.00  0.00    +0.020 C 
BRANCH  23  24
ATOM     24  N   UNL     1      -2.685  -1.265   2.182  0.00  0.00    +0.390 N 
ATOM     25  H   UNL     1      -3.526  -0.557   2.209  0.00  0.00    -0.080 HD
BRANCH  24  26
ATOM     26  C   UNL     1      -3.183  -2.538   1.643  0.00  0.00    -0.067 C 
ATOM     27  C   UNL     1      -2.009  -3.513   1.420  0.00  0.00    -0.015 C 
ATOM     28  C   UNL     1      -2.382  -4.265   0.118  0.00  0.00    -0.002 C 
ATOM     29  C   UNL     1      -3.031  -3.154  -0.744  0.00  0.00    -0.002 C 
ATOM     30  C   UNL     1      -3.833  -2.309   0.267  0.00  0.00    -0.015 C 
ENDBRANCH  24  26
BRANCH  24  31
ATOM     31  C   UNL     1      -2.192  -1.432   3.556  0.00  0.00    -0.042 C 
BRANCH  31  32
ATOM     32  C   UNL     1      -3.343  -1.780   4.464  0.00  0.00    -0.060 A 
ATOM     33  C   UNL     1      -3.683  -3.104   4.671  0.00  0.00    +0.005 A 
ATOM     34  C   UNL     1      -4.737  -3.428   5.504  0.00  0.00    +0.050 A 
ATOM     35  C   UNL     1      -5.457  -2.425   6.133  0.00  0.00    +0.166 A 
ATOM     36  C   UNL     1      -5.115  -1.091   5.925  0.00  0.00    +0.166 A 
ATOM     37  C   UNL     1      -4.053  -0.774   5.093  0.00  0.00    +0.051 A 
ATOM     38  O   UNL     1      -5.965  -0.305   6.648  0.00  0.00    -0.453 OA
ATOM     39  C   UNL     1      -6.567  -1.181   7.619  0.00  0.00    +0.466 C 
ATOM     40  O   UNL     1      -6.521  -2.474   6.987  0.00  0.00    -0.453 OA
ENDBRANCH  31  32
ENDBRANCH  24  31
ENDBRANCH  23  24
ENDBRANCH   2  23
TORSDOF 12
