REMARK  Name = ZINC50393458
REMARK  3 active torsions:
REMARK  status: ('A' for Active; 'I' for Inactive)
REMARK    1  A    between atoms: C_7  and  C_11
REMARK    2  A    between atoms: C_7  and  N_14
REMARK    3  A    between atoms: N_14  and  C_15
REMARK                            x       y       z     vdW  Elec       q    Type
REMARK                         _______ _______ _______ _____ _____    ______ ____
ROOT
ATOM      1  C   UNL     1      -0.515   0.030   2.062  0.00  0.00    +0.000 A 
ATOM      2  C   UNL     1       0.638   0.559   2.612  0.00  0.00    +0.004 A 
ATOM      3  C   UNL     1       1.860  -0.023   2.343  0.00  0.00    +0.046 A 
ATOM      4  C   UNL     1       1.936  -1.141   1.519  0.00  0.00    +0.123 A 
ATOM      5  C   UNL     1       0.781  -1.667   0.967  0.00  0.00    -0.006 A 
ATOM      6  C   UNL     1      -0.443  -1.080   1.243  0.00  0.00    +0.006 A 
ATOM      7  C   UNL     1       0.821  -2.870   0.060  0.00  0.00    +0.069 C 
ATOM      8  C   UNL     1       2.151  -3.606   0.237  0.00  0.00    +0.044 C 
ATOM      9  C   UNL     1       3.285  -2.575   0.168  0.00  0.00    +0.228 C 
ATOM     10  O   UNL     1       3.156  -1.690   1.282  0.00  0.00    -0.492 OA
ENDROOT
BRANCH   7  11
ATOM     11  C   UNL     1      -0.316  -3.797   0.407  0.00  0.00    +0.350 C 
ATOM     12  O   UNL     1      -1.080  -4.178  -0.464  0.00  0.00    -0.248 OA
ATOM     13  O   UNL     1      -0.471  -4.167   1.558  0.00  0.00    -0.248 OA
ENDBRANCH   7  11
BRANCH   7  14
ATOM     14  N   UNL     1       0.685  -2.434  -1.337  0.00  0.00    +0.400 N 
ATOM     15  H   UNL     1       1.454  -1.826  -1.575  0.00  0.00    -0.083 HD
ATOM     16  H   UNL     1       0.694  -3.240  -1.943  0.00  0.00    -0.083 HD
BRANCH  14  17
ATOM     17  C   UNL     1      -0.582  -1.710  -1.503  0.00  0.00    +0.018 C 
ATOM     18  C   UNL     1      -1.252  -2.151  -2.806  0.00  0.00    -0.005 C 
ATOM     19  C   UNL     1      -2.418  -1.198  -3.098  0.00  0.00    +0.018 C 
ATOM     20  C   UNL     1      -1.851   0.185  -3.422  0.00  0.00    +0.104 C 
ATOM     21  N   UNL     1      -0.905   0.602  -2.394  0.00  0.00    -0.317 N 
ATOM     22  C   UNL     1      -0.311  -0.233  -1.543  0.00  0.00    +0.199 C 
ATOM     23  O   UNL     1       0.490   0.225  -0.757  0.00  0.00    -0.278 OA
ATOM     24  H   UNL     1      -0.694   1.547  -2.327  0.00  0.00    +0.149 HD
ENDBRANCH  14  17
ENDBRANCH   7  14
TORSDOF 3
