REMARK  Name = ZINC10042003
REMARK  11 active torsions:
REMARK  status: ('A' for Active; 'I' for Inactive)
REMARK    1  A    between atoms: C_1  and  C_2
REMARK    2  A    between atoms: C_2  and  C_3
REMARK    3  A    between atoms: C_2  and  C_4
REMARK    4  A    between atoms: C_4  and  C_6
REMARK    5  A    between atoms: C_4  and  N_22
REMARK    6  A    between atoms: N_8  and  N_9
REMARK    7  A    between atoms: C_10  and  C_11
REMARK    8  A    between atoms: C_14  and  O_17
REMARK    9  A    between atoms: O_17  and  C_18
REMARK   10  A    between atoms: C_18  and  C_19
REMARK   11  A    between atoms: C_23  and  C_25
REMARK                            x       y       z     vdW  Elec       q    Type
REMARK                         _______ _______ _______ _____ _____    ______ ____
ROOT
ATOM      1  C   UNL     1      -0.510   3.572   1.469  0.00  0.00    +0.253 C 
ATOM      2  O   UNL     1      -1.544   4.111   1.803  0.00  0.00    -0.272 OA
ATOM      3  N   UNL     1       0.527   4.314   1.033  0.00  0.00    -0.205 N 
ATOM      4  H   UNL     1       1.377   3.891   0.834  0.00  0.00    +0.177 HD
ENDROOT
BRANCH   3   5
ATOM      5  N   UNL     1       0.378   5.697   0.867  0.00  0.00    -0.188 NA
ATOM      6  C   UNL     1       1.376   6.412   0.448  0.00  0.00    +0.138 C 
BRANCH   6   7
ATOM      7  C   UNL     1       1.219   7.867   0.273  0.00  0.00    -0.005 A 
ATOM      8  C   UNL     1      -0.006   8.479   0.554  0.00  0.00    +0.013 A 
ATOM      9  C   UNL     1      -0.147   9.840   0.393  0.00  0.00    +0.046 A 
ATOM     10  C   UNL     1       0.923  10.603  -0.056  0.00  0.00    +0.121 A 
ATOM     11  C   UNL     1       2.141   9.999  -0.341  0.00  0.00    +0.046 A 
ATOM     12  C   UNL     1       2.292   8.639  -0.179  0.00  0.00    +0.013 A 
BRANCH  10  13
ATOM     13  O   UNL     1       0.778  11.944  -0.217  0.00  0.00    -0.483 OA
BRANCH  13  14
ATOM     14  C   UNL     1      -0.501  12.500   0.094  0.00  0.00    +0.324 C 
BRANCH  14  15
ATOM     15  C   UNL     1      -0.473  13.988  -0.144  0.00  0.00    +0.248 C 
ATOM     16  O   UNL     1       0.542  14.520  -0.541  0.00  0.00    -0.272 OA
ATOM     17  N   UNL     1      -1.577  14.728   0.084  0.00  0.00    -0.327 N 
ATOM     18  H   UNL     1      -2.389  14.303   0.402  0.00  0.00    +0.145 HD
ATOM     19  H   UNL     1      -1.559  15.685  -0.069  0.00  0.00    +0.145 HD
ENDBRANCH  14  15
ENDBRANCH  13  14
ENDBRANCH  10  13
ENDBRANCH   6   7
ENDBRANCH   3   5
BRANCH   1  20
ATOM     20  C   UNL     1      -0.385   2.072   1.542  0.00  0.00    +0.163 C 
BRANCH  20  21
ATOM     21  N   UNL     1      -1.424   1.537   2.425  0.00  0.00    -0.300 N 
ATOM     22  C   UNL     1      -1.239   0.355   3.046  0.00  0.00    +0.245 C 
ATOM     23  O   UNL     1      -0.209  -0.267   2.873  0.00  0.00    -0.270 OA
ATOM     24  H   UNL     1      -2.246   2.034   2.564  0.00  0.00    +0.150 HD
BRANCH  22  25
ATOM     25  C   UNL     1      -2.287  -0.184   3.937  0.00  0.00    +0.037 A 
ATOM     26  C   UNL     1      -3.468   0.532   4.143  0.00  0.00    +0.014 A 
ATOM     27  C   UNL     1      -4.446   0.020   4.970  0.00  0.00    +0.021 A 
ATOM     28  C   UNL     1      -4.252  -1.194   5.607  0.00  0.00    +0.041 A 
ATOM     29  C   UNL     1      -3.080  -1.906   5.412  0.00  0.00    +0.021 A 
ATOM     30  C   UNL     1      -2.098  -1.408   4.581  0.00  0.00    +0.014 A 
ATOM     31 CL   UNL     1      -5.484  -1.828   6.653  0.00  0.00    -0.084 Cl
ENDBRANCH  22  25
ENDBRANCH  20  21
BRANCH  20  33
ATOM     32  C   UNL     1      -1.964   1.762  -0.369  0.00  0.00    +0.009 C 
ATOM     33  C   UNL     1      -0.550   1.477   0.142  0.00  0.00    +0.012 C 
ATOM     34  C   UNL     1      -0.324  -0.035   0.200  0.00  0.00    +0.009 C 
ENDBRANCH  20  33
ENDBRANCH   1  20
TORSDOF 9
