REMARK  Name = ZINC15605262
REMARK  10 active torsions:
REMARK  status: ('A' for Active; 'I' for Inactive)
REMARK    1  A    between atoms: C_1  and  C_2
REMARK    2  A    between atoms: C_2  and  C_3
REMARK    3  A    between atoms: C_3  and  C_4
REMARK    4  A    between atoms: C_4  and  N_5
REMARK    5  A    between atoms: C_6  and  N_33
REMARK    6  A    between atoms: C_7  and  N_14
REMARK    7  A    between atoms: N_14  and  C_15
REMARK    8  A    between atoms: C_16  and  C_18
REMARK    9  A    between atoms: C_18  and  C_19
REMARK   10  A    between atoms: C_30  and  C_32
REMARK                            x       y       z     vdW  Elec       q    Type
REMARK                         _______ _______ _______ _____ _____    ______ ____
ROOT
ATOM      1  N   UNL     1       1.095   3.458  -0.173  0.00  0.00    -0.267 N 
ATOM      2  C   UNL     1       2.366   4.170  -0.332  0.00  0.00    +0.138 C 
ATOM      3  C   UNL     1      -0.063   4.148  -0.118  0.00  0.00    +0.222 C 
ATOM      4  O   UNL     1      -1.104   3.569   0.111  0.00  0.00    -0.275 OA
ENDROOT
BRANCH   1   7
ATOM      5  N   UNL     1       1.628   0.041   1.070  0.00  0.00    -0.280 N 
ATOM      6  C   UNL     1       1.656   1.415   1.005  0.00  0.00    +0.127 A 
ATOM      7  C   UNL     1       1.083   2.050  -0.078  0.00  0.00    +0.139 A 
ATOM      8  C   UNL     1       0.485   1.269  -1.085  0.00  0.00    +0.277 A 
ATOM      9  O   UNL     1      -0.025   1.805  -2.055  0.00  0.00    -0.266 OA
ATOM     10  N   UNL     1       0.485  -0.073  -0.973  0.00  0.00    -0.273 N 
ATOM     11  H   UNL     1       0.061  -0.629  -1.689  0.00  0.00    +0.173 HD
ATOM     12  C   UNL     1       1.048  -0.675   0.089  0.00  0.00    +0.331 A 
ATOM     13  O   UNL     1       1.033  -1.889   0.165  0.00  0.00    -0.246 OA
BRANCH   6  14
ATOM     14  N   UNL     1       2.248   2.146   2.007  0.00  0.00    -0.343 N 
ATOM     15  H   UNL     1       2.587   1.699   2.798  0.00  0.00    +0.144 HD
ATOM     16  H   UNL     1       2.326   3.109   1.923  0.00  0.00    +0.144 HD
ENDBRANCH   6  14
BRANCH   5  17
ATOM     17  C   UNL     1       2.232  -0.646   2.214  0.00  0.00    +0.128 C 
BRANCH  17  18
ATOM     18  C   UNL     1       3.702  -0.945   1.911  0.00  0.00    +0.021 C 
BRANCH  18  20
ATOM     19  C   UNL     1       5.802  -1.962   2.803  0.00  0.00    +0.004 C 
ATOM     20  C   UNL     1       4.333  -1.663   3.106  0.00  0.00    -0.002 C 
ENDBRANCH  18  20
ENDBRANCH  17  18
ENDBRANCH   5  17
ENDBRANCH   1   7
BRANCH   3  21
ATOM     21  C   UNL     1      -0.063   5.638  -0.342  0.00  0.00    +0.124 C 
BRANCH  21  22
ATOM     22  C   UNL     1      -1.492   6.171  -0.226  0.00  0.00    +0.120 C 
ATOM     23  C   UNL     1      -1.512   7.641  -0.566  0.00  0.00    -0.019 A 
ATOM     24  C   UNL     1      -1.655   8.059  -1.871  0.00  0.00    +0.006 A 
ATOM     25  C   UNL     1      -1.655   9.411  -2.167  0.00  0.00    +0.000 A 
ATOM     26  C   UNL     1      -1.511  10.349  -1.159  0.00  0.00    +0.001 A 
ATOM     27  C   UNL     1      -1.373   9.942   0.159  0.00  0.00    +0.008 A 
ATOM     28  C   UNL     1      -1.379   8.581   0.462  0.00  0.00    -0.019 A 
ATOM     29  C   UNL     1      -1.251   8.118   1.857  0.00  0.00    +0.023 C 
ATOM     30  C   UNL     1      -1.536   6.844   2.151  0.00  0.00    +0.079 C 
ATOM     31  N   UNL     1      -1.974   5.989   1.147  0.00  0.00    -0.270 N 
ATOM     32  C   UNL     1      -2.839   4.996   1.434  0.00  0.00    +0.217 C 
ATOM     33  O   UNL     1      -3.220   4.251   0.556  0.00  0.00    -0.276 OA
ATOM     34  C   UNL     1      -3.333   4.811   2.846  0.00  0.00    +0.109 C 
ENDBRANCH  21  22
ENDBRANCH   3  21
TORSDOF 7
