REMARK  Name = ZINC60207294
REMARK  12 active torsions:
REMARK  status: ('A' for Active; 'I' for Inactive)
REMARK    1  A    between atoms: C_1  and  C_2
REMARK    2  A    between atoms: C_2  and  N_3
REMARK    3  A    between atoms: N_3  and  C_4
REMARK    4  A    between atoms: N_3  and  S_6
REMARK    5  A    between atoms: C_4  and  C_5
REMARK    6  A    between atoms: S_6  and  C_9
REMARK    7  A    between atoms: C_15  and  C_20
REMARK    8  A    between atoms: N_22  and  C_23
REMARK    9  A    between atoms: C_23  and  C_24
REMARK   10  A    between atoms: N_29  and  C_31
REMARK   11  A    between atoms: C_31  and  C_32
REMARK   12  A    between atoms: C_31  and  C_33
REMARK                            x       y       z     vdW  Elec       q    Type
REMARK                         _______ _______ _______ _____ _____    ______ ____
ROOT
ATOM      1  C   UNL     1       3.281   0.570   1.475  0.00  0.00    +0.106 A 
ATOM      2  C   UNL     1       3.631   1.451   0.460  0.00  0.00    +0.030 A 
ATOM      3  C   UNL     1       4.312   2.614   0.744  0.00  0.00    +0.028 A 
ATOM      4  C   UNL     1       4.654   2.913   2.061  0.00  0.00    +0.050 A 
ATOM      5  C   UNL     1       4.297   2.018   3.085  0.00  0.00    +0.012 A 
ATOM      6  C   UNL     1       3.602   0.846   2.774  0.00  0.00    +0.039 A 
ATOM      7  C   UNL     1       4.657   2.330   4.476  0.00  0.00    +0.051 A 
ATOM      8  C   UNL     1       5.332   3.490   4.731  0.00  0.00    +0.083 A 
ATOM      9  C   UNL     1       5.674   4.380   3.623  0.00  0.00    +0.250 A 
ATOM     10  N   UNL     1       5.335   4.073   2.359  0.00  0.00    -0.322 N 
ATOM     11  O   UNL     1       6.276   5.415   3.849  0.00  0.00    -0.268 OA
ATOM     12  H   UNL     1       5.575   4.681   1.642  0.00  0.00    +0.169 HD
ENDROOT
BRANCH   7  13
ATOM     13  C   UNL     1       4.295   1.407   5.579  0.00  0.00    +0.245 C 
ATOM     14  O   UNL     1       3.599   0.437   5.354  0.00  0.00    -0.270 OA
ATOM     15  N   UNL     1       4.737   1.644   6.830  0.00  0.00    -0.311 N 
ATOM     16  H   UNL     1       5.230   2.457   7.024  0.00  0.00    +0.149 HD
BRANCH  15  17
ATOM     17  C   UNL     1       4.473   0.675   7.896  0.00  0.00    +0.106 C 
BRANCH  17  18
ATOM     18  C   UNL     1       5.078   1.182   9.207  0.00  0.00    -0.011 C 
ATOM     19  C   UNL     1       4.360   2.463   9.640  0.00  0.00    +0.001 C 
ATOM     20  C   UNL     1       4.919   2.918  10.991  0.00  0.00    -0.018 C 
ATOM     21  C   UNL     1       4.756   1.789  12.011  0.00  0.00    -0.078 C 
ATOM     22  N   UNL     1       5.487   0.601  11.552  0.00  0.00    +0.381 N 
ATOM     23  C   UNL     1       4.911   0.116  10.292  0.00  0.00    -0.074 C 
ATOM     24  H   UNL     1       6.457   0.840  11.406  0.00  0.00    -0.081 HD
BRANCH  22  25
ATOM     25  C   UNL     1       5.393  -0.454  12.570  0.00  0.00    -0.075 C 
ATOM     26  C   UNL     1       6.154  -1.692  12.093  0.00  0.00    -0.014 C 
ATOM     27  C   UNL     1       6.003   0.047  13.881  0.00  0.00    -0.014 C 
ENDBRANCH  22  25
ENDBRANCH  17  18
ENDBRANCH  15  17
ENDBRANCH   7  13
BRANCH   1  28
ATOM     28  S   UNL     1       2.411  -0.911   1.085  0.00  0.00    +0.061 S 
ATOM     29  O   UNL     1       2.674  -1.827   2.139  0.00  0.00    -0.153 OA
ATOM     30  O   UNL     1       2.704  -1.209  -0.273  0.00  0.00    -0.153 OA
BRANCH  28  31
ATOM     31  N   UNL     1       0.794  -0.562   1.154  0.00  0.00    -0.177 NA
BRANCH  31  33
ATOM     32  C   UNL     1       0.052   1.437  -0.045  0.00  0.00    +0.022 C 
ATOM     33  C   UNL     1       0.094  -0.092  -0.045  0.00  0.00    +0.106 C 
ENDBRANCH  31  33
BRANCH  31  34
ATOM     34  C   UNL     1       0.063  -0.722   2.413  0.00  0.00    +0.106 C 
ATOM     35  C   UNL     1      -0.606  -2.097   2.444  0.00  0.00    +0.022 C 
ENDBRANCH  31  34
ENDBRANCH  28  31
ENDBRANCH   1  28
TORSDOF 8
