REMARK  Name = ZINC58145683
REMARK  10 active torsions:
REMARK  status: ('A' for Active; 'I' for Inactive)
REMARK    1  A    between atoms: C_1  and  C_2
REMARK    2  A    between atoms: C_5  and  C_7
REMARK    3  A    between atoms: C_7  and  C_9
REMARK    4  A    between atoms: C_7  and  N_23
REMARK    5  A    between atoms: C_10  and  N_22
REMARK    6  A    between atoms: N_11  and  C_18
REMARK    7  A    between atoms: C_18  and  C_19
REMARK    8  A    between atoms: C_19  and  C_20
REMARK    9  A    between atoms: C_19  and  C_21
REMARK   10  A    between atoms: N_26  and  C_29
REMARK                            x       y       z     vdW  Elec       q    Type
REMARK                         _______ _______ _______ _____ _____    ______ ____
ROOT
ATOM      1  C   UNL     1       1.675  -3.254  -0.089  0.00  0.00    +0.162 C 
ENDROOT
BRANCH   1   2
ATOM      2  C   UNL     1       2.111  -3.401  -1.524  0.00  0.00    +0.079 A 
ATOM      3  C   UNL     1       1.804  -4.532  -2.230  0.00  0.00    +0.110 A 
ATOM      4  N   UNL     1       2.212  -4.643  -3.537  0.00  0.00    -0.281 N 
ATOM      5  C   UNL     1       2.908  -3.649  -4.119  0.00  0.00    +0.331 A 
ATOM      6  O   UNL     1       3.261  -3.764  -5.277  0.00  0.00    -0.246 OA
ATOM      7  N   UNL     1       3.217  -2.529  -3.440  0.00  0.00    -0.275 N 
ATOM      8  H   UNL     1       3.719  -1.824  -3.878  0.00  0.00    +0.173 HD
ATOM      9  C   UNL     1       2.832  -2.377  -2.158  0.00  0.00    +0.261 A 
ATOM     10  O   UNL     1       3.113  -1.358  -1.550  0.00  0.00    -0.267 OA
BRANCH   3  11
ATOM     11  N   UNL     1       1.096  -5.546  -1.637  0.00  0.00    -0.344 N 
ATOM     12  H   UNL     1       0.738  -5.429  -0.743  0.00  0.00    +0.144 HD
ATOM     13  H   UNL     1       0.953  -6.379  -2.113  0.00  0.00    +0.144 HD
ENDBRANCH   3  11
BRANCH   4  14
ATOM     14  C   UNL     1       1.889  -5.850  -4.301  0.00  0.00    +0.131 C 
BRANCH  14  15
ATOM     15  C   UNL     1       0.542  -5.664  -5.003  0.00  0.00    +0.003 C 
ATOM     16  C   UNL     1       0.263  -6.872  -5.899  0.00  0.00    +0.009 C 
ATOM     17  C   UNL     1      -0.566  -5.538  -3.956  0.00  0.00    +0.009 C 
ENDBRANCH  14  15
ENDBRANCH   4  14
ENDBRANCH   1   2
BRANCH   1  22
ATOM     18  C   UNL     1      -0.338   1.360   0.217  0.00  0.00    +0.086 C 
ATOM     19  C   UNL     1      -0.217  -0.140   0.150  0.00  0.00    +0.102 A 
ATOM     20  C   UNL     1      -1.239  -1.014   0.177  0.00  0.00    +0.045 A 
ATOM     21  C   UNL     1      -0.675  -2.308   0.091  0.00  0.00    +0.047 A 
ATOM     22  C   UNL     1       0.659  -2.147   0.016  0.00  0.00    +0.127 A 
ATOM     23  O   UNL     1       0.930  -0.832   0.046  0.00  0.00    -0.463 OA
ENDBRANCH   1  22
BRANCH   1  24
ATOM     24  N   UNL     1       2.840  -2.931   0.745  0.00  0.00    -0.286 NA
ATOM     25  C   UNL     1       3.897  -3.939   0.588  0.00  0.00    +0.104 C 
ATOM     26  C   UNL     1       5.155  -3.475   1.328  0.00  0.00    +0.120 C 
ATOM     27  N   UNL     1       4.792  -3.166   2.720  0.00  0.00    -0.327 N 
ATOM     28  C   UNL     1       3.652  -2.268   2.958  0.00  0.00    +0.120 C 
ATOM     29  C   UNL     1       2.453  -2.780   2.154  0.00  0.00    +0.104 C 
BRANCH  27  30
ATOM     30  C   UNL     1       5.511  -3.711   3.786  0.00  0.00    +0.030 A 
ATOM     31  C   UNL     1       6.657  -4.457   3.544  0.00  0.00    +0.023 A 
ATOM     32  C   UNL     1       7.365  -4.995   4.601  0.00  0.00    +0.002 A 
ATOM     33  C   UNL     1       6.934  -4.791   5.899  0.00  0.00    +0.000 A 
ATOM     34  C   UNL     1       5.794  -4.049   6.143  0.00  0.00    +0.002 A 
ATOM     35  C   UNL     1       5.084  -3.504   5.092  0.00  0.00    +0.023 A 
ENDBRANCH  27  30
ENDBRANCH   1  24
TORSDOF 7
