REMARK  Name = ZINC12541514
REMARK  8 active torsions:
REMARK  status: ('A' for Active; 'I' for Inactive)
REMARK    1  A    between atoms: C_1  and  N_2
REMARK    2  A    between atoms: C_3  and  N_36
REMARK    3  A    between atoms: C_4  and  C_11
REMARK    4  A    between atoms: N_7  and  C_10
REMARK    5  A    between atoms: C_11  and  C_13
REMARK    6  A    between atoms: C_13  and  S_14
REMARK    7  A    between atoms: S_14  and  C_15
REMARK    8  A    between atoms: N_29  and  C_30
REMARK                            x       y       z     vdW  Elec       q    Type
REMARK                         _______ _______ _______ _____ _____    ______ ____
ROOT
ATOM      1  C   UNL     1       0.680   2.175   6.731  0.00  0.00    +0.178 A 
ATOM      2  N   UNL     1      -0.569   2.416   6.387  0.00  0.00    -0.215 NA
ATOM      3  C   UNL     1      -1.315   1.469   5.830  0.00  0.00    +0.117 A 
ATOM      4  C   UNL     1      -0.823   0.177   5.584  0.00  0.00    +0.076 A 
ATOM      5  C   UNL     1      -1.766  -0.766   4.966  0.00  0.00    -0.023 A 
ATOM      6  C   UNL     1      -2.995  -0.294   4.685  0.00  0.00    -0.004 A 
ATOM      7  S   UNL     1      -2.985   1.391   5.237  0.00  0.00    -0.073 S 
ATOM      8  C   UNL     1      -4.131  -1.027   4.042  0.00  0.00    +0.043 C 
ATOM      9  C   UNL     1      -4.326  -2.378   4.742  0.00  0.00    +0.005 C 
ATOM     10  C   UNL     1      -3.456  -3.413   4.036  0.00  0.00    +0.001 C 
ATOM     11  C   UNL     1      -2.180  -2.756   3.514  0.00  0.00    +0.005 C 
ATOM     12  C   UNL     1      -1.354  -2.205   4.670  0.00  0.00    +0.037 C 
ATOM     13  C   UNL     1       0.536  -0.057   5.967  0.00  0.00    +0.268 A 
ATOM     14  O   UNL     1       1.048  -1.149   5.792  0.00  0.00    -0.267 OA
ATOM     15  N   UNL     1       1.240   0.946   6.524  0.00  0.00    -0.255 N 
ENDROOT
BRANCH  15  16
ATOM     16  C   UNL     1       2.572   0.725   6.901  0.00  0.00    +0.052 A 
ATOM     17  C   UNL     1       3.598   0.956   5.995  0.00  0.00    +0.026 A 
ATOM     18  C   UNL     1       4.910   0.742   6.370  0.00  0.00    +0.002 A 
ATOM     19  C   UNL     1       5.201   0.287   7.643  0.00  0.00    +0.000 A 
ATOM     20  C   UNL     1       4.180   0.050   8.546  0.00  0.00    +0.002 A 
ATOM     21  C   UNL     1       2.867   0.268   8.178  0.00  0.00    +0.026 A 
ENDBRANCH  15  16
BRANCH   1  22
ATOM     22  S   UNL     1       1.642   3.456   7.466  0.00  0.00    -0.079 S 
BRANCH  22  23
ATOM     23  C   UNL     1       0.422   4.793   7.485  0.00  0.00    +0.157 C 
BRANCH  23  24
ATOM     24  C   UNL     1       1.040   6.028   8.089  0.00  0.00    +0.182 C 
ATOM     25  O   UNL     1       2.193   6.006   8.470  0.00  0.00    -0.291 OA
BRANCH  24  29
ATOM     26  C   UNL     1       0.652  10.740   9.362  0.00  0.00    +0.155 C 
ATOM     27  N   UNL     1       0.070   9.507   8.827  0.00  0.00    -0.284 N 
ATOM     28  C   UNL     1       0.845   8.387   8.732  0.00  0.00    +0.116 A 
ATOM     29  C   UNL     1       0.279   7.210   8.212  0.00  0.00    +0.120 A 
ATOM     30  C   UNL     1      -1.132   7.248   7.807  0.00  0.00    +0.269 A 
ATOM     31  O   UNL     1      -1.676   6.257   7.356  0.00  0.00    -0.267 OA
ATOM     32  N   UNL     1      -1.813   8.404   7.946  0.00  0.00    -0.263 N 
ATOM     33  C   UNL     1      -1.217   9.499   8.445  0.00  0.00    +0.333 A 
ATOM     34  O   UNL     1      -1.866  10.521   8.554  0.00  0.00    -0.246 OA
ATOM     35  C   UNL     1      -3.222   8.466   7.549  0.00  0.00    +0.157 C 
BRANCH  28  36
ATOM     36  N   UNL     1       2.146   8.411   9.129  0.00  0.00    -0.344 N 
ATOM     37  H   UNL     1       2.781   7.785   8.748  0.00  0.00    +0.144 HD
ATOM     38  H   UNL     1       2.439   9.055   9.793  0.00  0.00    +0.144 HD
ENDBRANCH  28  36
ENDBRANCH  24  29
ENDBRANCH  23  24
ENDBRANCH  22  23
ENDBRANCH   1  22
TORSDOF 6
