REMARK  Name = ZINC17707404
REMARK  15 active torsions:
REMARK  status: ('A' for Active; 'I' for Inactive)
REMARK    1  A    between atoms: C_1  and  C_2
REMARK    2  A    between atoms: C_5  and  C_8
REMARK    3  A    between atoms: C_11  and  C_13
REMARK    4  A    between atoms: C_13  and  C_15
REMARK    5  A    between atoms: C_13  and  S_16
REMARK    6  A    between atoms: S_16  and  C_17
REMARK    7  A    between atoms: N_27  and  C_28
REMARK    8  A    between atoms: C_28  and  C_29
REMARK    9  A    between atoms: C_29  and  N_68
REMARK   10  A    between atoms: C_30  and  C_31
REMARK   11  A    between atoms: C_30  and  C_32
REMARK   12  A    between atoms: C_30  and  N_68
REMARK   13  A    between atoms: C_33  and  C_34
REMARK   14  A    between atoms: C_33  and  C_35
REMARK   15  A    between atoms: C_33  and  N_68
REMARK                            x       y       z     vdW  Elec       q    Type
REMARK                         _______ _______ _______ _____ _____    ______ ____
ROOT
ATOM      1  C   UNL     1       0.062   2.564   3.523  0.00  0.00    +0.173 A 
ATOM      2  N   UNL     1       0.544   2.429   4.734  0.00  0.00    -0.223 NA
ATOM      3  C   UNL     1       0.523   1.242   5.375  0.00  0.00    +0.079 A 
ATOM      4  C   UNL     1       1.037   1.098   6.667  0.00  0.00    +0.028 A 
ATOM      5  C   UNL     1       0.996  -0.123   7.278  0.00  0.00    +0.002 A 
ATOM      6  C   UNL     1       0.449  -1.226   6.636  0.00  0.00    +0.001 A 
ATOM      7  C   UNL     1      -0.062  -1.117   5.372  0.00  0.00    +0.015 A 
ATOM      8  C   UNL     1      -0.032   0.117   4.724  0.00  0.00    +0.065 A 
ATOM      9  C   UNL     1      -0.571   0.295   3.369  0.00  0.00    +0.262 A 
ATOM     10  O   UNL     1      -1.066  -0.634   2.758  0.00  0.00    -0.267 OA
ATOM     11  N   UNL     1      -0.491   1.531   2.822  0.00  0.00    -0.289 N 
ENDROOT
BRANCH   1  12
ATOM     12  S   UNL     1       0.133   4.152   2.764  0.00  0.00    -0.075 S 
BRANCH  12  13
ATOM     13  C   UNL     1       0.929   5.098   4.087  0.00  0.00    +0.139 C 
ATOM     14  C   UNL     1       0.003   5.153   5.303  0.00  0.00    +0.029 C 
BRANCH  13  18
ATOM     15  C   UNL     1       2.168   8.383   3.192  0.00  0.00    +0.248 A 
ATOM     16  N   UNL     1       0.954   8.390   2.694  0.00  0.00    -0.107 NA
ATOM     17  N   UNL     1       0.388   7.261   2.939  0.00  0.00    -0.111 NA
ATOM     18  C   UNL     1       1.209   6.498   3.605  0.00  0.00    +0.231 A 
ATOM     19  O   UNL     1       2.352   7.183   3.779  0.00  0.00    -0.419 OA
BRANCH  15  24
ATOM     20  C   UNL     1       5.994  12.674   2.925  0.00  0.00    +0.044 C 
ATOM     21  C   UNL     1       4.992  11.550   2.994  0.00  0.00    -0.050 A 
ATOM     22  C   UNL     1       3.743  11.704   2.419  0.00  0.00    +0.004 A 
ATOM     23  C   UNL     1       2.821  10.679   2.480  0.00  0.00    +0.013 A 
ATOM     24  C   UNL     1       3.151   9.485   3.123  0.00  0.00    +0.038 A 
ATOM     25  C   UNL     1       4.410   9.339   3.707  0.00  0.00    +0.013 A 
ATOM     26  C   UNL     1       5.325  10.369   3.634  0.00  0.00    +0.004 A 
ENDBRANCH  15  24
ENDBRANCH  13  18
ENDBRANCH  12  13
ENDBRANCH   1  12
BRANCH  11  27
ATOM     27  C   UNL     1      -1.009   1.764   1.471  0.00  0.00    +0.109 C 
BRANCH  27  28
ATOM     28  C   UNL     1       0.106   1.525   0.451  0.00  0.00    -0.056 C 
BRANCH  28  29
ATOM     29  N   UNL     1      -0.425   1.784  -0.904  0.00  0.00    +0.384 N 
ATOM     30  H   UNL     1      -0.873   2.708  -0.916  0.00  0.00    -0.081 HD
BRANCH  29  31
ATOM     31  C   UNL     1       0.676   1.771  -1.890  0.00  0.00    -0.074 C 
ATOM     32  C   UNL     1       1.329   3.154  -1.910  0.00  0.00    -0.014 C 
ATOM     33  C   UNL     1       1.721   0.720  -1.509  0.00  0.00    -0.014 C 
ENDBRANCH  29  31
BRANCH  29  34
ATOM     34  C   UNL     1      -1.431   0.759  -1.257  0.00  0.00    -0.074 C 
ATOM     35  C   UNL     1      -2.119   1.171  -2.560  0.00  0.00    -0.014 C 
ATOM     36  C   UNL     1      -0.764  -0.605  -1.442  0.00  0.00    -0.014 C 
ENDBRANCH  29  34
ENDBRANCH  28  29
ENDBRANCH  27  28
ENDBRANCH  11  27
TORSDOF 9
