REMARK  Name = ZINC36586814
REMARK  14 active torsions:
REMARK  status: ('A' for Active; 'I' for Inactive)
REMARK    1  A    between atoms: C_1  and  C_2
REMARK    2  A    between atoms: C_2  and  C_3
REMARK    3  A    between atoms: C_2  and  C_4
REMARK    4  A    between atoms: C_2  and  N_5
REMARK    5  A    between atoms: C_6  and  C_8
REMARK    6  A    between atoms: C_8  and  C_10
REMARK    7  A    between atoms: C_8  and  N_17
REMARK    8  A    between atoms: N_17  and  C_28
REMARK    9  A    between atoms: C_18  and  C_20
REMARK   10  A    between atoms: C_21  and  O_27
REMARK   11  A    between atoms: C_25  and  O_26
REMARK   12  A    between atoms: C_28  and  C_29
REMARK   13  A    between atoms: C_28  and  C_30
REMARK   14  A    between atoms: C_28  and  C_31
REMARK                            x       y       z     vdW  Elec       q    Type
REMARK                         _______ _______ _______ _____ _____    ______ ____
ROOT
ATOM      1  N   UNL     1       3.240   0.510  -2.861  0.00  0.00    -0.277 N 
ATOM      2  C   UNL     1       3.276  -0.096  -1.658  0.00  0.00    +0.255 C 
ATOM      3  O   UNL     1       2.412  -0.896  -1.354  0.00  0.00    -0.270 OA
ENDROOT
BRANCH   2   4
ATOM      4  C   UNL     1       4.360   0.210  -0.710  0.00  0.00    +0.119 A 
ATOM      5  C   UNL     1       4.219   1.260   0.209  0.00  0.00    +0.133 A 
ATOM      6  C   UNL     1       5.246   1.539   1.097  0.00  0.00    +0.046 A 
ATOM      7  C   UNL     1       6.406   0.788   1.077  0.00  0.00    +0.007 A 
ATOM      8  C   UNL     1       6.556  -0.248   0.175  0.00  0.00    +0.046 A 
ATOM      9  C   UNL     1       5.540  -0.549  -0.717  0.00  0.00    +0.133 A 
BRANCH   9  10
ATOM     10  O   UNL     1       5.687  -1.570  -1.598  0.00  0.00    -0.506 OA
ATOM     11  H   UNL     1       6.084  -1.309  -2.440  0.00  0.00    +0.292 HD
ENDBRANCH   9  10
BRANCH   5  12
ATOM     12  O   UNL     1       3.082   1.999   0.230  0.00  0.00    -0.506 OA
ATOM     13  H   UNL     1       2.398   1.653   0.821  0.00  0.00    +0.292 HD
ENDBRANCH   5  12
ENDBRANCH   2   4
BRANCH   1  14
ATOM     14  C   UNL     1       4.242   1.524  -3.200  0.00  0.00    +0.030 C 
ATOM     15  C   UNL     1       3.909   2.134  -4.563  0.00  0.00    +0.031 C 
ATOM     16  C   UNL     1       4.236   2.623  -2.135  0.00  0.00    +0.031 C 
ATOM     17  C   UNL     1       5.626   0.875  -3.255  0.00  0.00    +0.031 C 
ENDBRANCH   1  14
BRANCH   1  18
ATOM     18  C   UNL     1       2.200   0.155  -3.830  0.00  0.00    +0.193 C 
BRANCH  18  19
ATOM     19  C   UNL     1       2.480  -1.217  -4.387  0.00  0.00    -0.018 A 
ATOM     20  C   UNL     1       3.198  -2.133  -3.640  0.00  0.00    +0.007 A 
ATOM     21  C   UNL     1       3.455  -3.391  -4.150  0.00  0.00    +0.020 A 
ATOM     22  C   UNL     1       2.994  -3.735  -5.408  0.00  0.00    +0.041 A 
ATOM     23  C   UNL     1       2.276  -2.818  -6.155  0.00  0.00    +0.020 A 
ATOM     24  C   UNL     1       2.014  -1.562  -5.642  0.00  0.00    +0.007 A 
ATOM     25 CL   UNL     1       3.317  -5.315  -6.050  0.00  0.00    -0.084 Cl
ENDBRANCH  18  19
BRANCH  18  27
ATOM     26  N   UNL     1      -0.226  -0.325  -3.791  0.00  0.00    -0.309 N 
ATOM     27  C   UNL     1       0.857   0.156  -3.148  0.00  0.00    +0.239 C 
ATOM     28  O   UNL     1       0.750   0.589  -2.020  0.00  0.00    -0.273 OA
ATOM     29  H   UNL     1      -0.140  -0.671  -4.693  0.00  0.00    +0.149 HD
BRANCH  26  31
ATOM     30  C   UNL     1      -1.922   1.112  -2.770  0.00  0.00    +0.031 C 
ATOM     31  C   UNL     1      -1.532  -0.324  -3.128  0.00  0.00    +0.026 C 
ATOM     32  C   UNL     1      -1.457  -1.165  -1.852  0.00  0.00    +0.031 C 
ATOM     33  C   UNL     1      -2.582  -0.918  -4.069  0.00  0.00    +0.031 C 
ENDBRANCH  26  31
ENDBRANCH  18  27
ENDBRANCH   1  18
TORSDOF 8
