REMARK  Name = ZINC45681401
REMARK  11 active torsions:
REMARK  status: ('A' for Active; 'I' for Inactive)
REMARK    1  A    between atoms: C_1  and  C_2
REMARK    2  A    between atoms: C_2  and  O_3
REMARK    3  A    between atoms: O_3  and  C_4
REMARK    4  A    between atoms: C_4  and  C_6
REMARK    5  A    between atoms: C_7  and  C_19
REMARK    6  A    between atoms: C_12  and  C_14
REMARK    7  A    between atoms: C_19  and  N_20
REMARK    8  A    between atoms: N_23  and  C_26
REMARK    9  A    between atoms: C_26  and  C_28
REMARK   10  A    between atoms: C_26  and  C_29
REMARK   11  A    between atoms: N_31  and  C_32
REMARK                            x       y       z     vdW  Elec       q    Type
REMARK                         _______ _______ _______ _____ _____    ______ ____
ROOT
ATOM      1  C   UNL     1      -4.671  -4.462  -0.648  0.00  0.00    +0.082 C 
ATOM      2  C   UNL     1      -4.721  -5.746  -0.231  0.00  0.00    +0.038 C 
ATOM      3  N   UNL     1      -5.848  -6.256   0.346  0.00  0.00    -0.271 N 
ATOM      4  C   UNL     1      -6.967  -5.548   0.542  0.00  0.00    +0.304 C 
ATOM      5  O   UNL     1      -7.921  -6.090   1.065  0.00  0.00    -0.252 OA
ATOM      6  N   UNL     1      -7.071  -4.255   0.178  0.00  0.00    -0.285 N 
ATOM      7  C   UNL     1      -5.906  -3.608  -0.449  0.00  0.00    +0.179 C 
ATOM      8  H   UNL     1      -5.837  -7.184   0.630  0.00  0.00    +0.156 HD
ATOM      9  H   UNL     1      -7.892  -3.761   0.329  0.00  0.00    +0.151 HD
ENDROOT
BRANCH   7  10
ATOM     10  C   UNL     1      -5.519  -2.421   0.395  0.00  0.00    +0.130 A 
ATOM     11  C   UNL     1      -5.260  -1.182  -0.061  0.00  0.00    +0.047 A 
ATOM     12  C   UNL     1      -4.939  -0.389   1.064  0.00  0.00    +0.041 A 
ATOM     13  C   UNL     1      -5.021  -1.191   2.142  0.00  0.00    +0.195 A 
ATOM     14  O   UNL     1      -5.378  -2.419   1.731  0.00  0.00    -0.466 OA
ENDBRANCH   7  10
BRANCH   1  15
ATOM     15  C   UNL     1      -3.504  -3.932  -1.246  0.00  0.00    +0.339 C 
ATOM     16  O   UNL     1      -2.732  -3.262  -0.586  0.00  0.00    -0.245 OA
BRANCH  15  17
ATOM     17  O   UNL     1      -3.247  -4.169  -2.550  0.00  0.00    -0.462 OA
BRANCH  17  19
ATOM     18  C   UNL     1      -1.929  -3.976  -4.567  0.00  0.00    +0.048 C 
ATOM     19  C   UNL     1      -2.050  -3.603  -3.088  0.00  0.00    +0.229 C 
ENDBRANCH  17  19
ENDBRANCH  15  17
ENDBRANCH   1  15
BRANCH   2  20
ATOM     20  C   UNL     1      -3.512  -6.629  -0.406  0.00  0.00    +0.135 C 
BRANCH  20  21
ATOM     21  N   UNL     1      -3.025  -7.059   0.911  0.00  0.00    -0.300 NA
ATOM     22  C   UNL     1      -2.509  -5.918   1.680  0.00  0.00    +0.066 C 
ATOM     23  C   UNL     1      -2.067  -6.397   3.065  0.00  0.00    -0.062 C 
ATOM     24  N   UNL     1      -1.026  -7.423   2.919  0.00  0.00    +0.389 N 
ATOM     25  C   UNL     1      -1.564  -8.566   2.170  0.00  0.00    -0.062 C 
ATOM     26  C   UNL     1      -2.001  -8.105   0.778  0.00  0.00    +0.066 C 
ATOM     27  H   UNL     1      -0.239  -7.035   2.420  0.00  0.00    -0.081 HD
BRANCH  24  28
ATOM     28  C   UNL     1      -0.590  -7.870   4.248  0.00  0.00    +0.016 C 
ATOM     29  C   UNL     1      -0.115  -6.664   5.062  0.00  0.00    -0.004 C 
BRANCH  28  30
ATOM     30  C   UNL     1       0.542  -8.854   4.101  0.00  0.00    +0.199 C 
ATOM     31  O   UNL     1       1.246  -8.825   3.115  0.00  0.00    -0.278 OA
ATOM     32  N   UNL     1       0.772  -9.766   5.066  0.00  0.00    -0.314 N 
ATOM     33  H   UNL     1       0.208  -9.790   5.856  0.00  0.00    +0.149 HD
BRANCH  32  34
ATOM     34  C   UNL     1       1.872 -10.723   4.923  0.00  0.00    +0.073 C 
ATOM     35  C   UNL     1       1.593 -12.181   5.293  0.00  0.00    +0.024 C 
ATOM     36  C   UNL     1       2.465 -11.314   6.204  0.00  0.00    +0.024 C 
ENDBRANCH  32  34
ENDBRANCH  28  30
ENDBRANCH  24  28
ENDBRANCH  20  21
ENDBRANCH   2  20
TORSDOF 9
