REMARK  Name = ZINC39670304
REMARK  7 active torsions:
REMARK  status: ('A' for Active; 'I' for Inactive)
REMARK    1  A    between atoms: C_1  and  C_2
REMARK    2  A    between atoms: C_7  and  C_11
REMARK    3  A    between atoms: C_11  and  N_12
REMARK    4  A    between atoms: C_13  and  C_15
REMARK    5  A    between atoms: C_26  and  C_28
REMARK    6  A    between atoms: C_28  and  C_29
REMARK    7  A    between atoms: C_34  and  C_35
REMARK                            x       y       z     vdW  Elec       q    Type
REMARK                         _______ _______ _______ _____ _____    ______ ____
ROOT
ATOM      1  C   UNL     1       3.154  -7.368   3.688  0.00  0.00    +0.100 C 
ATOM      2  C   UNL     1       3.796  -6.243   4.529  0.00  0.00    +0.121 C 
ATOM      3  N   UNL     1       3.604  -6.670   5.935  0.00  0.00    -0.300 N 
ATOM      4  C   UNL     1       3.838  -8.134   5.911  0.00  0.00    +0.115 C 
ATOM      5  C   UNL     1       3.187  -8.609   4.596  0.00  0.00    -0.004 C 
ATOM      6  C   UNL     1       4.028  -9.710   3.958  0.00  0.00    -0.010 C 
ATOM      7  C   UNL     1       3.998 -10.953   4.851  0.00  0.00    -0.082 C 
ATOM      8  N   UNL     1       2.611 -11.404   5.019  0.00  0.00    +0.379 N 
ATOM      9  C   UNL     1       1.831 -10.375   5.718  0.00  0.00    -0.082 C 
ATOM     10  C   UNL     1       1.770  -9.108   4.861  0.00  0.00    -0.010 C 
ATOM     11  C   UNL     1       3.288  -5.902   6.997  0.00  0.00    +0.220 C 
ATOM     12  O   UNL     1       3.165  -6.404   8.094  0.00  0.00    -0.275 OA
ATOM     13  H   UNL     1       2.202 -11.575   4.112  0.00  0.00    -0.086 HD
ATOM     14  H   UNL     1       2.599 -12.257   5.557  0.00  0.00    -0.086 HD
ENDROOT
BRANCH   1  16
ATOM     15  N   UNL     1       1.176  -7.499   2.207  0.00  0.00    -0.309 N 
ATOM     16  C   UNL     1       1.732  -7.014   3.335  0.00  0.00    +0.219 C 
ATOM     17  O   UNL     1       1.088  -6.292   4.066  0.00  0.00    -0.275 OA
ATOM     18  H   UNL     1       1.692  -8.077   1.623  0.00  0.00    +0.149 HD
BRANCH  15  19
ATOM     19  C   UNL     1      -0.206  -7.155   1.865  0.00  0.00    +0.159 C 
BRANCH  19  26
ATOM     20  C   UNL     1      -1.404  -9.192  -5.155  0.00  0.00    +0.044 C 
ATOM     21  C   UNL     1      -1.385  -9.197  -3.648  0.00  0.00    -0.046 A 
ATOM     22  C   UNL     1      -1.952 -10.269  -2.938  0.00  0.00    +0.021 A 
ATOM     23  C   UNL     1      -1.936 -10.277  -1.589  0.00  0.00    +0.093 A 
ATOM     24  N   UNL     1      -1.371  -9.247  -0.895  0.00  0.00    -0.308 N 
ATOM     25  C   UNL     1      -1.221  -9.004   0.444  0.00  0.00    +0.115 A 
ATOM     26  C   UNL     1      -0.582  -7.821   0.566  0.00  0.00    +0.051 A 
ATOM     27  N   UNL     1      -0.340  -7.338  -0.655  0.00  0.00    -0.342 N 
ATOM     28  C   UNL     1      -0.809  -8.187  -1.559  0.00  0.00    +0.116 A 
ATOM     29  C   UNL     1      -0.813  -8.167  -2.968  0.00  0.00    +0.048 A 
ATOM     30  H   UNL     1       0.109  -6.501  -0.850  0.00  0.00    +0.167 HD
ENDBRANCH  19  26
ENDBRANCH  15  19
ENDBRANCH   1  16
BRANCH  11  31
ATOM     31  C   UNL     1       3.088  -4.419   6.820  0.00  0.00    +0.131 C 
BRANCH  31  32
ATOM     32  C   UNL     1       2.745  -3.797   8.149  0.00  0.00    -0.036 A 
ATOM     33  C   UNL     1       1.423  -3.605   8.502  0.00  0.00    +0.004 A 
ATOM     34  C   UNL     1       1.109  -3.034   9.722  0.00  0.00    +0.000 A 
ATOM     35  C   UNL     1       2.118  -2.655  10.588  0.00  0.00    +0.000 A 
ATOM     36  C   UNL     1       3.440  -2.848  10.235  0.00  0.00    +0.003 A 
ATOM     37  C   UNL     1       3.754  -3.423   9.018  0.00  0.00    -0.047 A 
ATOM     38  C   UNL     1       5.196  -3.638   8.635  0.00  0.00    +0.044 C 
ENDBRANCH  31  32
ENDBRANCH  11  31
TORSDOF 5
