REMARK  Name = ZINC01388552
REMARK  6 active torsions:
REMARK  status: ('A' for Active; 'I' for Inactive)
REMARK    1  A    between atoms: C_1  and  O_2
REMARK    2  A    between atoms: O_2  and  C_3
REMARK    3  A    between atoms: C_6  and  C_9
REMARK    4  A    between atoms: C_9  and  N_10
REMARK    5  A    between atoms: C_12  and  C_19
REMARK    6  A    between atoms: C_14  and  C_17
REMARK                            x       y       z     vdW  Elec       q    Type
REMARK                         _______ _______ _______ _____ _____    ______ ____
ROOT
ATOM      1  N   UNL     1      -0.721   1.571  -1.179  0.00  0.00    -0.309 N 
ATOM      2  C   UNL     1      -0.376   2.759  -1.716  0.00  0.00    +0.098 A 
ATOM      3  C   UNL     1      -1.020   3.247  -2.832  0.00  0.00    -0.000 A 
ATOM      4  C   UNL     1      -2.053   2.500  -3.424  0.00  0.00    +0.034 A 
ATOM      5  C   UNL     1      -2.402   1.276  -2.863  0.00  0.00    +0.117 A 
ATOM      6  C   UNL     1      -1.701   0.821  -1.716  0.00  0.00    +0.269 A 
ATOM      7  O   UNL     1      -1.990  -0.252  -1.213  0.00  0.00    -0.266 OA
ENDROOT
BRANCH   3   8
ATOM      8  C   UNL     1      -0.623   4.557  -3.407  0.00  0.00    -0.016 A 
ATOM      9  C   UNL     1      -0.817   5.728  -2.678  0.00  0.00    +0.010 A 
ATOM     10  C   UNL     1      -0.442   6.942  -3.215  0.00  0.00    +0.020 A 
ATOM     11  C   UNL     1       0.115   7.000  -4.481  0.00  0.00    +0.041 A 
ATOM     12  C   UNL     1       0.305   5.839  -5.212  0.00  0.00    +0.020 A 
ATOM     13  C   UNL     1      -0.062   4.619  -4.681  0.00  0.00    +0.010 A 
ATOM     14 CL   UNL     1       0.578   8.531  -5.154  0.00  0.00    -0.084 Cl
ENDBRANCH   3   8
BRANCH   5  15
ATOM     15  C   UNL     1      -3.449   0.486  -3.436  0.00  0.00    +0.105 C 
ATOM     16  N   UNL     1      -4.280  -0.141  -3.891  0.00  0.00    -0.191 NA
ENDBRANCH   5  15
BRANCH   1  17
ATOM     17  C   UNL     1      -0.013   1.086   0.008  0.00  0.00    +0.160 C 
BRANCH  17  21
ATOM     18  C   UNL     1      -2.013   2.464   3.524  0.00  0.00    +0.120 A 
ATOM     19  C   UNL     1      -2.368   1.250   2.954  0.00  0.00    +0.046 A 
ATOM     20  C   UNL     1      -1.720   0.807   1.817  0.00  0.00    +0.009 A 
ATOM     21  C   UNL     1      -0.718   1.572   1.248  0.00  0.00    -0.027 A 
ATOM     22  C   UNL     1      -0.359   2.779   1.818  0.00  0.00    +0.009 A 
ATOM     23  C   UNL     1      -1.008   3.230   2.951  0.00  0.00    +0.046 A 
BRANCH  18  25
ATOM     24  C   UNL     1      -2.232   4.161   5.174  0.00  0.00    +0.277 C 
ATOM     25  O   UNL     1      -2.649   2.902   4.642  0.00  0.00    -0.495 OA
ENDBRANCH  18  25
ENDBRANCH  17  21
ENDBRANCH   1  17
TORSDOF 5
