REMARK  Name = ZINC14539683
REMARK  14 active torsions:
REMARK  status: ('A' for Active; 'I' for Inactive)
REMARK    1  A    between atoms: C_1  and  C_2
REMARK    2  A    between atoms: C_2  and  C_3
REMARK    3  A    between atoms: C_2  and  C_4
REMARK    4  A    between atoms: C_2  and  C_27
REMARK    5  A    between atoms: C_4  and  N_65
REMARK    6  A    between atoms: C_5  and  N_65
REMARK    7  A    between atoms: C_11  and  C_15
REMARK    8  A    between atoms: N_13  and  C_14
REMARK    9  A    between atoms: N_17  and  C_18
REMARK   10  A    between atoms: N_17  and  C_19
REMARK   11  A    between atoms: C_19  and  C_20
REMARK   12  A    between atoms: C_27  and  N_68
REMARK   13  A    between atoms: C_28  and  N_68
REMARK   14  A    between atoms: C_29  and  N_68
REMARK                            x       y       z     vdW  Elec       q    Type
REMARK                         _______ _______ _______ _____ _____    ______ ____
ROOT
ATOM      1  C   UNL     1       5.473  -0.099  -2.725  0.00  0.00    -0.067 C 
ATOM      2  C   UNL     1       6.514   0.712  -1.948  0.00  0.00    -0.009 C 
ATOM      3  C   UNL     1       6.824   2.011  -2.703  0.00  0.00    +0.054 C 
ATOM      4  C   UNL     1       5.519   2.682  -3.047  0.00  0.00    +0.043 A 
ATOM      5  C   UNL     1       4.317   2.055  -3.022  0.00  0.00    +0.004 A 
ATOM      6  C   UNL     1       3.370   3.022  -3.401  0.00  0.00    +0.151 A 
ATOM      7  N   UNL     1       4.039   4.138  -3.631  0.00  0.00    -0.166 NA
ATOM      8  N   UNL     1       5.297   3.953  -3.423  0.00  0.00    -0.270 N 
ATOM      9  C   UNL     1       6.334   4.976  -3.579  0.00  0.00    +0.172 C 
ATOM     10  C   UNL     1       4.114   0.611  -2.656  0.00  0.00    +0.023 C 
ENDROOT
BRANCH   6  11
ATOM     11  C   UNL     1       1.911   2.827  -3.523  0.00  0.00    +0.267 C 
ATOM     12  O   UNL     1       1.423   1.735  -3.304  0.00  0.00    -0.268 OA
ATOM     13  N   UNL     1       1.121   3.858  -3.882  0.00  0.00    -0.295 N 
ATOM     14  C   UNL     1       1.718   5.144  -4.251  0.00  0.00    +0.132 C 
BRANCH  13  15
ATOM     15  C   UNL     1      -0.335   3.692  -3.905  0.00  0.00    +0.142 C 
BRANCH  15  16
ATOM     16  C   UNL     1      -0.903   4.056  -2.557  0.00  0.00    -0.030 A 
ATOM     17  C   UNL     1      -1.045   3.086  -1.583  0.00  0.00    +0.005 A 
ATOM     18  C   UNL     1      -1.561   3.420  -0.345  0.00  0.00    +0.000 A 
ATOM     19  C   UNL     1      -1.945   4.722  -0.085  0.00  0.00    +0.000 A 
ATOM     20  C   UNL     1      -1.808   5.691  -1.061  0.00  0.00    +0.000 A 
ATOM     21  C   UNL     1      -1.287   5.358  -2.297  0.00  0.00    +0.005 A 
ENDBRANCH  15  16
ENDBRANCH  13  15
ENDBRANCH   6  11
BRANCH   1  22
ATOM     22  N   UNL     1       5.348  -1.441  -2.127  0.00  0.00    +0.381 N 
ATOM     23  H   UNL     1       5.469  -1.372  -1.110  0.00  0.00    -0.085 HD
ATOM     24  H   UNL     1       4.417  -1.820  -2.337  0.00  0.00    -0.085 HD
BRANCH  22  25
ATOM     25  C   UNL     1       6.376  -2.345  -2.678  0.00  0.00    -0.078 C 
BRANCH  25  27
ATOM     26  C   UNL     1       6.398  -3.612  -0.525  0.00  0.00    +0.007 C 
ATOM     27  C   UNL     1       6.223  -3.727  -2.041  0.00  0.00    -0.065 C 
ATOM     28  C   UNL     1       4.831  -4.281  -2.353  0.00  0.00    +0.007 C 
BRANCH  27  29
ATOM     29  C   UNL     1       7.286  -4.671  -2.607  0.00  0.00    -0.075 C 
BRANCH  29  32
ATOM     30  C   UNL     1       9.153  -4.471  -1.079  0.00  0.00    -0.097 C 
ATOM     31  C   UNL     1       9.541  -4.481  -3.469  0.00  0.00    -0.097 C 
ATOM     32  N   UNL     1       8.616  -4.063  -2.394  0.00  0.00    +0.376 N 
ATOM     33  H   UNL     1       8.523  -3.040  -2.414  0.00  0.00    -0.083 HD
ENDBRANCH  29  32
ENDBRANCH  27  29
ENDBRANCH  25  27
ENDBRANCH  22  25
ENDBRANCH   1  22
TORSDOF 8
