REMARK  Name = ZINC39483492
REMARK  7 active torsions:
REMARK  status: ('A' for Active; 'I' for Inactive)
REMARK    1  A    between atoms: C_1  and  O_2
REMARK    2  A    between atoms: O_2  and  C_3
REMARK    3  A    between atoms: C_5  and  C_11
REMARK    4  A    between atoms: C_7  and  S_9
REMARK    5  A    between atoms: S_9  and  C_10
REMARK    6  A    between atoms: C_26  and  C_27
REMARK    7  A    between atoms: C_32  and  O_33
REMARK                            x       y       z     vdW  Elec       q    Type
REMARK                         _______ _______ _______ _____ _____    ______ ____
ROOT
ATOM      1  C   UNL     1      -2.549  -4.144   0.015  0.00  0.00    +0.015 C 
ATOM      2  C   UNL     1      -3.737  -4.771   0.125  0.00  0.00    -0.004 C 
ATOM      3  C   UNL     1      -5.009  -3.973   0.130  0.00  0.00    +0.040 C 
ATOM      4  C   UNL     1      -6.133  -4.764  -0.518  0.00  0.00    +0.026 C 
ATOM      5  C   UNL     1      -6.258  -6.163   0.041  0.00  0.00    +0.127 C 
ATOM      6  N   UNL     1      -4.995  -6.881   0.136  0.00  0.00    -0.293 N 
ATOM      7  C   UNL     1      -3.789  -6.234   0.234  0.00  0.00    +0.140 A 
ATOM      8  N   UNL     1      -2.655  -6.880   0.426  0.00  0.00    -0.228 NA
ATOM      9  C   UNL     1      -2.593  -8.217   0.492  0.00  0.00    +0.086 A 
ATOM     10  C   UNL     1      -3.778  -8.969   0.326  0.00  0.00    +0.066 A 
ATOM     11  C   UNL     1      -5.034  -8.240   0.131  0.00  0.00    +0.262 A 
ATOM     12  O   UNL     1      -6.080  -8.835  -0.046  0.00  0.00    -0.267 OA
ATOM     13  C   UNL     1      -3.734 -10.361   0.367  0.00  0.00    +0.015 A 
ATOM     14  C   UNL     1      -2.532 -11.004   0.581  0.00  0.00    +0.001 A 
ATOM     15  C   UNL     1      -1.363 -10.281   0.758  0.00  0.00    +0.011 A 
ATOM     16  C   UNL     1      -1.377  -8.892   0.718  0.00  0.00    +0.012 A 
ENDROOT
BRANCH   1  19
ATOM     17  C   UNL     1      -3.315  -0.580   0.921  0.00  0.00    +0.122 A 
ATOM     18  C   UNL     1      -3.379  -1.962   0.872  0.00  0.00    +0.053 A 
ATOM     19  C   UNL     1      -2.483  -2.674   0.070  0.00  0.00    -0.020 A 
ATOM     20  C   UNL     1      -1.525  -1.987  -0.679  0.00  0.00    +0.023 A 
ATOM     21  C   UNL     1      -1.468  -0.602  -0.624  0.00  0.00    +0.012 A 
ATOM     22  C   UNL     1      -2.366   0.100   0.172  0.00  0.00    +0.060 A 
BRANCH  17  24
ATOM     23  C   UNL     1      -4.067   1.537   1.700  0.00  0.00    +0.277 C 
ATOM     24  O   UNL     1      -4.186   0.113   1.701  0.00  0.00    -0.495 OA
ENDBRANCH  17  24
BRANCH  21  25
ATOM     25  S   UNL     1      -0.260   0.267  -1.567  0.00  0.00    -0.128 S 
ATOM     26  C   UNL     1      -0.572   2.011  -1.177  0.00  0.00    +0.090 C 
ENDBRANCH  21  25
ENDBRANCH   1  19
BRANCH  16  27
ATOM     27  C   UNL     1      -0.123  -8.127   0.910  0.00  0.00    +0.026 A 
ATOM     28  C   UNL     1       0.908  -8.227  -0.023  0.00  0.00    +0.012 A 
ATOM     29  C   UNL     1       2.074  -7.512   0.161  0.00  0.00    +0.001 A 
ATOM     30  C   UNL     1       2.224  -6.696   1.269  0.00  0.00    +0.004 A 
ATOM     31  C   UNL     1       1.209  -6.590   2.200  0.00  0.00    +0.046 A 
ATOM     32  C   UNL     1       0.030  -7.298   2.026  0.00  0.00    +0.125 A 
BRANCH  32  33
ATOM     33  O   UNL     1      -0.971  -7.190   2.938  0.00  0.00    -0.506 OA
ATOM     34  H   UNL     1      -0.918  -7.834   3.657  0.00  0.00    +0.292 HD
ENDBRANCH  32  33
ENDBRANCH  16  27
TORSDOF 5
