REMARK  Name = ZINC56945726
REMARK  13 active torsions:
REMARK  status: ('A' for Active; 'I' for Inactive)
REMARK    1  A    between atoms: C_1  and  O_2
REMARK    2  A    between atoms: O_2  and  C_3
REMARK    3  A    between atoms: C_6  and  C_11
REMARK    4  A    between atoms: C_8  and  O_9
REMARK    5  A    between atoms: O_9  and  C_10
REMARK    6  A    between atoms: C_11  and  C_12
REMARK    7  A    between atoms: C_12  and  N_13
REMARK    8  A    between atoms: C_14  and  C_16
REMARK    9  A    between atoms: N_18  and  C_19
REMARK   10  A    between atoms: C_19  and  C_20
REMARK   11  A    between atoms: C_20  and  C_22
REMARK   12  A    between atoms: C_20  and  N_27
REMARK   13  A    between atoms: N_30  and  C_33
REMARK                            x       y       z     vdW  Elec       q    Type
REMARK                         _______ _______ _______ _____ _____    ______ ____
ROOT
ATOM      1  C   UNL     1      -8.677  -4.546  -2.550  0.00  0.00    +0.299 C 
ATOM      2  O   UNL     1      -9.207  -4.828  -1.496  0.00  0.00    -0.265 OA
ATOM      3  N   UNL     1      -9.282  -4.857  -3.713  0.00  0.00    -0.306 N 
ATOM      4  H   UNL     1      -8.859  -4.631  -4.556  0.00  0.00    +0.149 HD
ENDROOT
BRANCH   1   6
ATOM      5  N   UNL     1      -6.747  -3.541  -1.396  0.00  0.00    -0.307 N 
ATOM      6  C   UNL     1      -7.353  -3.853  -2.559  0.00  0.00    +0.299 C 
ATOM      7  O   UNL     1      -6.823  -3.570  -3.613  0.00  0.00    -0.265 OA
ATOM      8  H   UNL     1      -7.171  -3.767  -0.553  0.00  0.00    +0.149 HD
BRANCH   5   9
ATOM      9  C   UNL     1      -5.449  -2.862  -1.404  0.00  0.00    +0.109 C 
BRANCH   9  10
ATOM     10  C   UNL     1      -4.987  -2.627   0.035  0.00  0.00    +0.054 C 
BRANCH  10  14
ATOM     11  C   UNL     1      -1.201  -0.638   0.010  0.00  0.00    +0.161 A 
ATOM     12  C   UNL     1      -2.374   0.099   0.019  0.00  0.00    +0.049 A 
ATOM     13  C   UNL     1      -3.596  -0.546   0.027  0.00  0.00    +0.007 A 
ATOM     14  C   UNL     1      -3.652  -1.928   0.026  0.00  0.00    -0.042 A 
ATOM     15  C   UNL     1      -2.485  -2.669   0.017  0.00  0.00    +0.053 A 
ATOM     16  C   UNL     1      -1.257  -2.028   0.003  0.00  0.00    +0.162 A 
BRANCH  11  18
ATOM     17  C   UNL     1      -0.017   1.425   0.010  0.00  0.00    +0.277 C 
ATOM     18  O   UNL     1       0.002  -0.004   0.002  0.00  0.00    -0.491 OA
ENDBRANCH  11  18
BRANCH  16  19
ATOM     19  O   UNL     1      -0.108  -2.756  -0.012  0.00  0.00    -0.491 OA
ATOM     20  C   UNL     1      -0.242  -4.179  -0.018  0.00  0.00    +0.277 C 
ENDBRANCH  16  19
ENDBRANCH  10  14
ENDBRANCH   9  10
ENDBRANCH   5   9
ENDBRANCH   1   6
BRANCH   3  21
ATOM     21  C   UNL     1     -10.580  -5.536  -3.704  0.00  0.00    +0.131 C 
BRANCH  21  22
ATOM     22  C   UNL     1     -11.042  -5.771  -5.144  0.00  0.00    +0.140 C 
BRANCH  22  23
ATOM     23  N   UNL     1     -11.055  -4.494  -5.869  0.00  0.00    -0.288 NA
ATOM     24  C   UNL     1     -11.980  -3.541  -5.241  0.00  0.00    +0.104 C 
ATOM     25  C   UNL     1     -11.831  -2.171  -5.912  0.00  0.00    +0.120 C 
ATOM     26  N   UNL     1     -12.002  -2.341  -7.363  0.00  0.00    -0.325 N 
ATOM     27  C   UNL     1     -11.206  -3.374  -8.041  0.00  0.00    +0.120 C 
ATOM     28  C   UNL     1     -11.380  -4.696  -7.287  0.00  0.00    +0.104 C 
BRANCH  26  29
ATOM     29  C   UNL     1     -12.898  -1.540  -8.078  0.00  0.00    +0.065 A 
ATOM     30  C   UNL     1     -12.469  -0.342  -8.635  0.00  0.00    +0.026 A 
ATOM     31  C   UNL     1     -13.356   0.447  -9.341  0.00  0.00    +0.002 A 
ATOM     32  C   UNL     1     -14.671   0.046  -9.494  0.00  0.00    +0.003 A 
ATOM     33  C   UNL     1     -15.103  -1.145  -8.941  0.00  0.00    +0.040 A 
ATOM     34  C   UNL     1     -14.220  -1.943  -8.238  0.00  0.00    +0.144 A 
ATOM     35  F   UNL     1     -14.640  -3.110  -7.702  0.00  0.00    -0.204 F 
ENDBRANCH  26  29
ENDBRANCH  22  23
BRANCH  22  36
ATOM     36  C   UNL     1     -12.430  -6.358  -5.136  0.00  0.00    +0.123 A 
ATOM     37  C   UNL     1     -12.735  -7.659  -5.289  0.00  0.00    +0.046 A 
ATOM     38  C   UNL     1     -14.143  -7.762  -5.216  0.00  0.00    +0.041 A 
ATOM     39  C   UNL     1     -14.615  -6.517  -5.023  0.00  0.00    +0.195 A 
ATOM     40  O   UNL     1     -13.572  -5.672  -4.970  0.00  0.00    -0.466 OA
ENDBRANCH  22  36
ENDBRANCH  21  22
ENDBRANCH   3  21
TORSDOF 11
