REMARK  Name = ZINC36076616
REMARK  14 active torsions:
REMARK  status: ('A' for Active; 'I' for Inactive)
REMARK    1  A    between atoms: C_1  and  C_2
REMARK    2  A    between atoms: C_2  and  N_3
REMARK    3  A    between atoms: N_3  and  C_4
REMARK    4  A    between atoms: N_3  and  C_6
REMARK    5  A    between atoms: C_4  and  C_5
REMARK    6  A    between atoms: C_6  and  C_8
REMARK    7  A    between atoms: C_6  and  C_15
REMARK    8  A    between atoms: C_8  and  C_9
REMARK    9  A    between atoms: C_15  and  N_16
REMARK   10  A    between atoms: C_17  and  C_19
REMARK   11  A    between atoms: C_19  and  N_20
REMARK   12  A    between atoms: C_25  and  C_32
REMARK   13  A    between atoms: C_28  and  C_30
REMARK   14  A    between atoms: C_28  and  C_31
REMARK                            x       y       z     vdW  Elec       q    Type
REMARK                         _______ _______ _______ _____ _____    ______ ____
ROOT
ATOM      1  N   UNL     1       0.336  -2.159  -3.830  0.00  0.00    -0.316 N 
ATOM      2  C   UNL     1       1.025  -2.970  -4.659  0.00  0.00    +0.231 C 
ATOM      3  O   UNL     1       1.776  -2.496  -5.484  0.00  0.00    -0.274 OA
ATOM      4  H   UNL     1      -0.208  -2.538  -3.123  0.00  0.00    +0.149 HD
ENDROOT
BRANCH   1   5
ATOM      5  C   UNL     1       0.411  -0.706  -3.999  0.00  0.00    +0.089 C 
BRANCH   5   6
ATOM      6  C   UNL     1      -0.344  -0.021  -2.858  0.00  0.00    -0.047 C 
BRANCH   6   7
ATOM      7  N   UNL     1       0.145  -0.533  -1.570  0.00  0.00    +0.382 N 
ATOM      8  H   UNL     1       0.330  -1.521  -1.650  0.00  0.00    -0.081 HD
BRANCH   7  10
ATOM      9  C   UNL     1       2.589  -0.626  -1.706  0.00  0.00    -0.017 C 
ATOM     10  C   UNL     1       1.382   0.169  -1.202  0.00  0.00    -0.082 C 
ENDBRANCH   7  10
BRANCH   7  11
ATOM     11  C   UNL     1      -0.872  -0.307  -0.535  0.00  0.00    -0.082 C 
ATOM     12  C   UNL     1      -2.100  -1.171  -0.830  0.00  0.00    -0.017 C 
ENDBRANCH   7  11
ENDBRANCH   6   7
BRANCH   6  13
ATOM     13  C   UNL     1      -0.112   1.490  -2.927  0.00  0.00    +0.021 C 
BRANCH  13  14
ATOM     14  C   UNL     1      -0.838   2.162  -1.791  0.00  0.00    -0.049 A 
ATOM     15  C   UNL     1      -2.205   2.357  -1.862  0.00  0.00    +0.003 A 
ATOM     16  C   UNL     1      -2.870   2.974  -0.820  0.00  0.00    +0.000 A 
ATOM     17  C   UNL     1      -2.170   3.396   0.294  0.00  0.00    +0.000 A 
ATOM     18  C   UNL     1      -0.803   3.201   0.366  0.00  0.00    +0.000 A 
ATOM     19  C   UNL     1      -0.138   2.580  -0.674  0.00  0.00    +0.003 A 
ENDBRANCH  13  14
ENDBRANCH   6  13
ENDBRANCH   5   6
ENDBRANCH   1   5
BRANCH   2  20
ATOM     20  C   UNL     1       0.861  -4.465  -4.558  0.00  0.00    +0.213 C 
BRANCH  20  21
ATOM     21  N   UNL     1       1.796  -5.121  -5.473  0.00  0.00    -0.215 N 
ATOM     22  C   UNL     1       1.505  -5.456  -6.749  0.00  0.00    +0.247 C 
ATOM     23  O   UNL     1       0.409  -5.433  -7.266  0.00  0.00    -0.273 OA
ATOM     24  C   UNL     1       2.821  -5.862  -7.367  0.00  0.00    +0.113 C 
ATOM     25  C   UNL     1       2.701  -7.207  -8.068  0.00  0.00    +0.038 C 
ATOM     26  C   UNL     1       1.906  -7.052  -9.365  0.00  0.00    -0.011 C 
ATOM     27  C   UNL     1       2.665  -6.105 -10.292  0.00  0.00    +0.009 C 
ATOM     28  C   UNL     1       2.808  -4.723  -9.665  0.00  0.00    -0.032 C 
ATOM     29  C   UNL     1       3.387  -4.777  -8.261  0.00  0.00    +0.041 C 
ATOM     30  C   UNL     1       1.457  -4.002  -9.668  0.00  0.00    +0.011 C 
ATOM     31  C   UNL     1       3.772  -3.903 -10.549  0.00  0.00    +0.011 C 
ATOM     32  C   UNL     1       1.768  -8.421 -10.040  0.00  0.00    +0.007 C 
ATOM     33  N   UNL     1       3.707  -6.014  -6.190  0.00  0.00    -0.285 N 
ATOM     34  C   UNL     1       3.041  -5.489  -5.147  0.00  0.00    +0.310 C 
ATOM     35  O   UNL     1       3.513  -5.363  -4.034  0.00  0.00    -0.252 OA
ATOM     36  H   UNL     1       4.587  -6.414  -6.189  0.00  0.00    +0.151 HD
ENDBRANCH  20  21
ENDBRANCH   2  20
TORSDOF 9
