REMARK  Name = ZINC39631622
REMARK  11 active torsions:
REMARK  status: ('A' for Active; 'I' for Inactive)
REMARK    1  A    between atoms: C_1  and  C_2
REMARK    2  A    between atoms: C_2  and  C_4
REMARK    3  A    between atoms: C_2  and  N_11
REMARK    4  A    between atoms: C_4  and  C_5
REMARK    5  A    between atoms: C_5  and  C_6
REMARK    6  A    between atoms: C_6  and  C_7
REMARK    7  A    between atoms: C_7  and  C_8
REMARK    8  A    between atoms: C_7  and  C_9
REMARK    9  A    between atoms: C_7  and  O_10
REMARK   10  A    between atoms: C_12  and  C_14
REMARK   11  A    between atoms: C_25  and  C_27
REMARK                            x       y       z     vdW  Elec       q    Type
REMARK                         _______ _______ _______ _____ _____    ______ ____
ROOT
ATOM      1  C   UNL     1       0.876  -1.968  -3.982  0.00  0.00    +0.100 C 
ATOM      2  C   UNL     1       1.794  -0.741  -4.175  0.00  0.00    +0.121 C 
ATOM      3  N   UNL     1       1.685  -0.414  -5.616  0.00  0.00    -0.296 N 
ATOM      4  C   UNL     1       0.253  -0.630  -5.936  0.00  0.00    +0.115 C 
ATOM      5  C   UNL     1      -0.134  -1.891  -5.139  0.00  0.00    -0.004 C 
ATOM      6  C   UNL     1      -1.553  -1.755  -4.594  0.00  0.00    -0.010 C 
ATOM      7  C   UNL     1      -2.544  -1.739  -5.761  0.00  0.00    -0.082 C 
ATOM      8  N   UNL     1      -2.413  -2.980  -6.534  0.00  0.00    +0.379 N 
ATOM      9  C   UNL     1      -1.074  -3.058  -7.132  0.00  0.00    -0.082 C 
ATOM     10  C   UNL     1      -0.021  -3.130  -6.023  0.00  0.00    -0.010 C 
ATOM     11  C   UNL     1       2.666  -0.012  -6.449  0.00  0.00    +0.248 C 
ATOM     12  O   UNL     1       2.401   0.299  -7.594  0.00  0.00    -0.270 OA
ATOM     13  H   UNL     1      -2.553  -3.772  -5.923  0.00  0.00    -0.086 HD
ATOM     14  H   UNL     1      -3.108  -2.995  -7.265  0.00  0.00    -0.086 HD
ENDROOT
BRANCH  11  15
ATOM     15  C   UNL     1       4.062   0.050  -5.970  0.00  0.00    +0.057 A 
ATOM     16  C   UNL     1       4.344   0.535  -4.691  0.00  0.00    +0.014 A 
ATOM     17  C   UNL     1       5.649   0.591  -4.249  0.00  0.00    +0.002 A 
ATOM     18  C   UNL     1       6.681   0.168  -5.070  0.00  0.00    +0.021 A 
ATOM     19  C   UNL     1       6.410  -0.314  -6.339  0.00  0.00    +0.060 A 
ATOM     20  C   UNL     1       5.106  -0.381  -6.792  0.00  0.00    +0.071 A 
ATOM     21 CL   UNL     1       4.766  -0.992  -8.381  0.00  0.00    -0.081 Cl
ATOM     22 CL   UNL     1       7.711  -0.841  -7.361  0.00  0.00    -0.082 Cl
ENDBRANCH  11  15
BRANCH   1  24
ATOM     23  N   UNL     1      -0.189  -3.016  -2.011  0.00  0.00    -0.312 N 
ATOM     24  C   UNL     1       0.163  -1.887  -2.657  0.00  0.00    +0.218 C 
ATOM     25  O   UNL     1      -0.093  -0.806  -2.171  0.00  0.00    -0.275 OA
ATOM     26  H   UNL     1       0.016  -3.881  -2.399  0.00  0.00    +0.149 HD
BRANCH  23  28
ATOM     27  C   UNL     1       0.146  -2.791   0.401  0.00  0.00    +0.028 C 
ATOM     28  C   UNL     1      -0.882  -2.938  -0.723  0.00  0.00    +0.070 C 
BRANCH  28  29
ATOM     29  C   UNL     1      -1.698  -4.213  -0.504  0.00  0.00    +0.022 C 
BRANCH  29  30
ATOM     30  C   UNL     1      -2.807  -4.296  -1.555  0.00  0.00    +0.005 C 
BRANCH  30  31
ATOM     31  C   UNL     1      -3.623  -5.572  -1.336  0.00  0.00    +0.034 C 
BRANCH  31  32
ATOM     32  C   UNL     1      -4.731  -5.655  -2.387  0.00  0.00    +0.061 C 
ATOM     33  C   UNL     1      -5.623  -6.863  -2.094  0.00  0.00    +0.041 C 
ATOM     34  C   UNL     1      -5.572  -4.378  -2.344  0.00  0.00    +0.041 C 
BRANCH  32  35
ATOM     35  O   UNL     1      -4.148  -5.797  -3.684  0.00  0.00    -0.389 OA
ATOM     36  H   UNL     1      -3.600  -6.587  -3.784  0.00  0.00    +0.210 HD
ENDBRANCH  32  35
ENDBRANCH  31  32
ENDBRANCH  30  31
ENDBRANCH  29  30
ENDBRANCH  28  29
ENDBRANCH  23  28
ENDBRANCH   1  24
TORSDOF 8
