REMARK  Name = ZINC58230902
REMARK  8 active torsions:
REMARK  status: ('A' for Active; 'I' for Inactive)
REMARK    1  A    between atoms: C_1  and  C_2
REMARK    2  A    between atoms: N_7  and  C_8
REMARK    3  A    between atoms: C_8  and  C_9
REMARK    4  A    between atoms: C_8  and  C_10
REMARK    5  A    between atoms: C_10  and  N_11
REMARK    6  A    between atoms: C_12  and  C_14
REMARK    7  A    between atoms: C_17  and  N_19
REMARK    8  A    between atoms: C_20  and  C_22
REMARK                            x       y       z     vdW  Elec       q    Type
REMARK                         _______ _______ _______ _____ _____    ______ ____
ROOT
ATOM      1  N   UNL     1       1.324   2.151   0.624  0.00  0.00    -0.312 N 
ATOM      2  C   UNL     1       1.098   3.477   0.708  0.00  0.00    +0.251 C 
ATOM      3  O   UNL     1       1.694   4.145   1.533  0.00  0.00    -0.270 OA
ATOM      4  H   UNL     1       0.911   1.632  -0.084  0.00  0.00    +0.149 HD
ENDROOT
BRANCH   2   5
ATOM      5  C   UNL     1       0.138   4.112  -0.192  0.00  0.00    +0.076 A 
ATOM      6  C   UNL     1      -0.166   5.460  -0.332  0.00  0.00    +0.022 A 
ATOM      7  C   UNL     1      -1.120   5.765  -1.268  0.00  0.00    +0.032 A 
ATOM      8  C   UNL     1      -1.694   4.739  -1.984  0.00  0.00    +0.073 A 
ATOM      9  S   UNL     1      -0.937   3.358  -1.397  0.00  0.00    -0.069 S 
BRANCH   8  10
ATOM     10  N   UNL     1      -2.669   4.826  -2.968  0.00  0.00    -0.273 N 
ATOM     11  C   UNL     1      -3.120   3.707  -3.570  0.00  0.00    +0.284 C 
ATOM     12  O   UNL     1      -2.672   2.622  -3.251  0.00  0.00    -0.266 OA
ATOM     13  H   UNL     1      -3.026   5.691  -3.222  0.00  0.00    +0.156 HD
BRANCH  11  14
ATOM     14  C   UNL     1      -4.149   3.799  -4.609  0.00  0.00    +0.189 A 
ATOM     15  C   UNL     1      -4.696   2.750  -5.292  0.00  0.00    +0.054 A 
ATOM     16  C   UNL     1      -5.634   3.293  -6.184  0.00  0.00    +0.042 A 
ATOM     17  C   UNL     1      -5.619   4.633  -6.008  0.00  0.00    +0.196 A 
ATOM     18  O   UNL     1      -4.728   4.933  -5.055  0.00  0.00    -0.458 OA
ENDBRANCH  11  14
ENDBRANCH   8  10
ENDBRANCH   2   5
BRANCH   1  19
ATOM     19  C   UNL     1       2.192   1.492   1.603  0.00  0.00    +0.089 C 
BRANCH  19  20
ATOM     20  C   UNL     1       2.173  -0.019   1.367  0.00  0.00    -0.054 C 
ATOM     21  C   UNL     1       2.995  -0.716   2.453  0.00  0.00    -0.012 C 
BRANCH  20  28
ATOM     22  C   UNL     1       1.393  -2.131  -0.311  0.00  0.00    -0.013 C 
ATOM     23  C   UNL     1       0.758  -1.930   1.066  0.00  0.00    -0.071 C 
ATOM     24  C   UNL     1      -0.691  -2.422   1.035  0.00  0.00    -0.016 C 
ATOM     25  C   UNL     1      -1.323  -2.219   2.415  0.00  0.00    -0.003 C 
ATOM     26  C   UNL     1      -1.219  -0.740   2.801  0.00  0.00    -0.019 C 
ATOM     27  C   UNL     1       0.249  -0.311   2.766  0.00  0.00    -0.078 C 
ATOM     28  N   UNL     1       0.787  -0.505   1.415  0.00  0.00    +0.384 N 
ATOM     29  H   UNL     1       0.229   0.014   0.753  0.00  0.00    -0.081 HD
ENDBRANCH  20  28
ENDBRANCH  19  20
ENDBRANCH   1  19
TORSDOF 6
