REMARK  Name = ZINC39663821
REMARK  11 active torsions:
REMARK  status: ('A' for Active; 'I' for Inactive)
REMARK    1  A    between atoms: C_1  and  C_2
REMARK    2  A    between atoms: C_5  and  C_10
REMARK    3  A    between atoms: C_14  and  C_23
REMARK    4  A    between atoms: N_25  and  C_26
REMARK    5  A    between atoms: C_26  and  C_27
REMARK    6  A    between atoms: C_27  and  C_29
REMARK    7  A    between atoms: C_27  and  N_37
REMARK    8  A    between atoms: C_32  and  O_35
REMARK    9  A    between atoms: O_35  and  C_36
REMARK   10  A    between atoms: N_37  and  C_38
REMARK   11  A    between atoms: N_37  and  C_39
REMARK                            x       y       z     vdW  Elec       q    Type
REMARK                         _______ _______ _______ _____ _____    ______ ____
ROOT
ATOM      1  C   UNL     1       0.075  -4.306  -0.016  0.00  0.00    +0.250 C 
ATOM      2  O   UNL     1       0.193  -4.931   1.020  0.00  0.00    -0.270 OA
ATOM      3  N   UNL     1      -0.030  -4.962  -1.189  0.00  0.00    -0.296 N 
ATOM      4  C   UNL     1      -0.048  -4.384  -2.554  0.00  0.00    +0.121 C 
ATOM      5  C   UNL     1       0.787  -5.367  -3.405  0.00  0.00    +0.100 C 
ATOM      6  C   UNL     1       0.712  -6.703  -2.647  0.00  0.00    -0.004 C 
ATOM      7  C   UNL     1      -0.148  -6.423  -1.406  0.00  0.00    +0.115 C 
ATOM      8  C   UNL     1       2.108  -7.151  -2.225  0.00  0.00    -0.010 C 
ATOM      9  C   UNL     1       2.013  -8.509  -1.524  0.00  0.00    -0.082 C 
ATOM     10  N   UNL     1       1.418  -9.492  -2.437  0.00  0.00    +0.379 N 
ATOM     11  C   UNL     1       0.041  -9.102  -2.765  0.00  0.00    -0.082 C 
ATOM     12  C   UNL     1       0.052  -7.769  -3.518  0.00  0.00    -0.010 C 
ATOM     13  H   UNL     1       1.964  -9.537  -3.284  0.00  0.00    -0.086 HD
ATOM     14  H   UNL     1       1.413 -10.399  -1.995  0.00  0.00    -0.086 HD
ENDROOT
BRANCH   1  19
ATOM     15  C   UNL     1      -0.038   1.448   0.081  0.00  0.00    +0.047 C 
ATOM     16  C   UNL     1      -0.007  -0.058   0.057  0.00  0.00    -0.012 A 
ATOM     17  C   UNL     1      -0.623  -0.744  -0.976  0.00  0.00    +0.007 A 
ATOM     18  C   UNL     1      -0.600  -2.122  -1.005  0.00  0.00    +0.016 A 
ATOM     19  C   UNL     1       0.048  -2.830   0.010  0.00  0.00    +0.075 A 
ATOM     20  C   UNL     1       0.669  -2.135   1.051  0.00  0.00    +0.171 A 
ATOM     21  C   UNL     1       0.642  -0.749   1.065  0.00  0.00    +0.162 A 
ATOM     22  F   UNL     1       1.246  -0.073   2.067  0.00  0.00    -0.202 F 
ATOM     23  F   UNL     1       1.297  -2.811   2.038  0.00  0.00    -0.202 F 
ENDBRANCH   1  19
BRANCH   5  24
ATOM     24  C   UNL     1       0.190  -5.507  -4.781  0.00  0.00    +0.218 C 
ATOM     25  O   UNL     1      -0.991  -5.289  -4.955  0.00  0.00    -0.275 OA
ATOM     26  N   UNL     1       0.967  -5.875  -5.819  0.00  0.00    -0.316 N 
ATOM     27  H   UNL     1       1.911  -6.050  -5.679  0.00  0.00    +0.149 HD
BRANCH  26  28
ATOM     28  C   UNL     1       0.387  -6.011  -7.157  0.00  0.00    +0.093 C 
BRANCH  28  29
ATOM     29  C   UNL     1       1.496  -6.313  -8.166  0.00  0.00    -0.021 C 
BRANCH  29  30
ATOM     30  C   UNL     1       2.489  -5.179  -8.176  0.00  0.00    -0.059 A 
ATOM     31  C   UNL     1       2.207  -4.021  -8.876  0.00  0.00    +0.005 A 
ATOM     32  C   UNL     1       3.115  -2.980  -8.887  0.00  0.00    +0.046 A 
ATOM     33  C   UNL     1       4.311  -3.098  -8.194  0.00  0.00    +0.120 A 
ATOM     34  C   UNL     1       4.591  -4.261  -7.491  0.00  0.00    +0.046 A 
ATOM     35  C   UNL     1       3.678  -5.296  -7.479  0.00  0.00    +0.005 A 
BRANCH  33  36
ATOM     36  O   UNL     1       5.206  -2.075  -8.203  0.00  0.00    -0.495 OA
ATOM     37  C   UNL     1       6.416  -2.266  -7.467  0.00  0.00    +0.277 C 
ENDBRANCH  33  36
ENDBRANCH  29  30
BRANCH  29  38
ATOM     38  N   UNL     1       0.913  -6.465  -9.505  0.00  0.00    +0.382 N 
ATOM     39  C   UNL     1       1.960  -6.868 -10.453  0.00  0.00    -0.096 C 
ATOM     40  C   UNL     1      -0.137  -7.491  -9.469  0.00  0.00    -0.096 C 
ATOM     41  H   UNL     1       0.513  -5.586  -9.800  0.00  0.00    -0.082 HD
ENDBRANCH  29  38
ENDBRANCH  28  29
ENDBRANCH  26  28
ENDBRANCH   5  24
TORSDOF 7
