REMARK  Name = ZINC21589850
REMARK  6 active torsions:
REMARK  status: ('A' for Active; 'I' for Inactive)
REMARK    1  A    between atoms: C_4  and  N_29
REMARK    2  A    between atoms: C_5  and  C_7
REMARK    3  A    between atoms: C_7  and  C_8
REMARK    4  A    between atoms: C_8  and  C_9
REMARK    5  A    between atoms: C_8  and  C_19
REMARK    6  A    between atoms: C_30  and  C_32
REMARK                            x       y       z     vdW  Elec       q    Type
REMARK                         _______ _______ _______ _____ _____    ______ ____
ROOT
ATOM      1  C   UNL     1      -3.850  -0.278   0.234  0.00  0.00    +0.057 C 
ENDROOT
BRANCH   1   2
ATOM      2  C   UNL     1      -3.672   1.217   0.181  0.00  0.00    -0.015 A 
ATOM      3  C   UNL     1      -4.591   2.143   0.496  0.00  0.00    +0.087 A 
ATOM      4  N   UNL     1      -4.066   3.396   0.337  0.00  0.00    -0.360 N 
ATOM      5  H   UNL     1      -4.678   4.282   0.560  0.00  0.00    +0.165 HD
ATOM      6  C   UNL     1      -2.766   3.305  -0.108  0.00  0.00    +0.047 A 
ATOM      7  C   UNL     1      -2.461   1.937  -0.223  0.00  0.00    +0.003 A 
ATOM      8  C   UNL     1      -1.194   1.539  -0.652  0.00  0.00    +0.010 A 
ATOM      9  C   UNL     1      -0.257   2.482  -0.969  0.00  0.00    +0.001 A 
ATOM     10  C   UNL     1      -0.554   3.834  -0.861  0.00  0.00    +0.002 A 
ATOM     11  C   UNL     1      -1.797   4.249  -0.435  0.00  0.00    +0.026 A 
ENDBRANCH   1   2
BRANCH   1  12
ATOM     12  C   UNL     1      -4.847  -0.702  -0.814  0.00  0.00    -0.015 A 
ATOM     13  C   UNL     1      -6.128  -0.312  -0.901  0.00  0.00    +0.087 A 
ATOM     14  N   UNL     1      -6.723  -0.901  -1.984  0.00  0.00    -0.360 N 
ATOM     15  H   UNL     1      -7.777  -0.690  -2.216  0.00  0.00    +0.165 HD
ATOM     16  C   UNL     1      -5.817  -1.712  -2.631  0.00  0.00    +0.047 A 
ATOM     17  C   UNL     1      -4.602  -1.623  -1.927  0.00  0.00    +0.003 A 
ATOM     18  C   UNL     1      -3.491  -2.347  -2.361  0.00  0.00    +0.010 A 
ATOM     19  C   UNL     1      -3.589  -3.141  -3.469  0.00  0.00    +0.001 A 
ATOM     20  C   UNL     1      -4.785  -3.232  -4.168  0.00  0.00    +0.002 A 
ATOM     21  C   UNL     1      -5.894  -2.526  -3.757  0.00  0.00    +0.026 A 
ENDBRANCH   1  12
BRANCH   1  22
ATOM     22  C   UNL     1      -4.362  -0.682   1.618  0.00  0.00    +0.050 C 
BRANCH  22  27
ATOM     23  C   UNL     1      -2.461   1.057   4.378  0.00  0.00    +0.000 A 
ATOM     24  C   UNL     1      -1.385   0.207   4.555  0.00  0.00    +0.002 A 
ATOM     25  C   UNL     1      -1.268  -0.932   3.784  0.00  0.00    +0.023 A 
ATOM     26  C   UNL     1      -2.233  -1.224   2.829  0.00  0.00    +0.037 A 
ATOM     27  C   UNL     1      -3.313  -0.369   2.653  0.00  0.00    -0.025 A 
ATOM     28  C   UNL     1      -3.421   0.772   3.424  0.00  0.00    +0.005 A 
BRANCH  26  29
ATOM     29  N   UNL     1      -2.118  -2.378   2.045  0.00  0.00    -0.285 N 
ATOM     30  C   UNL     1      -1.319  -3.387   2.445  0.00  0.00    +0.222 C 
ATOM     31  O   UNL     1      -0.776  -3.338   3.528  0.00  0.00    -0.275 OA
ATOM     32  H   UNL     1      -2.679  -2.461   1.102  0.00  0.00    +0.155 HD
BRANCH  30  33
ATOM     33  C   UNL     1      -1.101  -4.577   1.546  0.00  0.00    +0.098 C 
ATOM     34  C   UNL     1      -0.054  -4.223   0.476  0.00  0.00    +0.037 C 
ATOM     35  C   UNL     1       0.380  -5.538  -0.231  0.00  0.00    +0.166 C 
ATOM     36  S   UNL     1       0.480  -6.679   1.213  0.00  0.00    -0.030 S 
ATOM     37  O   UNL     1       1.810  -6.674   1.714  0.00  0.00    -0.174 OA
ATOM     38  O   UNL     1      -0.135  -7.913   0.870  0.00  0.00    -0.174 OA
ATOM     39  C   UNL     1      -0.606  -5.775   2.390  0.00  0.00    +0.178 C 
ENDBRANCH  30  33
ENDBRANCH  26  29
ENDBRANCH  22  27
ENDBRANCH   1  22
TORSDOF 6
