REMARK  Name = ZINC39993993
REMARK  6 active torsions:
REMARK  status: ('A' for Active; 'I' for Inactive)
REMARK    1  A    between atoms: C_5  and  N_7
REMARK    2  A    between atoms: N_10  and  C_13
REMARK    3  A    between atoms: C_14  and  C_24
REMARK    4  A    between atoms: C_25  and  C_26
REMARK    5  A    between atoms: C_25  and  C_28
REMARK    6  A    between atoms: N_30  and  C_31
REMARK                            x       y       z     vdW  Elec       q    Type
REMARK                         _______ _______ _______ _____ _____    ______ ____
ROOT
ATOM      1  C   UNL     1       0.094  -5.966  -0.039  0.00  0.00    +0.136 A 
ATOM      2  C   UNL     1       0.016  -6.661  -1.274  0.00  0.00    +0.081 A 
ATOM      3  C   UNL     1       0.068  -8.079  -1.251  0.00  0.00    +0.267 A 
ATOM      4  O   UNL     1       0.005  -8.718  -2.286  0.00  0.00    -0.267 OA
ATOM      5  N   UNL     1       0.190  -8.707  -0.061  0.00  0.00    -0.268 N 
ATOM      6  C   UNL     1       0.241 -10.069  -0.030  0.00  0.00    +0.096 A 
ATOM      7  C   UNL     1       0.363 -10.731   1.143  0.00  0.00    +0.018 A 
ATOM      8  C   UNL     1       0.437 -10.018   2.347  0.00  0.00    +0.005 A 
ATOM      9  C   UNL     1       0.387  -8.655   2.326  0.00  0.00    +0.047 A 
ATOM     10  C   UNL     1       0.261  -7.985   1.096  0.00  0.00    +0.142 A 
ATOM     11  N   UNL     1       0.217  -6.651   1.087  0.00  0.00    -0.214 NA
ENDROOT
BRANCH   1  15
ATOM     12  N   UNL     1      -0.039  -2.158   1.228  0.00  0.00    -0.325 N 
ATOM     13  C   UNL     1      -1.278  -2.948   1.209  0.00  0.00    +0.124 C 
ATOM     14  C   UNL     1      -1.242  -3.887  -0.003  0.00  0.00    +0.125 C 
ATOM     15  N   UNL     1       0.048  -4.592  -0.013  0.00  0.00    -0.312 N 
ATOM     16  C   UNL     1       1.287  -3.802   0.006  0.00  0.00    +0.125 C 
ATOM     17  C   UNL     1       1.251  -2.862   1.212  0.00  0.00    +0.124 C 
BRANCH  12  22
ATOM     18  C   UNL     1      -0.157   1.338   0.096  0.00  0.00    +0.002 A 
ATOM     19  C   UNL     1      -0.178   2.006   1.306  0.00  0.00    +0.003 A 
ATOM     20  C   UNL     1      -0.153   1.295   2.492  0.00  0.00    +0.040 A 
ATOM     21  C   UNL     1      -0.107  -0.086   2.471  0.00  0.00    +0.144 A 
ATOM     22  C   UNL     1      -0.086  -0.760   1.254  0.00  0.00    +0.065 A 
ATOM     23  C   UNL     1      -0.111  -0.042   0.066  0.00  0.00    +0.026 A 
ATOM     24  F   UNL     1      -0.083  -0.781   3.629  0.00  0.00    -0.204 F 
ENDBRANCH  12  22
ENDBRANCH   1  15
BRANCH   2  25
ATOM     25  C   UNL     1      -0.111  -5.963  -2.487  0.00  0.00    +0.040 C 
ATOM     26  C   UNL     1      -1.268  -6.091  -3.244  0.00  0.00    +0.114 C 
BRANCH  26  27
ATOM     27  C   UNL     1      -1.355  -5.456  -4.562  0.00  0.00    +0.259 C 
ATOM     28  O   UNL     1      -0.413  -4.818  -4.994  0.00  0.00    -0.269 OA
ATOM     29  N   UNL     1      -2.479  -5.580  -5.297  0.00  0.00    -0.281 N 
ATOM     30  H   UNL     1      -3.205  -6.140  -4.982  0.00  0.00    +0.155 HD
BRANCH  29  31
ATOM     31  C   UNL     1      -2.598  -4.899  -6.514  0.00  0.00    +0.034 A 
ATOM     32  C   UNL     1      -3.829  -4.393  -6.910  0.00  0.00    +0.026 A 
ATOM     33  C   UNL     1      -3.944  -3.722  -8.112  0.00  0.00    +0.040 A 
ATOM     34  C   UNL     1      -2.833  -3.553  -8.921  0.00  0.00    +0.124 A 
ATOM     35  C   UNL     1      -1.605  -4.056  -8.527  0.00  0.00    +0.040 A 
ATOM     36  C   UNL     1      -1.484  -4.723  -7.324  0.00  0.00    +0.026 A 
ATOM     37  F   UNL     1      -2.948  -2.896 -10.096  0.00  0.00    -0.205 F 
ENDBRANCH  29  31
ENDBRANCH  26  27
BRANCH  26  38
ATOM     38  C   UNL     1      -2.377  -6.842  -2.736  0.00  0.00    +0.104 C 
ATOM     39  N   UNL     1      -3.256  -7.437  -2.333  0.00  0.00    -0.191 NA
ENDBRANCH  26  38
ENDBRANCH   2  25
TORSDOF 6
