REMARK  Name = ZINC40701944
REMARK  6 active torsions:
REMARK  status: ('A' for Active; 'I' for Inactive)
REMARK    1  A    between atoms: C_1  and  C_2
REMARK    2  A    between atoms: C_2  and  N_3
REMARK    3  A    between atoms: N_3  and  C_4
REMARK    4  A    between atoms: C_15  and  N_28
REMARK    5  A    between atoms: C_16  and  N_20
REMARK    6  A    between atoms: C_24  and  C_27
REMARK                            x       y       z     vdW  Elec       q    Type
REMARK                         _______ _______ _______ _____ _____    ______ ____
ROOT
ATOM      1  N   UNL     1       0.645  -0.590  -1.155  0.00  0.00    -0.285 N 
ATOM      2  C   UNL     1      -0.143  -0.741  -2.290  0.00  0.00    +0.129 A 
ATOM      3  C   UNL     1      -1.500  -0.413  -2.260  0.00  0.00    +0.104 A 
ATOM      4  C   UNL     1      -2.245  -0.584  -3.429  0.00  0.00    +0.147 A 
ATOM      5  N   UNL     1      -1.638  -1.048  -4.519  0.00  0.00    -0.221 NA
ATOM      6  C   UNL     1      -0.354  -1.345  -4.504  0.00  0.00    +0.200 A 
ATOM      7  N   UNL     1       0.386  -1.194  -3.425  0.00  0.00    -0.332 N 
ATOM      8  H   UNL     1       1.329  -1.420  -3.456  0.00  0.00    +0.168 HD
ENDROOT
BRANCH   1   9
ATOM      9  C   UNL     1       0.881  -1.682  -0.321  0.00  0.00    +0.043 A 
ATOM     10  C   UNL     1       0.028  -1.955   0.727  0.00  0.00    +0.024 A 
ATOM     11  C   UNL     1       0.256  -3.042   1.565  0.00  0.00    +0.002 A 
ATOM     12  C   UNL     1       1.324  -3.865   1.375  0.00  0.00    +0.008 A 
ATOM     13  C   UNL     1       2.218  -3.622   0.318  0.00  0.00    -0.016 A 
ATOM     14  C   UNL     1       1.994  -2.522  -0.545  0.00  0.00    +0.003 A 
ATOM     15  C   UNL     1       2.885  -2.283  -1.603  0.00  0.00    +0.010 A 
ATOM     16  C   UNL     1       3.947  -3.114  -1.790  0.00  0.00    +0.001 A 
ATOM     17  C   UNL     1       4.165  -4.200  -0.945  0.00  0.00    +0.001 A 
ATOM     18  C   UNL     1       3.329  -4.454   0.098  0.00  0.00    +0.008 A 
ENDBRANCH   1   9
BRANCH   4  19
ATOM     19  N   UNL     1      -3.599  -0.274  -3.453  0.00  0.00    -0.313 N 
ATOM     20  C   UNL     1      -4.049   1.095  -3.741  0.00  0.00    +0.106 C 
ATOM     21  C   UNL     1      -5.056   1.051  -4.895  0.00  0.00    +0.019 C 
ATOM     22  C   UNL     1      -6.185   0.080  -4.545  0.00  0.00    +0.006 C 
ATOM     23  C   UNL     1      -5.609  -1.325  -4.352  0.00  0.00    +0.003 C 
ATOM     24  C   UNL     1      -4.609  -1.310  -3.198  0.00  0.00    +0.109 C 
ATOM     25  C   UNL     1      -6.743  -2.303  -4.035  0.00  0.00    +0.009 C 
ENDBRANCH   4  19
BRANCH   3  26
ATOM     26  N   UNL     1      -2.099   0.073  -1.087  0.00  0.00    -0.353 N 
ATOM     27  H   UNL     1      -1.552   0.280  -0.314  0.00  0.00    +0.143 HD
ATOM     28  H   UNL     1      -3.060   0.201  -1.051  0.00  0.00    +0.143 HD
ENDBRANCH   3  26
BRANCH   1  30
ATOM     29  C   UNL     1       2.612   0.828  -1.473  0.00  0.00    +0.025 C 
ATOM     30  C   UNL     1       1.226   0.716  -0.834  0.00  0.00    +0.109 C 
ENDBRANCH   1  30
TORSDOF 4
