REMARK  Name = ZINC35615730
REMARK  12 active torsions:
REMARK  status: ('A' for Active; 'I' for Inactive)
REMARK    1  A    between atoms: C_1  and  C_2
REMARK    2  A    between atoms: C_4  and  C_31
REMARK    3  A    between atoms: C_6  and  N_24
REMARK    4  A    between atoms: C_7  and  C_11
REMARK    5  A    between atoms: C_13  and  C_21
REMARK    6  A    between atoms: C_14  and  O_20
REMARK    7  A    between atoms: C_15  and  C_17
REMARK    8  A    between atoms: C_17  and  C_18
REMARK    9  A    between atoms: C_17  and  C_19
REMARK   10  A    between atoms: C_21  and  C_22
REMARK   11  A    between atoms: C_21  and  C_23
REMARK   12  A    between atoms: N_24  and  C_25
REMARK                            x       y       z     vdW  Elec       q    Type
REMARK                         _______ _______ _______ _____ _____    ______ ____
ROOT
ATOM      1  C   UNL     1       4.082  -0.240  -1.410  0.00  0.00    +0.066 C 
ATOM      2  C   UNL     1       3.308  -1.467  -1.005  0.00  0.00    +0.044 A 
ATOM      3  C   UNL     1       2.390  -2.039  -1.900  0.00  0.00    +0.044 A 
ATOM      4  C   UNL     1       1.698  -3.142  -1.527  0.00  0.00    +0.027 A 
ATOM      5  N   UNL     1       1.912  -3.673  -0.285  0.00  0.00    -0.269 N 
ATOM      6  C   UNL     1       1.379  -4.754   0.362  0.00  0.00    +0.137 A 
ATOM      7  C   UNL     1       1.975  -4.806   1.604  0.00  0.00    +0.113 A 
ATOM      8  N   UNL     1       2.843  -3.781   1.694  0.00  0.00    -0.208 NA
ATOM      9  C   UNL     1       2.820  -3.087   0.568  0.00  0.00    +0.237 A 
ATOM     10  N   UNL     1       3.500  -1.997   0.180  0.00  0.00    -0.217 NA
ATOM     11  C   UNL     1       0.707  -3.776  -2.469  0.00  0.00    +0.064 C 
ENDROOT
BRANCH   7  12
ATOM     12  C   UNL     1       1.707  -5.815   2.656  0.00  0.00    +0.005 A 
ATOM     13  C   UNL     1       0.415  -6.306   2.841  0.00  0.00    +0.017 A 
ATOM     14  C   UNL     1       0.169  -7.245   3.821  0.00  0.00    -0.002 A 
ATOM     15  C   UNL     1       1.206  -7.701   4.623  0.00  0.00    +0.124 A 
ATOM     16  C   UNL     1       2.494  -7.214   4.442  0.00  0.00    -0.002 A 
ATOM     17  C   UNL     1       2.748  -6.279   3.461  0.00  0.00    +0.017 A 
BRANCH  16  18
ATOM     18  C   UNL     1       3.616  -7.712   5.316  0.00  0.00    +0.016 C 
ATOM     19  C   UNL     1       4.689  -8.366   4.444  0.00  0.00    +0.012 C 
ATOM     20  C   UNL     1       4.227  -6.536   6.081  0.00  0.00    +0.012 C 
ENDBRANCH  16  18
BRANCH  14  21
ATOM     21  C   UNL     1      -1.227  -7.776   4.022  0.00  0.00    +0.016 C 
ATOM     22  C   UNL     1      -2.154  -6.630   4.431  0.00  0.00    +0.012 C 
ATOM     23  C   UNL     1      -1.729  -8.397   2.716  0.00  0.00    +0.012 C 
ENDBRANCH  14  21
BRANCH  15  24
ATOM     24  O   UNL     1       0.961  -8.626   5.588  0.00  0.00    -0.506 OA
ATOM     25  H   UNL     1       1.053  -9.541   5.288  0.00  0.00    +0.292 HD
ENDBRANCH  15  24
ENDBRANCH   7  12
BRANCH   6  26
ATOM     26  N   UNL     1       0.417  -5.633  -0.138  0.00  0.00    -0.299 N 
ATOM     27  H   UNL     1      -0.504  -5.343  -0.231  0.00  0.00    +0.154 HD
BRANCH  26  28
ATOM     28  C   UNL     1       0.781  -6.930  -0.505  0.00  0.00    +0.032 A 
ATOM     29  C   UNL     1       2.117  -7.312  -0.482  0.00  0.00    +0.023 A 
ATOM     30  C   UNL     1       2.473  -8.596  -0.845  0.00  0.00    +0.002 A 
ATOM     31  C   UNL     1       1.501  -9.502  -1.231  0.00  0.00    +0.000 A 
ATOM     32  C   UNL     1       0.171  -9.125  -1.254  0.00  0.00    +0.002 A 
ATOM     33  C   UNL     1      -0.193  -7.845  -0.887  0.00  0.00    +0.023 A 
ENDBRANCH  26  28
ENDBRANCH   6  26
TORSDOF 6
