REMARK  Name = ZINC12833827
REMARK  15 active torsions:
REMARK  status: ('A' for Active; 'I' for Inactive)
REMARK    1  A    between atoms: C_1  and  C_2
REMARK    2  A    between atoms: C_2  and  O_3
REMARK    3  A    between atoms: O_3  and  C_4
REMARK    4  A    between atoms: C_7  and  C_10
REMARK    5  A    between atoms: C_10  and  N_77
REMARK    6  A    between atoms: C_11  and  C_12
REMARK    7  A    between atoms: C_11  and  N_77
REMARK    8  A    between atoms: C_18  and  C_20
REMARK    9  A    between atoms: C_18  and  C_33
REMARK   10  A    between atoms: C_18  and  N_77
REMARK   11  A    between atoms: C_24  and  C_32
REMARK   12  A    between atoms: N_37  and  C_38
REMARK   13  A    between atoms: C_38  and  C_39
REMARK   14  A    between atoms: C_38  and  C_40
REMARK   15  A    between atoms: C_38  and  C_41
REMARK                            x       y       z     vdW  Elec       q    Type
REMARK                         _______ _______ _______ _____ _____    ______ ____
ROOT
ATOM      1  C   UNL     1       5.278  -2.689   0.229  0.00  0.00    +0.039 C 
ENDROOT
BRANCH   1   2
ATOM      2  C   UNL     1       3.799  -2.406   0.279  0.00  0.00    +0.011 A 
ATOM      3  C   UNL     1       2.980  -2.925  -0.669  0.00  0.00    +0.017 A 
ATOM      4  C   UNL     1       1.548  -2.630  -0.593  0.00  0.00    -0.001 A 
ATOM      5  C   UNL     1       0.653  -3.136  -1.543  0.00  0.00    +0.013 A 
ATOM      6  C   UNL     1      -0.677  -2.844  -1.443  0.00  0.00    -0.050 A 
ATOM      7  C   UNL     1      -1.150  -2.047  -0.408  0.00  0.00    +0.005 A 
ATOM      8  C   UNL     1      -0.287  -1.538   0.537  0.00  0.00    +0.026 A 
ATOM      9  C   UNL     1       1.072  -1.822   0.457  0.00  0.00    +0.049 A 
ATOM     10  N   UNL     1       1.958  -1.326   1.389  0.00  0.00    -0.322 N 
ATOM     11  H   UNL     1       1.628  -0.769   2.112  0.00  0.00    +0.169 HD
ATOM     12  C   UNL     1       3.271  -1.601   1.311  0.00  0.00    +0.251 A 
ATOM     13  O   UNL     1       4.025  -1.145   2.153  0.00  0.00    -0.268 OA
ATOM     14  C   UNL     1      -1.640  -3.390  -2.465  0.00  0.00    +0.044 C 
ENDBRANCH   1   2
BRANCH   1  15
ATOM     15  C   UNL     1       5.569  -3.645  -0.899  0.00  0.00    +0.143 A 
ATOM     16  N   UNL     1       5.123  -4.872  -1.020  0.00  0.00    -0.115 NA
ATOM     17  N   UNL     1       5.593  -5.359  -2.116  0.00  0.00    -0.023 NA
ATOM     18  N   UNL     1       6.327  -4.476  -2.698  0.00  0.00    -0.043 NA
ATOM     19  N   UNL     1       6.333  -3.403  -1.981  0.00  0.00    -0.225 N 
BRANCH  19  20
ATOM     20  C   UNL     1       7.041  -2.157  -2.285  0.00  0.00    +0.059 C 
ATOM     21  C   UNL     1       8.045  -1.856  -1.170  0.00  0.00    +0.036 C 
ATOM     22  C   UNL     1       7.784  -2.304  -3.614  0.00  0.00    +0.036 C 
ATOM     23  C   UNL     1       6.034  -1.010  -2.388  0.00  0.00    +0.036 C 
ENDBRANCH  19  20
ENDBRANCH   1  15
BRANCH   1  24
ATOM     24  N   UNL     1       5.695  -3.272   1.522  0.00  0.00    +0.394 N 
ATOM     25  H   UNL     1       5.349  -2.676   2.283  0.00  0.00    -0.080 HD
BRANCH  24  26
ATOM     26  C   UNL     1       7.170  -3.334   1.595  0.00  0.00    -0.041 C 
BRANCH  26  30
ATOM     27  C   UNL     1       8.305  -4.601   5.516  0.00  0.00    +0.121 A 
ATOM     28  C   UNL     1       8.221  -5.525   4.484  0.00  0.00    +0.046 A 
ATOM     29  C   UNL     1       7.854  -5.113   3.218  0.00  0.00    +0.005 A 
ATOM     30  C   UNL     1       7.570  -3.781   2.978  0.00  0.00    -0.064 A 
ATOM     31  C   UNL     1       7.659  -2.858   4.003  0.00  0.00    +0.005 A 
ATOM     32  C   UNL     1       8.020  -3.266   5.273  0.00  0.00    +0.046 A 
BRANCH  27  33
ATOM     33  O   UNL     1       8.665  -5.005   6.763  0.00  0.00    -0.492 OA
BRANCH  33  35
ATOM     34  C   UNL     1       9.150  -4.637   9.102  0.00  0.00    +0.048 C 
ATOM     35  C   UNL     1       8.731  -3.999   7.776  0.00  0.00    +0.225 C 
ENDBRANCH  33  35
ENDBRANCH  27  33
ENDBRANCH  26  30
ENDBRANCH  24  26
BRANCH  24  36
ATOM     36  C   UNL     1       5.124  -4.626   1.674  0.00  0.00    -0.045 C 
BRANCH  36  37
ATOM     37  C   UNL     1       3.661  -4.495   2.103  0.00  0.00    +0.102 C 
ATOM     38  C   UNL     1       3.060  -5.893   2.351  0.00  0.00    +0.032 C 
ATOM     39  C   UNL     1       2.592  -5.848   3.826  0.00  0.00    +0.030 C 
ATOM     40  C   UNL     1       2.471  -4.325   4.082  0.00  0.00    +0.160 C 
ATOM     41  O   UNL     1       3.578  -3.769   3.341  0.00  0.00    -0.378 OA
ENDBRANCH  36  37
ENDBRANCH  24  36
ENDBRANCH   1  24
TORSDOF 10
