REMARK  Name = ZINC43235508
REMARK  8 active torsions:
REMARK  status: ('A' for Active; 'I' for Inactive)
REMARK    1  A    between atoms: C_1  and  C_2
REMARK    2  A    between atoms: C_2  and  C_3
REMARK    3  A    between atoms: C_3  and  C_5
REMARK    4  A    between atoms: C_3  and  N_22
REMARK    5  A    between atoms: C_5  and  C_7
REMARK    6  A    between atoms: C_5  and  O_13
REMARK    7  A    between atoms: N_10  and  C_12
REMARK    8  A    between atoms: O_13  and  C_14
REMARK                            x       y       z     vdW  Elec       q    Type
REMARK                         _______ _______ _______ _____ _____    ______ ____
ROOT
ATOM      1  C   UNL     1      -1.401  -2.093   0.130  0.00  0.00    +0.192 C 
ENDROOT
BRANCH   1   2
ATOM      2  C   UNL     1      -0.679  -2.629   1.339  0.00  0.00    +0.028 A 
ATOM      3  C   UNL     1      -1.235  -2.836   2.606  0.00  0.00    +0.141 A 
ATOM      4  N   UNL     1      -0.301  -3.310   3.390  0.00  0.00    -0.180 NA
ATOM      5  N   UNL     1       0.881  -3.420   2.646  0.00  0.00    -0.274 N 
ATOM      6  C   UNL     1       0.621  -3.001   1.390  0.00  0.00    +0.115 A 
ATOM      7  C   UNL     1       2.169  -3.909   3.143  0.00  0.00    +0.172 C 
ENDBRANCH   1   2
BRANCH   1   8
ATOM      8  C   UNL     1      -1.383  -0.563   0.162  0.00  0.00    -0.029 C 
BRANCH   8   9
ATOM      9  N   UNL     1      -2.087  -0.041  -1.016  0.00  0.00    +0.383 N 
ATOM     10  H   UNL     1      -1.628  -0.365  -1.854  0.00  0.00    -0.089 HD
ATOM     11  H   UNL     1      -3.042  -0.366  -1.009  0.00  0.00    -0.089 HD
ATOM     12  H   UNL     1      -2.076   0.968  -0.995  0.00  0.00    -0.089 HD
ENDBRANCH   8   9
BRANCH   8  14
ATOM     13  C   UNL     1       0.087   1.452   0.309  0.00  0.00    +0.002 C 
ATOM     14  C   UNL     1       0.065  -0.070   0.151  0.00  0.00    -0.016 C 
ENDBRANCH   8  14
ENDBRANCH   1   8
BRANCH   1  15
ATOM     15  O   UNL     1      -2.754  -2.554   0.140  0.00  0.00    -0.484 OA
BRANCH  15  16
ATOM     16  C   UNL     1      -3.344  -2.761  -1.066  0.00  0.00    +0.140 A 
ATOM     17  C   UNL     1      -2.615  -2.593  -2.234  0.00  0.00    +0.048 A 
ATOM     18  C   UNL     1      -3.217  -2.804  -3.460  0.00  0.00    +0.019 A 
ATOM     19  C   UNL     1      -4.546  -3.183  -3.523  0.00  0.00    +0.019 A 
ATOM     20  C   UNL     1      -5.276  -3.351  -2.360  0.00  0.00    +0.039 A 
ATOM     21  C   UNL     1      -4.676  -3.146  -1.131  0.00  0.00    +0.084 A 
ATOM     22 CL   UNL     1      -5.590  -3.364   0.328  0.00  0.00    -0.080 Cl
ATOM     23 BR   UNL     1      -5.367  -3.472  -5.202  0.00  0.00    -0.050 Br
ENDBRANCH  15  16
ENDBRANCH   1  15
TORSDOF 6
