REMARK  Name = ZINC14988297
REMARK  10 active torsions:
REMARK  status: ('A' for Active; 'I' for Inactive)
REMARK    1  A    between atoms: C_1  and  O_2
REMARK    2  A    between atoms: O_2  and  C_3
REMARK    3  A    between atoms: C_6  and  O_34
REMARK    4  A    between atoms: C_7  and  C_9
REMARK    5  A    between atoms: C_9  and  N_67
REMARK    6  A    between atoms: C_12  and  C_15
REMARK    7  A    between atoms: C_15  and  C_26
REMARK    8  A    between atoms: N_18  and  C_22
REMARK    9  A    between atoms: C_22  and  C_23
REMARK   10  A    between atoms: C_26  and  C_27
REMARK                            x       y       z     vdW  Elec       q    Type
REMARK                         _______ _______ _______ _____ _____    ______ ____
ROOT
ATOM      1  C   UNL     1      -1.532   3.608   2.488  0.00  0.00    +0.119 C 
ATOM      2  C   UNL     1      -1.604   5.122   2.493  0.00  0.00    +0.247 C 
ATOM      3  O   UNL     1      -0.675   5.899   2.541  0.00  0.00    -0.273 OA
ATOM      4  N   UNL     1      -2.916   5.425   2.433  0.00  0.00    -0.224 N 
ATOM      5  C   UNL     1      -3.675   4.324   2.391  0.00  0.00    +0.309 C 
ATOM      6  O   UNL     1      -4.889   4.341   2.334  0.00  0.00    -0.252 OA
ATOM      7  N   UNL     1      -2.944   3.194   2.419  0.00  0.00    -0.284 N 
ATOM      8  H   UNL     1      -3.281   2.285   2.397  0.00  0.00    +0.151 HD
ENDROOT
BRANCH   1  11
ATOM      9  C   UNL     1      -0.013   1.086   0.008  0.00  0.00    -0.078 C 
ATOM     10  C   UNL     1      -0.729   1.579   1.267  0.00  0.00    -0.013 C 
ATOM     11  C   UNL     1      -0.764   3.110   1.262  0.00  0.00    +0.018 C 
ATOM     12  C   UNL     1      -1.466   3.591  -0.011  0.00  0.00    -0.013 C 
ATOM     13  C   UNL     1      -0.729   3.040  -1.234  0.00  0.00    -0.078 C 
ATOM     14  N   UNL     1      -0.751   1.562  -1.181  0.00  0.00    +0.382 N 
ATOM     15  H   UNL     1      -1.726   1.246  -1.117  0.00  0.00    -0.081 HD
BRANCH  14  16
ATOM     16  C   UNL     1      -0.145   1.005  -2.408  0.00  0.00    -0.039 C 
BRANCH  16  21
ATOM     17  C   UNL     1      -1.493   2.594  -5.560  0.00  0.00    +0.121 A 
ATOM     18  C   UNL     1      -2.686   1.906  -5.730  0.00  0.00    +0.049 A 
ATOM     19  C   UNL     1      -3.054   0.929  -4.826  0.00  0.00    +0.049 A 
ATOM     20  C   UNL     1      -2.229   0.632  -3.751  0.00  0.00    +0.118 A 
ATOM     21  C   UNL     1      -1.039   1.323  -3.578  0.00  0.00    -0.019 A 
ATOM     22  C   UNL     1      -0.671   2.301  -4.483  0.00  0.00    +0.051 A 
BRANCH  17  24
ATOM     23  C   UNL     1      -2.025   3.805  -7.536  0.00  0.00    +0.277 C 
ATOM     24  O   UNL     1      -1.130   3.556  -6.450  0.00  0.00    -0.495 OA
ENDBRANCH  17  24
BRANCH  20  25
ATOM     25  O   UNL     1      -2.589  -0.333  -2.864  0.00  0.00    -0.507 OA
ATOM     26  H   UNL     1      -3.115  -0.008  -2.120  0.00  0.00    +0.292 HD
ENDBRANCH  20  25
ENDBRANCH  16  21
ENDBRANCH  14  16
ENDBRANCH   1  11
BRANCH   4  27
ATOM     27  C   UNL     1      -3.446   6.790   2.417  0.00  0.00    +0.121 C 
BRANCH  27  28
ATOM     28  C   UNL     1      -3.562   7.275   0.970  0.00  0.00    +0.007 C 
ATOM     29  C   UNL     1      -2.698   8.467   0.553  0.00  0.00    +0.005 C 
ATOM     30  C   UNL     1      -4.208   8.641   0.733  0.00  0.00    +0.005 C 
ENDBRANCH  27  28
ENDBRANCH   4  27
BRANCH   1  31
ATOM     31  C   UNL     1      -0.880   3.095   3.774  0.00  0.00    +0.072 C 
BRANCH  31  32
ATOM     32  C   UNL     1      -1.722   3.496   4.958  0.00  0.00    -0.027 A 
ATOM     33  C   UNL     1      -1.421   4.647   5.662  0.00  0.00    +0.005 A 
ATOM     34  C   UNL     1      -2.196   5.017   6.746  0.00  0.00    +0.000 A 
ATOM     35  C   UNL     1      -3.266   4.230   7.132  0.00  0.00    +0.001 A 
ATOM     36  C   UNL     1      -3.564   3.077   6.432  0.00  0.00    +0.020 A 
ATOM     37  C   UNL     1      -2.792   2.709   5.344  0.00  0.00    +0.044 A 
ATOM     38 CL   UNL     1      -3.165   1.259   4.465  0.00  0.00    -0.083 Cl
ENDBRANCH  31  32
ENDBRANCH   1  31
TORSDOF 9
