REMARK  Name = ZINC39674470
REMARK  12 active torsions:
REMARK  status: ('A' for Active; 'I' for Inactive)
REMARK    1  A    between atoms: C_1  and  C_2
REMARK    2  A    between atoms: C_2  and  C_3
REMARK    3  A    between atoms: C_3  and  C_4
REMARK    4  A    between atoms: C_4  and  C_5
REMARK    5  A    between atoms: C_5  and  C_7
REMARK    6  A    between atoms: C_5  and  C_8
REMARK    7  A    between atoms: C_12  and  C_21
REMARK    8  A    between atoms: N_23  and  C_24
REMARK    9  A    between atoms: C_24  and  C_26
REMARK   10  A    between atoms: C_24  and  C_27
REMARK   11  A    between atoms: C_28  and  C_34
REMARK   12  A    between atoms: C_31  and  C_33
REMARK                            x       y       z     vdW  Elec       q    Type
REMARK                         _______ _______ _______ _____ _____    ______ ____
ROOT
ATOM      1  C   UNL     1      -3.626  -2.058  -0.053  0.00  0.00    +0.218 C 
ATOM      2  O   UNL     1      -2.518  -2.443   0.255  0.00  0.00    -0.275 OA
ATOM      3  N   UNL     1      -4.665  -2.917  -0.043  0.00  0.00    -0.300 N 
ATOM      4  C   UNL     1      -6.055  -2.667  -0.490  0.00  0.00    +0.121 C 
ATOM      5  C   UNL     1      -6.478  -3.972  -1.200  0.00  0.00    +0.100 C 
ATOM      6  C   UNL     1      -5.570  -5.058  -0.599  0.00  0.00    -0.004 C 
ATOM      7  C   UNL     1      -4.673  -4.329   0.411  0.00  0.00    +0.115 C 
ATOM      8  C   UNL     1      -4.715  -5.696  -1.691  0.00  0.00    -0.010 C 
ATOM      9  C   UNL     1      -3.862  -6.810  -1.078  0.00  0.00    -0.082 C 
ATOM     10  N   UNL     1      -4.737  -7.816  -0.463  0.00  0.00    +0.379 N 
ATOM     11  C   UNL     1      -5.488  -7.216   0.646  0.00  0.00    -0.082 C 
ATOM     12  C   UNL     1      -6.409  -6.118   0.107  0.00  0.00    -0.010 C 
ATOM     13  H   UNL     1      -5.383  -8.166  -1.155  0.00  0.00    -0.086 HD
ATOM     14  H   UNL     1      -4.176  -8.579  -0.115  0.00  0.00    -0.086 HD
ENDROOT
BRANCH   5  15
ATOM     15  C   UNL     1      -6.252  -3.859  -2.686  0.00  0.00    +0.219 C 
ATOM     16  O   UNL     1      -5.402  -3.107  -3.114  0.00  0.00    -0.275 OA
ATOM     17  N   UNL     1      -6.994  -4.593  -3.538  0.00  0.00    -0.309 N 
ATOM     18  H   UNL     1      -7.674  -5.194  -3.196  0.00  0.00    +0.149 HD
BRANCH  17  19
ATOM     19  C   UNL     1      -6.774  -4.483  -4.983  0.00  0.00    +0.100 C 
ATOM     20  C   UNL     1      -5.694  -5.478  -5.412  0.00  0.00    +0.033 C 
BRANCH  19  21
ATOM     21  C   UNL     1      -8.058  -4.789  -5.711  0.00  0.00    -0.001 C 
ATOM     22  C   UNL     1      -8.727  -4.008  -6.562  0.00  0.00    +0.063 C 
ATOM     23  N   UNL     1      -9.838  -4.631  -7.013  0.00  0.00    -0.159 NA
ATOM     24  N   UNL     1     -10.008  -5.766  -6.561  0.00  0.00    -0.180 NA
ATOM     25  C   UNL     1      -8.886  -6.060  -5.652  0.00  0.00    +0.154 C 
ATOM     26  C   UNL     1      -9.396  -6.308  -4.231  0.00  0.00    +0.039 C 
ATOM     27  C   UNL     1      -8.301  -2.620  -6.965  0.00  0.00    +0.067 C 
ENDBRANCH  19  21
ENDBRANCH  17  19
ENDBRANCH   5  15
BRANCH   1  28
ATOM     28  C   UNL     1      -3.842  -0.619  -0.445  0.00  0.00    +0.072 C 
ATOM     29  C   UNL     1      -2.606  -0.100  -1.181  0.00  0.00    +0.017 C 
BRANCH  28  30
ATOM     30  C   UNL     1      -4.079   0.221   0.811  0.00  0.00    +0.012 C 
BRANCH  30  31
ATOM     31  C   UNL     1      -4.421   1.657   0.407  0.00  0.00    +0.000 C 
BRANCH  31  33
ATOM     32  C   UNL     1      -5.000   3.933   1.259  0.00  0.00    +0.004 C 
ATOM     33  C   UNL     1      -4.658   2.498   1.663  0.00  0.00    -0.003 C 
ENDBRANCH  31  33
ENDBRANCH  30  31
ENDBRANCH  28  30
ENDBRANCH   1  28
TORSDOF 7
