REMARK  Name = ZINC35743750
REMARK  13 active torsions:
REMARK  status: ('A' for Active; 'I' for Inactive)
REMARK    1  A    between atoms: C_1  and  C_2
REMARK    2  A    between atoms: C_2  and  C_4
REMARK    3  A    between atoms: C_2  and  N_17
REMARK    4  A    between atoms: N_14  and  C_15
REMARK    5  A    between atoms: N_17  and  C_18
REMARK    6  A    between atoms: C_18  and  C_19
REMARK    7  A    between atoms: C_19  and  C_20
REMARK    8  A    between atoms: C_20  and  C_21
REMARK    9  A    between atoms: C_21  and  C_22
REMARK   10  A    between atoms: C_22  and  C_23
REMARK   11  A    between atoms: C_23  and  N_24
REMARK   12  A    between atoms: C_25  and  C_27
REMARK   13  A    between atoms: C_30  and  N_34
REMARK                            x       y       z     vdW  Elec       q    Type
REMARK                         _______ _______ _______ _____ _____    ______ ____
ROOT
ATOM      1  N   UNL     1      -0.314  -0.733   1.744  0.00  0.00    -0.288 N 
ATOM      2  C   UNL     1      -0.842   0.098   2.664  0.00  0.00    +0.249 C 
ATOM      3  O   UNL     1      -0.193   0.413   3.643  0.00  0.00    -0.270 OA
ENDROOT
BRANCH   2   4
ATOM      4  C   UNL     1      -2.210   0.627   2.484  0.00  0.00    +0.055 A 
ATOM      5  C   UNL     1      -2.744   0.769   1.201  0.00  0.00    +0.017 A 
ATOM      6  C   UNL     1      -4.021   1.262   1.040  0.00  0.00    +0.033 A 
ATOM      7  C   UNL     1      -4.775   1.617   2.145  0.00  0.00    +0.128 A 
ATOM      8  C   UNL     1      -4.254   1.480   3.418  0.00  0.00    +0.053 A 
ATOM      9  C   UNL     1      -2.978   0.981   3.596  0.00  0.00    +0.055 A 
ATOM     10 CL   UNL     1      -2.327   0.803   5.195  0.00  0.00    -0.083 Cl
BRANCH   7  11
ATOM     11  N   UNL     1      -6.145   2.146   1.963  0.00  0.00    +0.056 N 
ATOM     12  O   UNL     1      -6.604   2.268   0.851  0.00  0.00    -0.126 OA
ATOM     13  O   UNL     1      -6.806   2.457   2.926  0.00  0.00    -0.126 OA
ENDBRANCH   7  11
ENDBRANCH   2   4
BRANCH   1  15
ATOM     14  C   UNL     1      -0.560   0.994   0.029  0.00  0.00    +0.036 C 
ATOM     15  C   UNL     1      -0.573  -0.508   0.320  0.00  0.00    +0.139 C 
BRANCH  15  16
ATOM     16  C   UNL     1      -1.920  -1.078  -0.042  0.00  0.00    +0.133 A 
ATOM     17  N   UNL     1      -2.723  -1.418   0.920  0.00  0.00    -0.232 NA
ATOM     18  C   UNL     1      -3.952  -1.937   0.671  0.00  0.00    +0.080 A 
ATOM     19  C   UNL     1      -4.817  -2.303   1.704  0.00  0.00    +0.048 A 
ATOM     20  C   UNL     1      -6.056  -2.825   1.399  0.00  0.00    +0.043 A 
ATOM     21  C   UNL     1      -6.452  -2.993   0.077  0.00  0.00    +0.021 A 
ATOM     22  C   UNL     1      -5.621  -2.642  -0.950  0.00  0.00    +0.017 A 
ATOM     23  C   UNL     1      -4.364  -2.110  -0.669  0.00  0.00    +0.065 A 
ATOM     24  C   UNL     1      -3.430  -1.715  -1.734  0.00  0.00    +0.262 A 
ATOM     25  O   UNL     1      -3.724  -1.838  -2.909  0.00  0.00    -0.267 OA
ATOM     26  N   UNL     1      -2.235  -1.205  -1.357  0.00  0.00    -0.298 N 
ATOM     27  C   UNL     1      -1.269  -0.790  -2.377  0.00  0.00    +0.154 C 
ATOM     28 CL   UNL     1      -7.133  -3.281   2.682  0.00  0.00    -0.083 Cl
ENDBRANCH  15  16
ENDBRANCH   1  15
BRANCH   1  29
ATOM     29  C   UNL     1       0.520  -1.861   2.168  0.00  0.00    +0.109 C 
BRANCH  29  30
ATOM     30  C   UNL     1       1.983  -1.417   2.234  0.00  0.00    +0.019 C 
BRANCH  30  31
ATOM     31  C   UNL     1       2.853  -2.595   2.677  0.00  0.00    +0.001 C 
BRANCH  31  32
ATOM     32  C   UNL     1       4.316  -2.152   2.743  0.00  0.00    -0.002 C 
BRANCH  32  33
ATOM     33  C   UNL     1       5.186  -3.329   3.186  0.00  0.00    -0.020 C 
BRANCH  33  34
ATOM     34  C   UNL     1       6.649  -2.886   3.252  0.00  0.00    -0.086 C 
BRANCH  34  35
ATOM     35  N   UNL     1       7.485  -4.017   3.677  0.00  0.00    +0.378 N 
ATOM     36  H   UNL     1       7.187  -4.331   4.588  0.00  0.00    -0.090 HD
ATOM     37  H   UNL     1       7.392  -4.772   3.014  0.00  0.00    -0.090 HD
ATOM     38  H   UNL     1       8.450  -3.725   3.720  0.00  0.00    -0.090 HD
ENDBRANCH  34  35
ENDBRANCH  33  34
ENDBRANCH  32  33
ENDBRANCH  31  32
ENDBRANCH  30  31
ENDBRANCH  29  30
ENDBRANCH   1  29
TORSDOF 11
