REMARK  Name = ZINC43737044
REMARK  9 active torsions:
REMARK  status: ('A' for Active; 'I' for Inactive)
REMARK    1  A    between atoms: C_1  and  C_2
REMARK    2  A    between atoms: C_5  and  O_45
REMARK    3  A    between atoms: C_18  and  C_44
REMARK    4  A    between atoms: C_23  and  C_24
REMARK    5  A    between atoms: C_24  and  C_26
REMARK    6  A    between atoms: C_26  and  C_27
REMARK    7  A    between atoms: C_34  and  O_35
REMARK    8  A    between atoms: O_35  and  C_36
REMARK    9  A    between atoms: N_42  and  C_43
REMARK                            x       y       z     vdW  Elec       q    Type
REMARK                         _______ _______ _______ _____ _____    ______ ____
ROOT
ATOM      1  C   UNL     1      -0.745   2.071  -0.406  0.00  0.00    +0.012 C 
ATOM      2  C   UNL     1      -0.495   0.553  -0.407  0.00  0.00    -0.026 C 
ATOM      3  C   UNL     1       0.203   0.187  -1.722  0.00  0.00    +0.010 C 
ATOM      4  C   UNL     1       1.553   0.897  -1.824  0.00  0.00    +0.032 C 
ATOM      5  C   UNL     1       2.441   0.501  -0.644  0.00  0.00    +0.115 C 
ATOM      6  C   UNL     1       1.756   0.868   0.674  0.00  0.00    +0.035 C 
ATOM      7  C   UNL     1       0.400   0.173   0.765  0.00  0.00    -0.002 C 
ATOM      8  C   UNL     1      -0.295   0.544   2.074  0.00  0.00    +0.004 C 
ATOM      9  C   UNL     1      -1.570  -0.284   2.191  0.00  0.00    +0.004 C 
ATOM     10  C   UNL     1      -2.539  -0.016   1.030  0.00  0.00    -0.003 C 
ATOM     11  C   UNL     1      -1.845  -0.133  -0.325  0.00  0.00    -0.001 C 
ATOM     12  C   UNL     1      -1.838  -1.579  -0.800  0.00  0.00    +0.005 C 
ATOM     13  C   UNL     1      -3.268  -1.986  -1.222  0.00  0.00    +0.012 C 
ATOM     14  C   UNL     1      -4.255  -1.369  -0.264  0.00  0.00    -0.001 C 
ATOM     15  C   UNL     1      -3.587  -1.115   1.103  0.00  0.00    +0.006 C 
ATOM     16  C   UNL     1      -4.852  -0.802   1.921  0.00  0.00    +0.032 C 
ATOM     17  C   UNL     1      -5.801  -1.879   1.388  0.00  0.00    -0.019 C 
ATOM     18  C   UNL     1      -5.444  -2.211   0.131  0.00  0.00    -0.003 C 
ATOM     19  C   UNL     1      -4.833  -0.081  -0.862  0.00  0.00    +0.016 C 
ENDROOT
BRANCH  18  20
ATOM     20  C   UNL     1      -6.096  -3.208  -0.714  0.00  0.00    +0.158 C 
ATOM     21  O   UNL     1      -7.095  -3.775  -0.323  0.00  0.00    -0.292 OA
BRANCH  20  22
ATOM     22  C   UNL     1      -5.530  -3.531  -2.073  0.00  0.00    +0.069 C 
BRANCH  22  23
ATOM     23  C   UNL     1      -6.477  -4.481  -2.808  0.00  0.00    -0.027 C 
ATOM     24  C   UNL     1      -7.857  -3.878  -2.843  0.00  0.00    -0.012 A 
ATOM     25  C   UNL     1      -8.987  -4.641  -2.634  0.00  0.00    -0.040 A 
ATOM     26  C   UNL     1     -10.240  -4.051  -2.678  0.00  0.00    +0.053 A 
ATOM     27  C   UNL     1     -10.369  -2.695  -2.930  0.00  0.00    +0.170 A 
ATOM     28  C   UNL     1      -9.233  -1.921  -3.139  0.00  0.00    +0.208 A 
ATOM     29  C   UNL     1      -7.979  -2.516  -3.095  0.00  0.00    +0.167 A 
ATOM     30  O   UNL     1      -9.618  -0.630  -3.363  0.00  0.00    -0.449 OA
ATOM     31  C   UNL     1     -11.018  -0.699  -3.694  0.00  0.00    +0.467 C 
ATOM     32  O   UNL     1     -11.469  -1.890  -3.023  0.00  0.00    -0.452 OA
ATOM     33  C   UNL     1      -8.896  -6.119  -2.352  0.00  0.00    +0.017 C 
ATOM     34  C   UNL     1      -7.511  -6.636  -2.742  0.00  0.00    -0.074 C 
ATOM     35  N   UNL     1      -6.497  -5.773  -2.116  0.00  0.00    +0.383 N 
ATOM     36  C   UNL     1      -5.177  -6.409  -2.224  0.00  0.00    -0.095 C 
ATOM     37  H   UNL     1      -6.726  -5.633  -1.144  0.00  0.00    -0.081 HD
BRANCH  29  38
ATOM     38  O   UNL     1      -6.865  -1.763  -3.298  0.00  0.00    -0.491 OA
ATOM     39  C   UNL     1      -6.402  -1.640  -4.645  0.00  0.00    +0.277 C 
ENDBRANCH  29  38
ENDBRANCH  22  23
ENDBRANCH  20  22
ENDBRANCH  18  20
BRANCH   5  40
ATOM     40  O   UNL     1       3.691   1.188  -0.738  0.00  0.00    -0.392 OA
ATOM     41  H   UNL     1       4.186   0.994  -1.545  0.00  0.00    +0.210 HD
ENDBRANCH   5  40
TORSDOF 5
