REMARK  Name = ZINC08627144
REMARK  9 active torsions:
REMARK  status: ('A' for Active; 'I' for Inactive)
REMARK    1  A    between atoms: C_5  and  C_7
REMARK    2  A    between atoms: C_7  and  N_60
REMARK    3  A    between atoms: C_8  and  C_9
REMARK    4  A    between atoms: C_8  and  N_60
REMARK    5  A    between atoms: C_11  and  O_35
REMARK    6  A    between atoms: C_13  and  O_34
REMARK    7  A    between atoms: C_15  and  C_18
REMARK    8  A    between atoms: C_18  and  C_19
REMARK    9  A    between atoms: N_24  and  C_27
REMARK                            x       y       z     vdW  Elec       q    Type
REMARK                         _______ _______ _______ _____ _____    ______ ____
ROOT
ATOM      1  C   UNL     1      -0.799   3.516  -1.075  0.00  0.00    +0.133 C 
ATOM      2  C   UNL     1      -1.678   4.095  -2.213  0.00  0.00    +0.172 C 
ATOM      3  C   UNL     1      -1.063   5.504  -2.411  0.00  0.00    +0.174 C 
ATOM      4  C   UNL     1       0.350   5.389  -1.806  0.00  0.00    +0.158 C 
ATOM      5  O   UNL     1       0.518   4.031  -1.367  0.00  0.00    -0.369 OA
ENDROOT
BRANCH   3   6
ATOM      6  O   UNL     1      -1.830   6.484  -1.709  0.00  0.00    -0.387 OA
ATOM      7  H   UNL     1      -2.728   6.597  -2.048  0.00  0.00    +0.210 HD
ENDBRANCH   3   6
BRANCH   2   8
ATOM      8  O   UNL     1      -3.045   4.184  -1.807  0.00  0.00    -0.387 OA
ATOM      9  H   UNL     1      -3.635   4.541  -2.485  0.00  0.00    +0.210 HD
ENDBRANCH   2   8
BRANCH   1  10
ATOM     10  C   UNL     1      -0.802   1.987  -1.117  0.00  0.00    -0.047 C 
BRANCH  10  11
ATOM     11  N   UNL     1      -0.013   1.471   0.017  0.00  0.00    +0.384 N 
ATOM     12  H   UNL     1       0.950   1.820  -0.053  0.00  0.00    -0.085 HD
ATOM     13  H   UNL     1      -0.432   1.796   0.897  0.00  0.00    -0.085 HD
BRANCH  11  14
ATOM     14  C   UNL     1       0.002  -0.004   0.002  0.00  0.00    -0.026 C 
BRANCH  14  19
ATOM     15  C   UNL     1       0.932  -1.301   3.417  0.00  0.00    +0.003 A 
ATOM     16  C   UNL     1       2.307  -1.397   3.260  0.00  0.00    +0.020 A 
ATOM     17  C   UNL     1       2.873  -1.037   2.052  0.00  0.00    +0.111 A 
ATOM     18  N   UNL     1       2.123  -0.607   1.057  0.00  0.00    -0.262 NA
ATOM     19  C   UNL     1       0.814  -0.502   1.170  0.00  0.00    +0.024 A 
ATOM     20  C   UNL     1       0.177  -0.838   2.350  0.00  0.00    +0.021 A 
ENDBRANCH  14  19
ENDBRANCH  11  14
ENDBRANCH  10  11
ENDBRANCH   1  10
BRANCH   4  21
ATOM     21  C   UNL     1       1.399   5.726  -2.868  0.00  0.00    +0.130 C 
BRANCH  21  22
ATOM     22  C   UNL     1       2.769   5.715  -2.241  0.00  0.00    +0.218 C 
ATOM     23  O   UNL     1       2.894   5.461  -1.061  0.00  0.00    -0.276 OA
ATOM     24  N   UNL     1       3.856   5.985  -2.991  0.00  0.00    -0.298 N 
ATOM     25  C   UNL     1       3.727   6.289  -4.424  0.00  0.00    +0.126 C 
ATOM     26  C   UNL     1       4.484   7.596  -4.710  0.00  0.00    +0.124 C 
ATOM     27  N   UNL     1       5.864   7.473  -4.223  0.00  0.00    -0.327 N 
ATOM     28  C   UNL     1       5.901   7.293  -2.766  0.00  0.00    +0.124 C 
ATOM     29  C   UNL     1       5.202   5.979  -2.399  0.00  0.00    +0.126 C 
BRANCH  27  30
ATOM     30  C   UNL     1       6.632   8.575  -4.611  0.00  0.00    +0.030 A 
ATOM     31  C   UNL     1       7.296   9.332  -3.654  0.00  0.00    +0.026 A 
ATOM     32  C   UNL     1       8.058  10.417  -4.040  0.00  0.00    +0.040 A 
ATOM     33  C   UNL     1       8.152  10.757  -5.379  0.00  0.00    +0.124 A 
ATOM     34  C   UNL     1       7.487  10.007  -6.335  0.00  0.00    +0.040 A 
ATOM     35  C   UNL     1       6.728   8.918  -5.954  0.00  0.00    +0.026 A 
ATOM     36  F   UNL     1       8.895  11.822  -5.754  0.00  0.00    -0.205 F 
ENDBRANCH  27  30
ENDBRANCH  21  22
ENDBRANCH   4  21
TORSDOF 9
