REMARK  Name = ZINC36647967
REMARK  9 active torsions:
REMARK  status: ('A' for Active; 'I' for Inactive)
REMARK    1  A    between atoms: C_1  and  N_2
REMARK    2  A    between atoms: N_2  and  C_3
REMARK    3  A    between atoms: N_2  and  C_4
REMARK    4  A    between atoms: C_4  and  C_5
REMARK    5  A    between atoms: C_5  and  C_6
REMARK    6  A    between atoms: C_6  and  N_7
REMARK    7  A    between atoms: C_18  and  C_20
REMARK    8  A    between atoms: N_25  and  S_27
REMARK    9  A    between atoms: S_27  and  C_30
REMARK                            x       y       z     vdW  Elec       q    Type
REMARK                         _______ _______ _______ _____ _____    ______ ____
ROOT
ATOM      1  N   UNL     1      -3.878   0.054  -2.521  0.00  0.00    -0.250 N 
ATOM      2  C   UNL     1      -3.631  -0.513  -3.761  0.00  0.00    +0.168 A 
ATOM      3  N   UNL     1      -2.854  -1.527  -4.062  0.00  0.00    -0.223 NA
ATOM      4  C   UNL     1      -2.706  -1.977  -5.327  0.00  0.00    +0.099 A 
ATOM      5  C   UNL     1      -3.445  -1.285  -6.314  0.00  0.00    +0.042 A 
ATOM      6  S   UNL     1      -4.294  -0.054  -5.356  0.00  0.00    -0.052 S 
ATOM      7  C   UNL     1      -3.402  -1.622  -7.644  0.00  0.00    +0.017 A 
ATOM      8  C   UNL     1      -2.610  -2.678  -8.056  0.00  0.00    +0.003 A 
ATOM      9  C   UNL     1      -1.871  -3.381  -7.115  0.00  0.00    +0.022 A 
ATOM     10  C   UNL     1      -1.907  -3.052  -5.784  0.00  0.00    +0.067 A 
ATOM     11 CL   UNL     1      -0.963  -3.963  -4.648  0.00  0.00    -0.081 Cl
ATOM     12  C   UNL     1      -4.588   1.196  -2.432  0.00  0.00    +0.226 C 
ATOM     13  O   UNL     1      -4.879   1.645  -1.343  0.00  0.00    -0.275 OA
ENDROOT
BRANCH  12  14
ATOM     14  C   UNL     1      -5.020   1.915  -3.684  0.00  0.00    +0.091 C 
ATOM     15  C   UNL     1      -6.343   1.327  -4.180  0.00  0.00    +0.015 C 
ATOM     16  C   UNL     1      -6.766   2.034  -5.469  0.00  0.00    +0.018 C 
ATOM     17  C   UNL     1      -6.975   3.525  -5.184  0.00  0.00    +0.109 C 
ATOM     18  N   UNL     1      -5.754   4.066  -4.572  0.00  0.00    -0.175 NA
ATOM     19  C   UNL     1      -5.209   3.404  -3.379  0.00  0.00    +0.122 C 
BRANCH  18  20
ATOM     20  S   UNL     1      -5.006   5.396  -5.215  0.00  0.00    +0.067 S 
ATOM     21  O   UNL     1      -3.647   5.335  -4.804  0.00  0.00    -0.152 OA
ATOM     22  O   UNL     1      -5.386   5.454  -6.583  0.00  0.00    -0.152 OA
BRANCH  20  23
ATOM     23  C   UNL     1      -5.704   6.814  -4.437  0.00  0.00    +0.143 A 
ATOM     24  C   UNL     1      -5.304   7.454  -3.312  0.00  0.00    +0.036 A 
ATOM     25  C   UNL     1      -6.012   8.561  -2.882  0.00  0.00    +0.010 A 
ATOM     26  C   UNL     1      -7.086   8.973  -3.599  0.00  0.00    +0.047 A 
ATOM     27  S   UNL     1      -7.118   7.785  -4.932  0.00  0.00    -0.077 S 
ENDBRANCH  20  23
ENDBRANCH  18  20
ENDBRANCH  12  14
BRANCH   1  28
ATOM     28  C   UNL     1      -3.368  -0.589  -1.307  0.00  0.00    +0.114 C 
BRANCH  28  29
ATOM     29  C   UNL     1      -1.993  -0.011  -0.964  0.00  0.00    +0.001 C 
BRANCH  29  30
ATOM     30  C   UNL     1      -1.499  -0.619   0.350  0.00  0.00    -0.078 C 
BRANCH  30  32
ATOM     31  C   UNL     1      -0.303   1.375   0.940  0.00  0.00    -0.097 C 
ATOM     32  N   UNL     1      -0.179  -0.065   0.680  0.00  0.00    +0.376 N 
ATOM     33  C   UNL     1       0.349  -0.735   1.876  0.00  0.00    -0.097 C 
ATOM     34  H   UNL     1       0.451  -0.214  -0.094  0.00  0.00    -0.083 HD
ENDBRANCH  30  32
ENDBRANCH  29  30
ENDBRANCH  28  29
ENDBRANCH   1  28
TORSDOF 7
