REMARK  Name = ZINC23381308
REMARK  2 active torsions:
REMARK  status: ('A' for Active; 'I' for Inactive)
REMARK    1  A    between atoms: N_9  and  C_11
REMARK    2  A    between atoms: C_11  and  N_12
REMARK                            x       y       z     vdW  Elec       q    Type
REMARK                         _______ _______ _______ _____ _____    ______ ____
ROOT
ATOM      1  N   UNL     1       0.707   3.079   0.011  0.00  0.00    -0.211 N 
ATOM      2  C   UNL     1      -0.634   3.231   0.024  0.00  0.00    +0.248 C 
ATOM      3  O   UNL     1      -1.255   4.272   0.035  0.00  0.00    -0.273 OA
ATOM      4  C   UNL     1      -1.199   1.829   0.017  0.00  0.00    +0.113 C 
ATOM      5  C   UNL     1      -2.026   1.585   1.274  0.00  0.00    +0.035 C 
ATOM      6  C   UNL     1      -2.558   0.149   1.265  0.00  0.00    +0.003 C 
ATOM      7  C   UNL     1      -3.417  -0.067   0.017  0.00  0.00    +0.000 C 
ATOM      8  C   UNL     1      -2.569   0.161  -1.235  0.00  0.00    +0.003 C 
ATOM      9  C   UNL     1      -2.038   1.597  -1.235  0.00  0.00    +0.035 C 
ATOM     10  N   UNL     1      -0.011   0.966   0.007  0.00  0.00    -0.285 N 
ATOM     11  C   UNL     1       1.056   1.787   0.002  0.00  0.00    +0.310 C 
ATOM     12  O   UNL     1       2.208   1.399  -0.011  0.00  0.00    -0.252 OA
ATOM     13  H   UNL     1      -0.126  -0.128   0.006  0.00  0.00    +0.151 HD
ENDROOT
BRANCH   1  14
ATOM     14  C   UNL     1       1.661   4.191   0.007  0.00  0.00    +0.205 C 
BRANCH  14  23
ATOM     15  C   UNL     1       1.892   6.773  -5.874  0.00  0.00    +0.000 A 
ATOM     16  C   UNL     1       0.592   6.842  -5.408  0.00  0.00    +0.000 A 
ATOM     17  C   UNL     1       0.294   6.404  -4.133  0.00  0.00    +0.005 A 
ATOM     18  C   UNL     1       1.293   5.894  -3.316  0.00  0.00    -0.030 A 
ATOM     19  C   UNL     1       2.588   5.823  -3.782  0.00  0.00    -0.042 A 
ATOM     20  C   UNL     1       2.886   6.265  -5.063  0.00  0.00    +0.004 A 
ATOM     21  C   UNL     1       3.705   5.271  -2.934  0.00  0.00    +0.051 C 
ATOM     22  C   UNL     1       3.276   5.234  -1.467  0.00  0.00    +0.091 C 
ATOM     23  N   UNL     1       1.967   4.568  -1.379  0.00  0.00    -0.282 NA
ATOM     24  C   UNL     1       0.920   5.432  -1.932  0.00  0.00    +0.121 C 
ENDBRANCH  14  23
ENDBRANCH   1  14
TORSDOF 2
