REMARK  Name = ZINC04436050
REMARK  3 active torsions:
REMARK  status: ('A' for Active; 'I' for Inactive)
REMARK    1  A    between atoms: C_1  and  S_2
REMARK    2  A    between atoms: S_2  and  C_3
REMARK    3  A    between atoms: C_8  and  C_18
REMARK                            x       y       z     vdW  Elec       q    Type
REMARK                         _______ _______ _______ _____ _____    ______ ____
ROOT
ATOM      1  C   UNL     1      -1.702  -0.454   0.016  0.00  0.00    +0.210 A 
ATOM      2  N   UNL     1      -2.733   0.404   0.025  0.00  0.00    -0.187 NA
ATOM      3  C   UNL     1      -3.854  -0.264   0.036  0.00  0.00    +0.219 A 
ATOM      4  N   UNL     1      -3.558  -1.587   0.029  0.00  0.00    -0.220 N 
ATOM      5  N   UNL     1      -2.167  -1.684   0.014  0.00  0.00    -0.141 NA
ATOM      6  C   UNL     1      -4.570  -2.636   0.026  0.00  0.00    +0.175 C 
ATOM      7  C   UNL     1      -5.921  -2.052   0.374  0.00  0.00    +0.041 C 
ATOM      8  C   UNL     1      -6.151  -0.722   0.373  0.00  0.00    +0.020 C 
ATOM      9  N   UNL     1      -5.165   0.182   0.055  0.00  0.00    -0.287 N 
ATOM     10  C   UNL     1      -7.509  -0.168   0.732  0.00  0.00    +0.052 C 
ATOM     11  C   UNL     1      -8.596  -1.163   0.321  0.00  0.00    +0.014 C 
ATOM     12  C   UNL     1      -8.332  -2.490   1.040  0.00  0.00    +0.080 C 
ATOM     13  C   UNL     1      -6.945  -2.960   0.702  0.00  0.00    +0.163 C 
ATOM     14  O   UNL     1      -6.702  -4.151   0.711  0.00  0.00    -0.292 OA
ATOM     15  H   UNL     1      -5.382   1.106  -0.149  0.00  0.00    +0.155 HD
ENDROOT
BRANCH   6  16
ATOM     16  C   UNL     1      -4.636  -3.264  -1.342  0.00  0.00    -0.018 A 
ATOM     17  C   UNL     1      -4.947  -2.488  -2.444  0.00  0.00    +0.009 A 
ATOM     18  C   UNL     1      -5.007  -3.063  -3.699  0.00  0.00    +0.039 A 
ATOM     19  C   UNL     1      -4.756  -4.415  -3.854  0.00  0.00    +0.123 A 
ATOM     20  C   UNL     1      -4.445  -5.191  -2.750  0.00  0.00    +0.039 A 
ATOM     21  C   UNL     1      -4.380  -4.614  -1.496  0.00  0.00    +0.009 A 
ATOM     22  F   UNL     1      -4.816  -4.978  -5.080  0.00  0.00    -0.205 F 
ENDBRANCH   6  16
BRANCH   1  24
ATOM     23  C   UNL     1      -0.022   1.810   0.012  0.00  0.00    +0.093 C 
ATOM     24  S   UNL     1       0.002  -0.004   0.002  0.00  0.00    -0.088 S 
ENDBRANCH   1  24
TORSDOF 2
