REMARK  Name = ZINC21660441
REMARK  9 active torsions:
REMARK  status: ('A' for Active; 'I' for Inactive)
REMARK    1  A    between atoms: C_1  and  C_2
REMARK    2  A    between atoms: C_10  and  C_12
REMARK    3  A    between atoms: C_16  and  O_20
REMARK    4  A    between atoms: C_17  and  O_18
REMARK    5  A    between atoms: O_18  and  C_19
REMARK    6  A    between atoms: O_20  and  C_21
REMARK    7  A    between atoms: C_25  and  C_28
REMARK    8  A    between atoms: C_31  and  O_34
REMARK    9  A    between atoms: O_34  and  C_35
REMARK                            x       y       z     vdW  Elec       q    Type
REMARK                         _______ _______ _______ _____ _____    ______ ____
ROOT
ATOM      1  C   UNL     1      -0.157   0.173   2.917  0.00  0.00    +0.069 C 
ATOM      2  C   UNL     1      -0.984   1.210   2.202  0.00  0.00    +0.087 A 
ATOM      3  C   UNL     1      -0.924   1.543   0.851  0.00  0.00    +0.049 A 
ATOM      4  C   UNL     1      -1.866   2.528   0.698  0.00  0.00    +0.226 A 
ATOM      5  O   UNL     1      -2.402   2.720   1.898  0.00  0.00    -0.339 OA
ATOM      6  N   UNL     1      -1.905   1.981   2.726  0.00  0.00    -0.081 NA
ATOM      7  N   UNL     1      -2.097   3.110  -0.531  0.00  0.00    -0.286 N 
ATOM      8  C   UNL     1      -1.589   2.499  -1.653  0.00  0.00    +0.019 C 
ATOM      9  C   UNL     1      -0.660   1.522  -1.591  0.00  0.00    +0.024 C 
ATOM     10  C   UNL     1      -0.086   1.032  -0.277  0.00  0.00    +0.094 C 
ATOM     11  C   UNL     1      -0.179   0.905  -2.761  0.00  0.00    +0.162 C 
ATOM     12  O   UNL     1       0.667   0.037  -2.669  0.00  0.00    -0.292 OA
ATOM     13  C   UNL     1      -0.688   1.292  -4.121  0.00  0.00    +0.088 C 
ATOM     14  C   UNL     1      -2.122   1.817  -3.984  0.00  0.00    +0.032 C 
ATOM     15  C   UNL     1      -2.117   2.978  -2.987  0.00  0.00    +0.059 C 
ATOM     16  H   UNL     1      -2.677   4.042  -0.598  0.00  0.00    +0.155 HD
ENDROOT
BRANCH  10  17
ATOM     17  C   UNL     1       1.324   1.539  -0.124  0.00  0.00    +0.010 A 
ATOM     18  C   UNL     1       2.327   0.680   0.286  0.00  0.00    +0.008 A 
ATOM     19  C   UNL     1       3.623   1.141   0.426  0.00  0.00    +0.004 A 
ATOM     20  C   UNL     1       3.921   2.465   0.157  0.00  0.00    +0.049 A 
ATOM     21  C   UNL     1       2.921   3.331  -0.254  0.00  0.00    +0.162 A 
ATOM     22  C   UNL     1       1.618   2.865  -0.401  0.00  0.00    +0.166 A 
BRANCH  22  23
ATOM     23  O   UNL     1       0.634   3.709  -0.809  0.00  0.00    -0.491 OA
ATOM     24  C   UNL     1       0.077   4.582   0.176  0.00  0.00    +0.277 C 
ENDBRANCH  22  23
BRANCH  21  25
ATOM     25  O   UNL     1       3.214   4.632  -0.519  0.00  0.00    -0.491 OA
ATOM     26  C   UNL     1       4.574   5.038  -0.353  0.00  0.00    +0.277 C 
ENDBRANCH  21  25
ENDBRANCH  10  17
BRANCH  14  27
ATOM     27  C   UNL     1      -2.616   2.299  -5.324  0.00  0.00    -0.043 A 
ATOM     28  C   UNL     1      -1.954   3.324  -5.975  0.00  0.00    +0.007 A 
ATOM     29  C   UNL     1      -2.402   3.764  -7.205  0.00  0.00    +0.046 A 
ATOM     30  C   UNL     1      -3.523   3.186  -7.782  0.00  0.00    +0.120 A 
ATOM     31  C   UNL     1      -4.189   2.162  -7.124  0.00  0.00    +0.046 A 
ATOM     32  C   UNL     1      -3.734   1.721  -5.896  0.00  0.00    +0.007 A 
BRANCH  30  33
ATOM     33  O   UNL     1      -3.970   3.622  -8.989  0.00  0.00    -0.495 OA
ATOM     34  C   UNL     1      -3.235   4.679  -9.609  0.00  0.00    +0.277 C 
ENDBRANCH  30  33
ENDBRANCH  14  27
TORSDOF 5
