REMARK  Name = ZINC00632448
REMARK  5 active torsions:
REMARK  status: ('A' for Active; 'I' for Inactive)
REMARK    1  A    between atoms: C_4  and  C_7
REMARK    2  A    between atoms: C_11  and  O_13
REMARK    3  A    between atoms: O_13  and  C_14
REMARK    4  A    between atoms: C_21  and  N_27
REMARK    5  A    between atoms: C_22  and  C_25
REMARK                            x       y       z     vdW  Elec       q    Type
REMARK                         _______ _______ _______ _____ _____    ______ ____
ROOT
ATOM      1  C   UNL     1       1.107   2.011  -0.116  0.00  0.00    +0.166 A 
ATOM      2  N   UNL     1      -0.021   1.314  -0.108  0.00  0.00    -0.208 NA
ATOM      3  C   UNL     1       0.001  -0.014  -0.076  0.00  0.00    +0.163 A 
ATOM      4  C   UNL     1       1.227  -0.671  -0.050  0.00  0.00    +0.116 A 
ATOM      5  C   UNL     1       2.389   0.094  -0.059  0.00  0.00    +0.226 A 
ATOM      6  N   UNL     1       2.292   1.418  -0.092  0.00  0.00    -0.193 NA
ATOM      7  N   UNL     1      -1.190  -0.740  -0.068  0.00  0.00    -0.199 N 
ATOM      8  C   UNL     1      -2.393  -0.290   0.378  0.00  0.00    +0.139 A 
ATOM      9  C   UNL     1      -3.304  -1.328   0.205  0.00  0.00    +0.111 A 
ATOM     10  C   UNL     1      -2.595  -2.413  -0.361  0.00  0.00    +0.155 A 
ATOM     11  N   UNL     1      -1.353  -2.053  -0.523  0.00  0.00    -0.170 NA
ENDROOT
BRANCH   1  15
ATOM     12  C   UNL     1       0.918   6.257  -0.220  0.00  0.00    +0.000 A 
ATOM     13  C   UNL     1       2.147   5.623  -0.194  0.00  0.00    +0.001 A 
ATOM     14  C   UNL     1       2.214   4.245  -0.160  0.00  0.00    +0.011 A 
ATOM     15  C   UNL     1       1.041   3.492  -0.152  0.00  0.00    +0.019 A 
ATOM     16  C   UNL     1      -0.194   4.137  -0.183  0.00  0.00    +0.011 A 
ATOM     17  C   UNL     1      -0.250   5.516  -0.211  0.00  0.00    +0.001 A 
ENDBRANCH   1  15
BRANCH   8  18
ATOM     18  N   UNL     1      -2.660   0.959   0.903  0.00  0.00    -0.342 N 
ATOM     19  H   UNL     1      -1.950   1.614   0.982  0.00  0.00    +0.144 HD
ATOM     20  H   UNL     1      -3.559   1.180   1.194  0.00  0.00    +0.144 HD
ENDBRANCH   8  18
BRANCH   9  21
ATOM     21  C   UNL     1      -4.697  -1.303   0.538  0.00  0.00    +0.104 C 
ATOM     22  N   UNL     1      -5.801  -1.283   0.802  0.00  0.00    -0.191 NA
ENDBRANCH   9  21
BRANCH   5  23
ATOM     23  O   UNL     1       3.605  -0.505  -0.035  0.00  0.00    -0.438 OA
BRANCH  23  24
ATOM     24  C   UNL     1       4.707   0.283  -0.146  0.00  0.00    +0.130 A 
ATOM     25  C   UNL     1       5.399   0.345  -1.347  0.00  0.00    +0.046 A 
ATOM     26  C   UNL     1       6.515   1.151  -1.459  0.00  0.00    +0.004 A 
ATOM     27  C   UNL     1       6.949   1.887  -0.372  0.00  0.00    +0.000 A 
ATOM     28  C   UNL     1       6.265   1.823   0.828  0.00  0.00    +0.004 A 
ATOM     29  C   UNL     1       5.145   1.022   0.943  0.00  0.00    +0.046 A 
ENDBRANCH  23  24
ENDBRANCH   5  23
TORSDOF 5
