REMARK  Name = ZINC01282119
REMARK  5 active torsions:
REMARK  status: ('A' for Active; 'I' for Inactive)
REMARK    1  A    between atoms: C_1  and  C_2
REMARK    2  A    between atoms: N_13  and  C_16
REMARK    3  A    between atoms: C_16  and  C_17
REMARK    4  A    between atoms: C_17  and  O_19
REMARK    5  A    between atoms: O_19  and  C_20
REMARK                            x       y       z     vdW  Elec       q    Type
REMARK                         _______ _______ _______ _____ _____    ______ ____
ROOT
ATOM      1  C   UNL     1      -0.788  -4.074  11.299  0.00  0.00    +0.008 C 
ATOM      2  C   UNL     1      -0.439  -2.812  10.508  0.00  0.00    -0.009 C 
ATOM      3  C   UNL     1      -0.442  -3.128   9.010  0.00  0.00    +0.008 C 
ATOM      4  C   UNL     1       0.143  -1.950   8.229  0.00  0.00    +0.037 C 
ATOM      5  C   UNL     1      -0.592  -0.676   8.635  0.00  0.00    -0.023 A 
ATOM      6  C   UNL     1      -1.304  -0.627   9.781  0.00  0.00    -0.004 A 
ATOM      7  S   UNL     1      -1.969   1.015   9.838  0.00  0.00    -0.073 S 
ATOM      8  C   UNL     1      -1.287   1.631   8.320  0.00  0.00    +0.116 A 
ATOM      9  C   UNL     1      -0.564   0.537   7.819  0.00  0.00    +0.076 A 
ATOM     10  C   UNL     1       0.106   0.756   6.571  0.00  0.00    +0.263 A 
ATOM     11  O   UNL     1       0.759  -0.134   6.054  0.00  0.00    -0.267 OA
ATOM     12  N   UNL     1       0.002   1.960   5.979  0.00  0.00    -0.288 N 
ATOM     13  C   UNL     1      -0.717   2.965   6.543  0.00  0.00    +0.203 A 
ATOM     14  N   UNL     1      -1.343   2.794   7.676  0.00  0.00    -0.230 NA
ATOM     15  C   UNL     1      -1.487  -1.725  10.784  0.00  0.00    +0.046 C 
ENDROOT
BRANCH  12  16
ATOM     16  C   UNL     1       0.684   2.194   4.704  0.00  0.00    +0.246 C 
BRANCH  16  17
ATOM     17  C   UNL     1      -0.237   1.831   3.568  0.00  0.00    +0.327 C 
ATOM     18  O   UNL     1      -1.349   1.420   3.800  0.00  0.00    -0.249 OA
BRANCH  17  19
ATOM     19  O   UNL     1       0.177   1.966   2.298  0.00  0.00    -0.460 OA
BRANCH  19  20
ATOM     20  C   UNL     1      -0.763   1.597   1.255  0.00  0.00    +0.176 C 
ATOM     21  C   UNL     1      -0.013   1.086   0.008  0.00  0.00    +0.044 C 
ATOM     22  C   UNL     1      -0.784   1.609  -1.216  0.00  0.00    +0.004 C 
ATOM     23  C   UNL     1      -1.978   2.421  -0.670  0.00  0.00    +0.004 C 
ATOM     24  C   UNL     1      -1.531   2.845   0.750  0.00  0.00    +0.044 C 
ENDBRANCH  19  20
ENDBRANCH  17  19
ENDBRANCH  16  17
ENDBRANCH  12  16
TORSDOF 4
