REMARK  Name = ZINC20755864
REMARK  10 active torsions:
REMARK  status: ('A' for Active; 'I' for Inactive)
REMARK    1  A    between atoms: C_1  and  C_2
REMARK    2  A    between atoms: C_16  and  C_19
REMARK    3  A    between atoms: C_19  and  C_20
REMARK    4  A    between atoms: N_25  and  C_28
REMARK    5  A    between atoms: C_28  and  C_29
REMARK    6  A    between atoms: C_29  and  C_30
REMARK    7  A    between atoms: C_33  and  O_38
REMARK    8  A    between atoms: C_34  and  O_36
REMARK    9  A    between atoms: O_36  and  C_37
REMARK   10  A    between atoms: O_38  and  C_39
REMARK                            x       y       z     vdW  Elec       q    Type
REMARK                         _______ _______ _______ _____ _____    ______ ____
ROOT
ATOM      1  C   UNL     1      -0.018   1.503   0.010  0.00  0.00    +0.045 C 
ATOM      2  C   UNL     1       0.002  -0.004   0.002  0.00  0.00    -0.029 A 
ATOM      3  C   UNL     1       0.006  -0.685  -1.198  0.00  0.00    +0.005 A 
ATOM      4  C   UNL     1       0.025  -2.067  -1.216  0.00  0.00    +0.001 A 
ATOM      5  C   UNL     1       0.040  -2.772  -0.025  0.00  0.00    +0.008 A 
ATOM      6  C   UNL     1       0.036  -2.096   1.175  0.00  0.00    +0.004 A 
ATOM      7  C   UNL     1       0.023  -0.705   1.205  0.00  0.00    +0.042 A 
ATOM      8  N   UNL     1       0.030  -0.250   2.526  0.00  0.00    -0.283 N 
ATOM      9  C   UNL     1       0.051  -1.265   3.412  0.00  0.00    +0.243 C 
ATOM     10  O   UNL     1       0.062  -1.170   4.621  0.00  0.00    -0.273 OA
ATOM     11  C   UNL     1       0.046  -2.538   2.611  0.00  0.00    +0.136 C 
ATOM     12  C   UNL     1       1.278  -3.393   2.930  0.00  0.00    +0.122 C 
ATOM     13  C   UNL     1       0.768  -4.859   2.856  0.00  0.00    +0.107 C 
ATOM     14  C   UNL     1      -0.727  -4.739   2.492  0.00  0.00    +0.076 C 
ATOM     15  N   UNL     1      -1.123  -3.380   2.925  0.00  0.00    -0.295 NA
ATOM     16  C   UNL     1       1.534  -5.436   1.687  0.00  0.00    +0.227 C 
ATOM     17  O   UNL     1       1.438  -6.574   1.280  0.00  0.00    -0.275 OA
ATOM     18  N   UNL     1       2.333  -4.495   1.171  0.00  0.00    -0.241 N 
ATOM     19  C   UNL     1       2.275  -3.298   1.798  0.00  0.00    +0.228 C 
ATOM     20  O   UNL     1       2.911  -2.308   1.505  0.00  0.00    -0.275 OA
ATOM     21  H   UNL     1       0.021   0.687   2.776  0.00  0.00    +0.155 HD
ATOM     22  H   UNL     1      -1.321  -3.370   3.914  0.00  0.00    +0.124 HD
ENDROOT
BRANCH  14  23
ATOM     23  C   UNL     1      -1.541  -5.809   3.224  0.00  0.00    +0.115 C 
BRANCH  23  24
ATOM     24  C   UNL     1      -2.974  -5.754   2.762  0.00  0.00    +0.212 C 
ATOM     25  O   UNL     1      -3.312  -4.939   1.929  0.00  0.00    -0.276 OA
ATOM     26  N   UNL     1      -3.881  -6.610   3.273  0.00  0.00    -0.329 N 
ATOM     27  H   UNL     1      -3.611  -7.261   3.939  0.00  0.00    +0.145 HD
ATOM     28  H   UNL     1      -4.803  -6.574   2.976  0.00  0.00    +0.145 HD
ENDBRANCH  23  24
ENDBRANCH  14  23
BRANCH  18  29
ATOM     29  C   UNL     1       3.208  -4.741   0.022  0.00  0.00    +0.121 C 
BRANCH  29  30
ATOM     30  C   UNL     1       2.456  -4.418  -1.270  0.00  0.00    +0.054 C 
BRANCH  30  31
ATOM     31  C   UNL     1       3.356  -4.672  -2.452  0.00  0.00    -0.042 A 
ATOM     32  C   UNL     1       4.164  -3.658  -2.934  0.00  0.00    +0.007 A 
ATOM     33  C   UNL     1       4.991  -3.886  -4.018  0.00  0.00    +0.049 A 
ATOM     34  C   UNL     1       5.013  -5.132  -4.623  0.00  0.00    +0.161 A 
ATOM     35  C   UNL     1       4.201  -6.152  -4.138  0.00  0.00    +0.162 A 
ATOM     36  C   UNL     1       3.377  -5.919  -3.048  0.00  0.00    +0.053 A 
BRANCH  35  37
ATOM     37  O   UNL     1       4.218  -7.377  -4.728  0.00  0.00    -0.491 OA
ATOM     38  C   UNL     1       3.358  -8.376  -4.177  0.00  0.00    +0.277 C 
ENDBRANCH  35  37
BRANCH  34  39
ATOM     39  O   UNL     1       5.826  -5.357  -5.689  0.00  0.00    -0.491 OA
ATOM     40  C   UNL     1       6.632  -4.264  -6.134  0.00  0.00    +0.277 C 
ENDBRANCH  34  39
ENDBRANCH  30  31
ENDBRANCH  29  30
ENDBRANCH  18  29
TORSDOF 7
