REMARK  Name = ZINC63974829
REMARK  7 active torsions:
REMARK  status: ('A' for Active; 'I' for Inactive)
REMARK    1  A    between atoms: C_1  and  N_2
REMARK    2  A    between atoms: C_10  and  C_12
REMARK    3  A    between atoms: C_12  and  C_14
REMARK    4  A    between atoms: C_12  and  N_20
REMARK    5  A    between atoms: C_21  and  C_23
REMARK    6  A    between atoms: C_23  and  C_24
REMARK    7  A    between atoms: C_24  and  C_25
REMARK                            x       y       z     vdW  Elec       q    Type
REMARK                         _______ _______ _______ _____ _____    ______ ____
ROOT
ATOM      1  C   UNL     1       1.285  -0.618   2.008  0.00  0.00    +0.141 C 
ENDROOT
BRANCH   1  11
ATOM      2  C   UNL     1      -0.018   1.461   0.010  0.00  0.00    +0.131 C 
ATOM      3  N   UNL     1       0.002  -0.004   0.002  0.00  0.00    -0.311 N 
ATOM      4  C   UNL     1       0.009  -0.828  -1.132  0.00  0.00    +0.052 A 
ATOM      5  C   UNL     1      -0.002  -0.504  -2.483  0.00  0.00    +0.025 A 
ATOM      6  C   UNL     1       0.007  -1.504  -3.437  0.00  0.00    +0.002 A 
ATOM      7  C   UNL     1       0.026  -2.832  -3.050  0.00  0.00    +0.002 A 
ATOM      8  C   UNL     1       0.037  -3.163  -1.709  0.00  0.00    +0.025 A 
ATOM      9  C   UNL     1       0.028  -2.164  -0.743  0.00  0.00    +0.050 A 
ATOM     10  N   UNL     1       0.035  -2.251   0.656  0.00  0.00    -0.323 N 
ATOM     11  C   UNL     1       0.025  -0.880   1.179  0.00  0.00    +0.183 C 
ATOM     12  H   UNL     1       0.048  -3.067   1.181  0.00  0.00    +0.148 HD
ENDBRANCH   1  11
BRANCH   1  13
ATOM     13  C   UNL     1       1.292  -1.525   3.211  0.00  0.00    -0.024 A 
ATOM     14  C   UNL     1       1.698  -2.840   3.083  0.00  0.00    +0.005 A 
ATOM     15  C   UNL     1       1.704  -3.672   4.187  0.00  0.00    +0.000 A 
ATOM     16  C   UNL     1       1.306  -3.189   5.420  0.00  0.00    +0.000 A 
ATOM     17  C   UNL     1       0.901  -1.873   5.548  0.00  0.00    +0.000 A 
ATOM     18  C   UNL     1       0.898  -1.040   4.445  0.00  0.00    +0.005 A 
ENDBRANCH   1  13
BRANCH   1  19
ATOM     19  N   UNL     1       2.471  -0.883   1.190  0.00  0.00    -0.305 N 
ATOM     20  C   UNL     1       3.639  -0.275   1.480  0.00  0.00    +0.214 C 
ATOM     21  O   UNL     1       3.707   0.491   2.417  0.00  0.00    -0.276 OA
ATOM     22  H   UNL     1       2.416  -1.496   0.440  0.00  0.00    +0.149 HD
BRANCH  20  23
ATOM     23  C   UNL     1       4.859  -0.548   0.638  0.00  0.00    +0.100 C 
BRANCH  23  24
ATOM     24  C   UNL     1       6.040   0.262   1.176  0.00  0.00    +0.042 C 
BRANCH  24  25
ATOM     25  C   UNL     1       7.261  -0.011   0.335  0.00  0.00    -0.041 C 
ATOM     26  C   UNL     1       7.707   0.722  -0.711  0.00  0.00    -0.001 A 
ATOM     27  C   UNL     1       7.210   1.944  -1.353  0.00  0.00    +0.010 A 
ATOM     28  C   UNL     1       7.888   2.454  -2.407  0.00  0.00    +0.001 A 
ATOM     29  C   UNL     1       9.050   1.846  -2.899  0.00  0.00    +0.002 A 
ATOM     30  C   UNL     1       9.569   0.721  -2.362  0.00  0.00    +0.026 A 
ATOM     31  C   UNL     1       8.938   0.099  -1.250  0.00  0.00    +0.043 A 
ATOM     32  N   UNL     1       9.239  -0.977  -0.564  0.00  0.00    -0.380 N 
ATOM     33  C   UNL     1       8.237  -1.155   0.492  0.00  0.00    +0.144 C 
ATOM     34  H   UNL     1      10.000  -1.556  -0.726  0.00  0.00    +0.160 HD
ENDBRANCH  24  25
ENDBRANCH  23  24
ENDBRANCH  20  23
ENDBRANCH   1  19
TORSDOF 6
