REMARK  Name = ZINC02116414
REMARK  6 active torsions:
REMARK  status: ('A' for Active; 'I' for Inactive)
REMARK    1  A    between atoms: C_1  and  C_2
REMARK    2  A    between atoms: C_2  and  C_3
REMARK    3  A    between atoms: C_3  and  C_4
REMARK    4  A    between atoms: C_4  and  N_5
REMARK    5  A    between atoms: C_17  and  O_22
REMARK    6  A    between atoms: C_18  and  C_21
REMARK                            x       y       z     vdW  Elec       q    Type
REMARK                         _______ _______ _______ _____ _____    ______ ____
ROOT
ATOM      1  N   UNL     1       1.471  -2.526   2.420  0.00  0.00    -0.306 N 
ATOM      2  C   UNL     1       2.835  -2.726   2.354  0.00  0.00    +0.056 A 
ATOM      3  C   UNL     1       3.537  -2.471   1.181  0.00  0.00    +0.026 A 
ATOM      4  C   UNL     1       4.899  -2.678   1.137  0.00  0.00    +0.002 A 
ATOM      5  C   UNL     1       5.581  -3.140   2.254  0.00  0.00    +0.001 A 
ATOM      6  C   UNL     1       4.914  -3.397   3.418  0.00  0.00    +0.013 A 
ATOM      7  C   UNL     1       3.532  -3.193   3.486  0.00  0.00    +0.043 A 
ATOM      8  C   UNL     1       2.783  -3.455   4.714  0.00  0.00    +0.161 A 
ATOM      9  C   UNL     1       1.414  -3.236   4.718  0.00  0.00    +0.174 A 
ATOM     10  C   UNL     1       0.777  -2.760   3.548  0.00  0.00    +0.281 A 
ATOM     11  O   UNL     1      -0.425  -2.563   3.560  0.00  0.00    -0.265 OA
ATOM     12  N   UNL     1       0.698  -3.482   5.862  0.00  0.00    -0.205 NA
ATOM     13  C   UNL     1       1.313  -3.609   6.998  0.00  0.00    +0.230 C 
ATOM     14  C   UNL     1       2.812  -3.478   7.075  0.00  0.00    +0.255 C 
ATOM     15  O   UNL     1       3.392  -3.900   5.836  0.00  0.00    -0.477 OA
ATOM     16  C   UNL     1       3.344  -4.353   8.212  0.00  0.00    +0.062 C 
ENDROOT
BRANCH  13  17
ATOM     17  O   UNL     1       0.604  -3.861   8.120  0.00  0.00    -0.493 OA
ATOM     18  H   UNL     1      -0.349  -3.929   7.976  0.00  0.00    +0.294 HD
ENDBRANCH  13  17
BRANCH   1  19
ATOM     19  C   UNL     1       0.763  -2.041   1.233  0.00  0.00    +0.125 C 
BRANCH  19  20
ATOM     20  C   UNL     1       0.742  -0.511   1.242  0.00  0.00    +0.021 C 
BRANCH  20  22
ATOM     21  C   UNL     1      -0.019   1.526   0.010  0.00  0.00    +0.004 C 
ATOM     22  C   UNL     1       0.002  -0.004   0.002  0.00  0.00    -0.002 C 
ENDBRANCH  20  22
ENDBRANCH  19  20
ENDBRANCH   1  19
TORSDOF 4
