REMARK  Name = ZINC06349755
REMARK  12 active torsions:
REMARK  status: ('A' for Active; 'I' for Inactive)
REMARK    1  A    between atoms: C_1  and  C_2
REMARK    2  A    between atoms: C_2  and  C_3
REMARK    3  A    between atoms: C_3  and  C_4
REMARK    4  A    between atoms: C_4  and  N_5
REMARK    5  A    between atoms: C_6  and  C_8
REMARK    6  A    between atoms: C_8  and  C_10
REMARK    7  A    between atoms: C_8  and  S_12
REMARK    8  A    between atoms: C_10  and  C_11
REMARK    9  A    between atoms: S_12  and  C_13
REMARK   10  A    between atoms: C_17  and  C_21
REMARK   11  A    between atoms: N_24  and  C_25
REMARK   12  A    between atoms: C_30  and  C_31
REMARK                            x       y       z     vdW  Elec       q    Type
REMARK                         _______ _______ _______ _____ _____    ______ ____
ROOT
ATOM      1  C   UNL     1      -3.091   0.735   1.195  0.00  0.00    +0.178 A 
ATOM      2  N   UNL     1      -4.162  -0.017   1.274  0.00  0.00    -0.201 NA
ATOM      3  C   UNL     1      -4.824  -0.443   0.187  0.00  0.00    +0.187 A 
ATOM      4  C   UNL     1      -4.368  -0.081  -1.088  0.00  0.00    +0.082 A 
ATOM      5  C   UNL     1      -5.240  -0.660  -2.026  0.00  0.00    +0.046 A 
ATOM      6  N   UNL     1      -6.159  -1.324  -1.378  0.00  0.00    -0.279 N 
ATOM      7  N   UNL     1      -5.931  -1.211  -0.000  0.00  0.00    -0.153 NA
ATOM      8  H   UNL     1      -6.946  -1.856  -1.931  0.00  0.00    +0.189 HD
ATOM      9  C   UNL     1      -5.131  -0.540  -3.524  0.00  0.00    +0.066 C 
ATOM     10  C   UNL     1      -3.168   0.761  -1.185  0.00  0.00    +0.124 A 
ATOM     11  N   UNL     1      -2.689   1.133  -2.347  0.00  0.00    -0.384 N 
ATOM     12  N   UNL     1      -2.562   1.145   0.001  0.00  0.00    -0.274 N 
ATOM     13  H   UNL     1      -1.789   1.764  -2.394  0.00  0.00    +0.157 HD
ATOM     14  H   UNL     1      -3.186   0.815  -3.275  0.00  0.00    +0.157 HD
ENDROOT
BRANCH  12  15
ATOM     15  C   UNL     1      -1.415   1.948  -0.021  0.00  0.00    +0.053 A 
ATOM     16  C   UNL     1      -0.156   1.362  -0.065  0.00  0.00    +0.026 A 
ATOM     17  C   UNL     1       0.973   2.157  -0.094  0.00  0.00    +0.002 A 
ATOM     18  C   UNL     1       0.851   3.535  -0.073  0.00  0.00    +0.000 A 
ATOM     19  C   UNL     1      -0.400   4.120  -0.024  0.00  0.00    +0.005 A 
ATOM     20  C   UNL     1      -1.534   3.331   0.006  0.00  0.00    -0.026 A 
ATOM     21  C   UNL     1      -2.897   3.970   0.062  0.00  0.00    +0.046 C 
ENDBRANCH  12  15
BRANCH   1  22
ATOM     22  S   UNL     1      -2.301   1.238   2.687  0.00  0.00    -0.075 S 
BRANCH  22  23
ATOM     23  C   UNL     1      -3.459   0.560   3.901  0.00  0.00    +0.140 C 
BRANCH  23  25
ATOM     24  N   UNL     1      -4.436  -1.679   4.289  0.00  0.00    -0.314 N 
ATOM     25  C   UNL     1      -3.381  -0.945   3.884  0.00  0.00    +0.226 C 
ATOM     26  O   UNL     1      -2.368  -1.495   3.507  0.00  0.00    -0.275 OA
ATOM     27  H   UNL     1      -5.355  -1.179   4.631  0.00  0.00    +0.149 HD
BRANCH  24  28
ATOM     28  C   UNL     1      -4.360  -3.142   4.273  0.00  0.00    +0.104 C 
BRANCH  28  29
ATOM     29  C   UNL     1      -5.681  -3.727   4.777  0.00  0.00    +0.018 C 
BRANCH  29  31
ATOM     30  C   UNL     1      -6.922  -5.840   5.263  0.00  0.00    +0.004 C 
ATOM     31  C   UNL     1      -5.601  -5.255   4.760  0.00  0.00    -0.002 C 
ENDBRANCH  29  31
ENDBRANCH  28  29
ENDBRANCH  24  28
ENDBRANCH  23  25
BRANCH  23  32
ATOM     32  C   UNL     1      -3.096   1.075   5.295  0.00  0.00    +0.020 C 
ATOM     33  C   UNL     1      -3.311   2.589   5.352  0.00  0.00    +0.005 C 
ENDBRANCH  23  32
ENDBRANCH  22  23
ENDBRANCH   1  22
TORSDOF 8
