REMARK  Name = ZINC51384372
REMARK  7 active torsions:
REMARK  status: ('A' for Active; 'I' for Inactive)
REMARK    1  A    between atoms: C_1  and  C_2
REMARK    2  A    between atoms: C_2  and  C_3
REMARK    3  A    between atoms: C_2  and  C_4
REMARK    4  A    between atoms: C_4  and  C_5
REMARK    5  A    between atoms: C_10  and  N_13
REMARK    6  A    between atoms: C_14  and  C_16
REMARK    7  A    between atoms: C_21  and  O_22
REMARK                            x       y       z     vdW  Elec       q    Type
REMARK                         _______ _______ _______ _____ _____    ______ ____
ROOT
ATOM      1  N   UNL     1      -5.579  -4.738   1.986  0.00  0.00    -0.308 N 
ATOM      2  C   UNL     1      -6.242  -5.894   1.784  0.00  0.00    +0.248 C 
ATOM      3  O   UNL     1      -6.180  -6.450   0.704  0.00  0.00    -0.270 OA
ATOM      4  H   UNL     1      -5.629  -4.295   2.848  0.00  0.00    +0.149 HD
ENDROOT
BRANCH   2   5
ATOM      5  C   UNL     1      -7.042  -6.486   2.873  0.00  0.00    +0.078 A 
ATOM      6  C   UNL     1      -7.122  -5.852   4.112  0.00  0.00    +0.020 A 
ATOM      7  C   UNL     1      -7.874  -6.403   5.137  0.00  0.00    -0.043 A 
ATOM      8  C   UNL     1      -8.553  -7.588   4.933  0.00  0.00    -0.041 A 
ATOM      9  C   UNL     1      -8.477  -8.229   3.705  0.00  0.00    +0.050 A 
ATOM     10  C   UNL     1      -7.733  -7.689   2.670  0.00  0.00    +0.129 A 
ATOM     11  C   UNL     1      -9.400  -8.229   6.002  0.00  0.00    +0.035 C 
ATOM     12  C   UNL     1      -9.045  -7.667   7.378  0.00  0.00    +0.005 C 
ATOM     13  C   UNL     1      -9.086  -6.136   7.301  0.00  0.00    +0.005 C 
ATOM     14  C   UNL     1      -7.908  -5.666   6.450  0.00  0.00    +0.035 C 
BRANCH  10  15
ATOM     15  O   UNL     1      -7.670  -8.320   1.471  0.00  0.00    -0.506 OA
ATOM     16  H   UNL     1      -6.945  -8.956   1.399  0.00  0.00    +0.292 HD
ENDBRANCH  10  15
ENDBRANCH   2   5
BRANCH   1  22
ATOM     17  C   UNL     1      -1.416  -2.035  -0.119  0.00  0.00    +0.216 C 
ATOM     18  O   UNL     1      -0.359  -2.623  -0.213  0.00  0.00    -0.276 OA
ATOM     19  N   UNL     1      -2.574  -2.724  -0.133  0.00  0.00    -0.301 N 
ATOM     20  C   UNL     1      -3.862  -2.024  -0.027  0.00  0.00    +0.109 C 
ATOM     21  C   UNL     1      -4.664  -2.640   1.124  0.00  0.00    +0.041 C 
ATOM     22  C   UNL     1      -4.785  -4.150   0.905  0.00  0.00    +0.076 C 
ATOM     23  C   UNL     1      -3.390  -4.779   0.897  0.00  0.00    +0.041 C 
ATOM     24  C   UNL     1      -2.574  -4.187  -0.261  0.00  0.00    +0.109 C 
BRANCH  17  25
ATOM     25  C   UNL     1      -1.433  -0.534   0.013  0.00  0.00    +0.099 C 
BRANCH  25  27
ATOM     26  C   UNL     1      -0.019   1.526   0.010  0.00  0.00    +0.008 C 
ATOM     27  C   UNL     1       0.002  -0.004   0.002  0.00  0.00    -0.008 C 
ATOM     28  C   UNL     1       0.742  -0.511   1.242  0.00  0.00    +0.008 C 
ENDBRANCH  25  27
ENDBRANCH  17  25
ENDBRANCH   1  22
TORSDOF 5
