REMARK  Name = ZINC11424693
REMARK  7 active torsions:
REMARK  status: ('A' for Active; 'I' for Inactive)
REMARK    1  A    between atoms: C_1  and  C_2
REMARK    2  A    between atoms: C_11  and  S_16
REMARK    3  A    between atoms: N_12  and  C_13
REMARK    4  A    between atoms: S_16  and  C_17
REMARK    5  A    between atoms: C_17  and  C_19
REMARK    6  A    between atoms: C_17  and  C_20
REMARK    7  A    between atoms: C_26  and  C_31
REMARK                            x       y       z     vdW  Elec       q    Type
REMARK                         _______ _______ _______ _____ _____    ______ ____
ROOT
ATOM      1  C   UNL     1      -2.251   0.383   0.795  0.00  0.00    +0.117 C 
ATOM      2  C   UNL     1      -2.472   0.367  -0.718  0.00  0.00    +0.027 C 
ENDROOT
BRANCH   1   3
ATOM      3  C   UNL     1      -0.911   1.001   1.101  0.00  0.00    +0.124 A 
ATOM      4  N   UNL     1       0.170   0.198   1.274  0.00  0.00    -0.309 N 
ATOM      5  H   UNL     1       0.065  -0.763   1.199  0.00  0.00    +0.170 HD
ATOM      6  C   UNL     1       1.385   0.710   1.543  0.00  0.00    +0.260 A 
ATOM      7  O   UNL     1       2.347  -0.024   1.690  0.00  0.00    -0.267 OA
ATOM      8  C   UNL     1       1.532   2.130   1.651  0.00  0.00    +0.083 A 
ATOM      9  C   UNL     1       2.729   2.915   1.931  0.00  0.00    +0.039 A 
ATOM     10  C   UNL     1       2.622   4.267   1.986  0.00  0.00    +0.059 A 
ATOM     11  S   UNL     1       0.894   4.558   1.662  0.00  0.00    -0.076 S 
ATOM     12  C   UNL     1       0.359   2.878   1.462  0.00  0.00    +0.116 A 
ATOM     13  N   UNL     1      -0.810   2.300   1.199  0.00  0.00    -0.225 NA
BRANCH   9  14
ATOM     14  C   UNL     1       4.030   2.253   2.151  0.00  0.00    +0.136 A 
ATOM     15  C   UNL     1       5.201   2.569   1.534  0.00  0.00    +0.050 A 
ATOM     16  C   UNL     1       6.179   1.690   2.045  0.00  0.00    +0.042 A 
ATOM     17  C   UNL     1       5.562   0.885   2.930  0.00  0.00    +0.196 A 
ATOM     18  O   UNL     1       4.263   1.227   2.992  0.00  0.00    -0.463 OA
ENDBRANCH   9  14
ENDBRANCH   1   3
BRANCH   1  19
ATOM     19  S   UNL     1      -3.560   1.357   1.588  0.00  0.00    -0.075 S 
BRANCH  19  30
ATOM     20  C   UNL     1     -12.557  -1.118   2.510  0.00  0.00    +0.007 C 
ATOM     21  C   UNL     1     -11.038  -1.254   2.393  0.00  0.00    -0.011 C 
ATOM     22  C   UNL     1     -10.644  -1.335   0.915  0.00  0.00    +0.022 C 
ATOM     23  C   UNL     1      -9.120  -1.410   0.802  0.00  0.00    +0.108 C 
ATOM     24  N   UNL     1      -8.522  -0.221   1.423  0.00  0.00    -0.300 N 
ATOM     25  C   UNL     1      -8.847  -0.148   2.853  0.00  0.00    +0.108 C 
ATOM     26  C   UNL     1     -10.363  -0.035   3.027  0.00  0.00    +0.022 C 
ATOM     27  C   UNL     1      -7.148  -0.193   1.223  0.00  0.00    +0.221 A 
ATOM     28  N   UNL     1      -6.445  -1.088   0.573  0.00  0.00    -0.112 NA
ATOM     29  N   UNL     1      -5.103  -0.686   0.597  0.00  0.00    -0.121 NA
ATOM     30  C   UNL     1      -5.029   0.438   1.267  0.00  0.00    +0.194 A 
ATOM     31  N   UNL     1      -6.291   0.774   1.669  0.00  0.00    -0.287 N 
BRANCH  31  32
ATOM     32  C   UNL     1      -6.661   1.962   2.442  0.00  0.00    +0.093 C 
ATOM     33  C   UNL     1      -5.657   3.115   2.489  0.00  0.00    +0.027 C 
ATOM     34  C   UNL     1      -5.878   2.241   3.726  0.00  0.00    +0.027 C 
ENDBRANCH  31  32
ENDBRANCH  19  30
ENDBRANCH   1  19
TORSDOF 5
