REMARK  Name = ZINC23749498
REMARK  10 active torsions:
REMARK  status: ('A' for Active; 'I' for Inactive)
REMARK    1  A    between atoms: C_1  and  C_2
REMARK    2  A    between atoms: C_7  and  O_35
REMARK    3  A    between atoms: C_8  and  C_10
REMARK    4  A    between atoms: C_10  and  C_12
REMARK    5  A    between atoms: C_10  and  N_22
REMARK    6  A    between atoms: C_14  and  O_20
REMARK    7  A    between atoms: C_17  and  O_18
REMARK    8  A    between atoms: O_18  and  C_19
REMARK    9  A    between atoms: O_20  and  C_21
REMARK   10  A    between atoms: N_25  and  C_28
REMARK                            x       y       z     vdW  Elec       q    Type
REMARK                         _______ _______ _______ _____ _____    ______ ____
ROOT
ATOM      1  C   UNL     1      -1.361  -0.549  -0.064  0.00  0.00    +0.133 C 
ENDROOT
BRANCH   1   9
ATOM      2  C   UNL     1      -5.618   2.044  -5.613  0.00  0.00    +0.090 C 
ATOM      3  C   UNL     1      -4.641   1.498  -4.603  0.00  0.00    +0.150 A 
ATOM      4  N   UNL     1      -3.402   1.091  -4.871  0.00  0.00    -0.205 NA
ATOM      5  C   UNL     1      -2.836   0.679  -3.770  0.00  0.00    +0.199 A 
ATOM      6  N   UNL     1      -3.707   0.809  -2.732  0.00  0.00    -0.173 N 
ATOM      7  N   UNL     1      -4.877   1.350  -3.327  0.00  0.00    -0.147 NA
ATOM      8  C   UNL     1      -3.271   0.413  -1.490  0.00  0.00    +0.228 A 
ATOM      9  C   UNL     1      -2.033  -0.068  -1.324  0.00  0.00    +0.076 A 
ATOM     10  S   UNL     1      -1.390   0.003  -2.989  0.00  0.00    -0.047 S 
BRANCH   8  11
ATOM     11  O   UNL     1      -4.103   0.516  -0.419  0.00  0.00    -0.492 OA
ATOM     12  H   UNL     1      -3.759   0.201   0.577  0.00  0.00    +0.294 HD
ENDBRANCH   8  11
ENDBRANCH   1   9
BRANCH   1  13
ATOM     13  C   UNL     1      -1.300  -2.054  -0.071  0.00  0.00    +0.020 A 
ATOM     14  C   UNL     1      -0.133  -2.697  -0.436  0.00  0.00    +0.054 A 
ATOM     15  C   UNL     1      -0.076  -4.083  -0.437  0.00  0.00    +0.121 A 
ATOM     16  C   UNL     1      -1.194  -4.824  -0.082  0.00  0.00    +0.049 A 
ATOM     17  C   UNL     1      -2.362  -4.181   0.278  0.00  0.00    +0.049 A 
ATOM     18  C   UNL     1      -2.417  -2.795   0.284  0.00  0.00    +0.125 A 
BRANCH  18  19
ATOM     19  O   UNL     1      -3.568  -2.162   0.639  0.00  0.00    -0.495 OA
ATOM     20  C   UNL     1      -4.679  -2.987   0.993  0.00  0.00    +0.277 C 
ENDBRANCH  18  19
BRANCH  15  21
ATOM     21  O   UNL     1       1.075  -4.715  -0.792  0.00  0.00    -0.495 OA
ATOM     22  C   UNL     1       1.060  -6.144  -0.776  0.00  0.00    +0.277 C 
ENDBRANCH  15  21
ENDBRANCH   1  13
BRANCH   1  23
ATOM     23  N   UNL     1       0.002  -0.004   0.002  0.00  0.00    -0.288 NA
ATOM     24  C   UNL     1      -0.018   1.465   0.010  0.00  0.00    +0.104 C 
ATOM     25  C   UNL     1       1.419   1.992  -0.001  0.00  0.00    +0.120 C 
ATOM     26  N   UNL     1       2.138   1.472   1.171  0.00  0.00    -0.325 N 
ATOM     27  C   UNL     1       2.158   0.003   1.162  0.00  0.00    +0.120 C 
ATOM     28  C   UNL     1       0.721  -0.525   1.173  0.00  0.00    +0.104 C 
BRANCH  26  29
ATOM     29  C   UNL     1       3.435   1.990   1.234  0.00  0.00    +0.065 A 
ATOM     30  C   UNL     1       4.353   1.692   0.235  0.00  0.00    +0.026 A 
ATOM     31  C   UNL     1       5.633   2.209   0.298  0.00  0.00    +0.002 A 
ATOM     32  C   UNL     1       6.004   3.015   1.359  0.00  0.00    +0.003 A 
ATOM     33  C   UNL     1       5.095   3.311   2.358  0.00  0.00    +0.040 A 
ATOM     34  C   UNL     1       3.811   2.801   2.299  0.00  0.00    +0.144 A 
ATOM     35  F   UNL     1       2.923   3.090   3.276  0.00  0.00    -0.204 F 
ENDBRANCH  26  29
ENDBRANCH   1  23
TORSDOF 7
