REMARK  Name = ZINC38604284
REMARK  8 active torsions:
REMARK  status: ('A' for Active; 'I' for Inactive)
REMARK    1  A    between atoms: C_1  and  O_2
REMARK    2  A    between atoms: O_2  and  C_3
REMARK    3  A    between atoms: C_7  and  C_9
REMARK    4  A    between atoms: N_11  and  C_12
REMARK    5  A    between atoms: C_12  and  C_13
REMARK    6  A    between atoms: C_13  and  C_15
REMARK    7  A    between atoms: C_13  and  N_20
REMARK    8  A    between atoms: N_23  and  C_26
REMARK                            x       y       z     vdW  Elec       q    Type
REMARK                         _______ _______ _______ _____ _____    ______ ____
ROOT
ATOM      1  C   UNL     1      -0.045  -6.769   0.036  0.00  0.00    +0.017 C 
ENDROOT
BRANCH   1   2
ATOM      2  N   UNL     1       0.631  -6.226   1.222  0.00  0.00    +0.389 N 
ATOM      3  C   UNL     1       0.464  -4.767   1.253  0.00  0.00    -0.059 C 
ATOM      4  C   UNL     1       1.069  -4.212   2.547  0.00  0.00    +0.086 C 
ATOM      5  N   UNL     1       2.465  -4.665   2.640  0.00  0.00    -0.333 N 
ATOM      6  C   UNL     1       2.743  -6.098   2.456  0.00  0.00    +0.086 C 
ATOM      7  C   UNL     1       2.059  -6.564   1.167  0.00  0.00    -0.059 C 
ATOM      8  H   UNL     1       0.223  -6.626   2.053  0.00  0.00    -0.081 HD
BRANCH   5   9
ATOM      9  C   UNL     1       3.499  -3.760   2.897  0.00  0.00    +0.030 A 
ATOM     10  C   UNL     1       3.233  -2.398   2.951  0.00  0.00    +0.026 A 
ATOM     11  C   UNL     1       4.256  -1.505   3.205  0.00  0.00    +0.040 A 
ATOM     12  C   UNL     1       5.546  -1.967   3.406  0.00  0.00    +0.124 A 
ATOM     13  C   UNL     1       5.813  -3.325   3.352  0.00  0.00    +0.040 A 
ATOM     14  C   UNL     1       4.793  -4.221   3.103  0.00  0.00    +0.026 A 
ATOM     15  F   UNL     1       6.545  -1.092   3.654  0.00  0.00    -0.205 F 
ENDBRANCH   5   9
ENDBRANCH   1   2
BRANCH   1  16
ATOM     16  C   UNL     1       0.031  -8.274   0.060  0.00  0.00    +0.093 A 
ATOM     17  C   UNL     1       0.256  -9.067  -1.003  0.00  0.00    +0.043 A 
ATOM     18  C   UNL     1       0.245 -10.399  -0.529  0.00  0.00    +0.041 A 
ATOM     19  C   UNL     1       0.013 -10.340   0.795  0.00  0.00    +0.195 A 
ATOM     20  O   UNL     1      -0.110  -9.050   1.147  0.00  0.00    -0.469 OA
ENDBRANCH   1  16
BRANCH   1  21
ATOM     21  C   UNL     1      -1.512  -6.332   0.041  0.00  0.00    +0.097 C 
BRANCH  21  24
ATOM     22  C   UNL     1      -3.398  -6.342   1.583  0.00  0.00    +0.245 C 
ATOM     23  O   UNL     1      -4.025  -5.686   0.774  0.00  0.00    -0.270 OA
ATOM     24  N   UNL     1      -2.132  -6.716   1.311  0.00  0.00    -0.312 N 
ATOM     25  H   UNL     1      -1.632  -7.240   1.956  0.00  0.00    +0.149 HD
BRANCH  22  30
ATOM     26  C   UNL     1      -3.899  -7.844   4.992  0.00  0.00    +0.121 A 
ATOM     27  C   UNL     1      -5.204  -7.455   5.267  0.00  0.00    +0.047 A 
ATOM     28  C   UNL     1      -5.917  -6.708   4.348  0.00  0.00    +0.019 A 
ATOM     29  C   UNL     1      -5.335  -6.344   3.149  0.00  0.00    +0.030 A 
ATOM     30  C   UNL     1      -4.024  -6.730   2.865  0.00  0.00    +0.054 A 
ATOM     31  C   UNL     1      -3.305  -7.479   3.797  0.00  0.00    +0.059 A 
ATOM     32 BR   UNL     1      -6.315  -5.323   1.895  0.00  0.00    -0.050 Br
BRANCH  26  34
ATOM     33  C   UNL     1      -3.879  -8.919   7.113  0.00  0.00    +0.277 C 
ATOM     34  O   UNL     1      -3.204  -8.578   5.900  0.00  0.00    -0.495 OA
ENDBRANCH  26  34
ENDBRANCH  22  30
ENDBRANCH  21  24
ENDBRANCH   1  21
TORSDOF 7
