REMARK  Name = ZINC09428143
REMARK  11 active torsions:
REMARK  status: ('A' for Active; 'I' for Inactive)
REMARK    1  A    between atoms: C_1  and  C_2
REMARK    2  A    between atoms: C_2  and  C_3
REMARK    3  A    between atoms: C_3  and  C_4
REMARK    4  A    between atoms: C_4  and  O_5
REMARK    5  A    between atoms: O_5  and  C_6
REMARK    6  A    between atoms: C_6  and  C_8
REMARK    7  A    between atoms: C_9  and  N_29
REMARK    8  A    between atoms: C_11  and  C_28
REMARK    9  A    between atoms: C_12  and  C_24
REMARK   10  A    between atoms: C_24  and  O_26
REMARK   11  A    between atoms: O_26  and  C_27
REMARK                            x       y       z     vdW  Elec       q    Type
REMARK                         _______ _______ _______ _____ _____    ______ ____
ROOT
ATOM      1  C   UNL     1       2.294   1.459  -0.350  0.00  0.00    +0.117 C 
ATOM      2  C   UNL     1       1.097   2.036  -0.064  0.00  0.00    +0.195 C 
ATOM      3  O   UNL     1      -0.049   1.334  -0.095  0.00  0.00    -0.446 OA
ATOM      4  C   UNL     1      -0.009  -0.005  -0.035  0.00  0.00    +0.116 C 
ATOM      5  C   UNL     1       1.102  -0.700  -0.314  0.00  0.00    +0.098 C 
ATOM      6  C   UNL     1       2.369   0.002  -0.708  0.00  0.00    +0.145 C 
ATOM      7  C   UNL     1       2.627  -0.164  -2.185  0.00  0.00    -0.001 A 
ATOM      8  C   UNL     1       1.923   0.205  -3.309  0.00  0.00    +0.022 A 
ATOM      9  C   UNL     1       2.424  -0.091  -4.566  0.00  0.00    +0.018 A 
ATOM     10  C   UNL     1       3.630  -0.760  -4.686  0.00  0.00    +0.017 A 
ATOM     11  C   UNL     1       4.336  -1.131  -3.561  0.00  0.00    +0.025 A 
ATOM     12  C   UNL     1       3.839  -0.836  -2.293  0.00  0.00    +0.038 A 
ATOM     13  N   UNL     1       4.358  -1.101  -1.024  0.00  0.00    -0.284 N 
ATOM     14  C   UNL     1       3.560  -0.644  -0.043  0.00  0.00    +0.237 C 
ATOM     15  O   UNL     1       3.760  -0.733   1.150  0.00  0.00    -0.274 OA
ATOM     16 BR   UNL     1       1.462   0.414  -6.113  0.00  0.00    -0.050 Br
ATOM     17  C   UNL     1      -1.257  -0.753   0.359  0.00  0.00    +0.087 C 
ATOM     18  H   UNL     1       5.197  -1.562  -0.869  0.00  0.00    +0.155 HD
ENDROOT
BRANCH   2  19
ATOM     19  N   UNL     1       1.057   3.364   0.264  0.00  0.00    -0.329 N 
ATOM     20  H   UNL     1       0.224   3.767   0.556  0.00  0.00    +0.145 HD
ATOM     21  H   UNL     1       1.861   3.903   0.203  0.00  0.00    +0.145 HD
ENDBRANCH   2  19
BRANCH   1  22
ATOM     22  C   UNL     1       3.467   2.229  -0.310  0.00  0.00    +0.342 C 
ATOM     23  O   UNL     1       3.963   2.636  -1.345  0.00  0.00    -0.245 OA
BRANCH  22  24
ATOM     24  O   UNL     1       4.045   2.518   0.875  0.00  0.00    -0.461 OA
BRANCH  24  25
ATOM     25  C   UNL     1       5.237   3.306   0.841  0.00  0.00    +0.232 C 
BRANCH  25  26
ATOM     26  C   UNL     1       5.742   3.529   2.268  0.00  0.00    +0.041 C 
BRANCH  26  28
ATOM     27  C   UNL     1       7.523   4.595   3.658  0.00  0.00    +0.004 C 
ATOM     28  C   UNL     1       7.018   4.373   2.231  0.00  0.00    -0.000 C 
ENDBRANCH  26  28
ENDBRANCH  25  26
ENDBRANCH  24  25
ENDBRANCH  22  24
ENDBRANCH   1  22
BRANCH   5  29
ATOM     29  C   UNL     1       1.081  -2.115  -0.236  0.00  0.00    +0.340 C 
ATOM     30  O   UNL     1       0.059  -2.691   0.083  0.00  0.00    -0.245 OA
BRANCH  29  31
ATOM     31  O   UNL     1       2.196  -2.822  -0.515  0.00  0.00    -0.465 OA
ATOM     32  C   UNL     1       2.103  -4.245  -0.416  0.00  0.00    +0.280 C 
ENDBRANCH  29  31
ENDBRANCH   5  29
TORSDOF 8
