REMARK  Name = ZINC39217542
REMARK  6 active torsions:
REMARK  status: ('A' for Active; 'I' for Inactive)
REMARK    1  A    between atoms: C_1  and  C_2
REMARK    2  A    between atoms: C_4  and  C_16
REMARK    3  A    between atoms: C_6  and  C_14
REMARK    4  A    between atoms: C_7  and  N_13
REMARK    5  A    between atoms: C_18  and  C_21
REMARK    6  A    between atoms: C_21  and  N_22
REMARK                            x       y       z     vdW  Elec       q    Type
REMARK                         _______ _______ _______ _____ _____    ______ ____
ROOT
ATOM      1  C   UNL     1      -0.018   1.503   0.010  0.00  0.00    +0.067 C 
ATOM      2  C   UNL     1       0.002  -0.004   0.002  0.00  0.00    +0.066 C 
ATOM      3  C   UNL     1      -1.064  -0.768   0.003  0.00  0.00    +0.030 C 
ATOM      4  C   UNL     1      -2.536  -0.493   0.145  0.00  0.00    +0.104 C 
ATOM      5  C   UNL     1      -3.065  -1.577   1.066  0.00  0.00    +0.098 C 
ATOM      6  C   UNL     1      -2.303  -2.628   1.436  0.00  0.00    +0.195 C 
ATOM      7  O   UNL     1      -1.023  -2.853   1.091  0.00  0.00    -0.448 OA
ATOM      8  C   UNL     1      -0.529  -2.198  -0.081  0.00  0.00    +0.343 C 
ATOM      9  N   UNL     1       0.921  -1.985  -0.028  0.00  0.00    -0.138 NA
ATOM     10  N   UNL     1       1.127  -0.765  -0.013  0.00  0.00    -0.155 NA
ENDROOT
BRANCH   4  11
ATOM     11  C   UNL     1      -3.212  -0.572  -1.199  0.00  0.00    +0.002 A 
ATOM     12  C   UNL     1      -3.900   0.388  -1.866  0.00  0.00    +0.014 A 
ATOM     13  C   UNL     1      -4.441   0.088  -3.102  0.00  0.00    -0.057 A 
ATOM     14  C   UNL     1      -4.268  -1.157  -3.611  0.00  0.00    +0.047 A 
ATOM     15  S   UNL     1      -3.311  -1.950  -2.330  0.00  0.00    -0.100 S 
BRANCH  13  16
ATOM     16  C   UNL     1      -5.211   1.129  -3.873  0.00  0.00    -0.042 C 
BRANCH  16  17
ATOM     17  N   UNL     1      -4.291   1.880  -4.736  0.00  0.00    +0.382 N 
ATOM     18  C   UNL     1      -3.291   2.557  -3.886  0.00  0.00    -0.078 C 
ATOM     19  C   UNL     1      -2.054   2.800  -4.713  0.00  0.00    -0.019 C 
ATOM     20  C   UNL     1      -2.042   4.221  -5.307  0.00  0.00    -0.002 C 
ATOM     21  C   UNL     1      -3.437   4.641  -5.812  0.00  0.00    -0.002 C 
ATOM     22  C   UNL     1      -4.148   3.524  -6.531  0.00  0.00    -0.019 C 
ATOM     23  C   UNL     1      -5.034   2.760  -5.524  0.00  0.00    -0.078 C 
ATOM     24  H   UNL     1      -3.812   1.230  -5.341  0.00  0.00    -0.081 HD
ENDBRANCH  16  17
ENDBRANCH  13  16
ENDBRANCH   4  11
BRANCH   6  25
ATOM     25  N   UNL     1      -2.896  -3.562   2.247  0.00  0.00    -0.329 N 
ATOM     26  H   UNL     1      -3.818  -3.448   2.526  0.00  0.00    +0.145 HD
ATOM     27  H   UNL     1      -2.393  -4.337   2.542  0.00  0.00    +0.145 HD
ENDBRANCH   6  25
BRANCH   5  28
ATOM     28  C   UNL     1      -4.407  -1.482   1.556  0.00  0.00    +0.101 C 
ATOM     29  N   UNL     1      -5.472  -1.407   1.944  0.00  0.00    -0.191 NA
ENDBRANCH   5  28
TORSDOF 5
