REMARK  Name = ZINC35747088
REMARK  15 active torsions:
REMARK  status: ('A' for Active; 'I' for Inactive)
REMARK    1  A    between atoms: C_1  and  C_2
REMARK    2  A    between atoms: C_7  and  O_8
REMARK    3  A    between atoms: O_8  and  C_9
REMARK    4  A    between atoms: C_9  and  C_10
REMARK    5  A    between atoms: C_10  and  C_12
REMARK    6  A    between atoms: C_10  and  O_39
REMARK    7  A    between atoms: C_12  and  N_13
REMARK    8  A    between atoms: N_13  and  C_14
REMARK    9  A    between atoms: N_13  and  C_33
REMARK   10  A    between atoms: C_14  and  C_15
REMARK   11  A    between atoms: C_21  and  C_32
REMARK   12  A    between atoms: C_22  and  C_26
REMARK   13  A    between atoms: C_26  and  O_28
REMARK   14  A    between atoms: O_28  and  C_29
REMARK   15  A    between atoms: C_29  and  C_30
REMARK                            x       y       z     vdW  Elec       q    Type
REMARK                         _______ _______ _______ _____ _____    ______ ____
ROOT
ATOM      1  N   UNL     1       0.171   0.327   7.540  0.00  0.00    +0.388 N 
ATOM      2  H   UNL     1       0.538   1.137   7.065  0.00  0.00    -0.081 HD
ENDROOT
BRANCH   1   3
ATOM      3  C   UNL     1      -0.856   0.747   8.503  0.00  0.00    -0.068 C 
ATOM      4  C   UNL     1      -0.224   1.655   9.560  0.00  0.00    -0.015 C 
ATOM      5  C   UNL     1      -1.294   2.092  10.562  0.00  0.00    -0.002 C 
ATOM      6  C   UNL     1      -1.892   0.858  11.241  0.00  0.00    -0.000 C 
ATOM      7  C   UNL     1      -2.524  -0.049  10.184  0.00  0.00    -0.002 C 
ATOM      8  C   UNL     1      -1.454  -0.487   9.182  0.00  0.00    -0.015 C 
ENDBRANCH   1   3
BRANCH   1   9
ATOM      9  C   UNL     1      -0.424  -0.589   6.558  0.00  0.00    -0.043 C 
BRANCH   9  10
ATOM     10  C   UNL     1      -1.440   0.170   5.702  0.00  0.00    +0.135 C 
BRANCH  10  11
ATOM     11  O   UNL     1      -2.565   0.530   6.506  0.00  0.00    -0.390 OA
ATOM     12  H   UNL     1      -2.985  -0.218   6.953  0.00  0.00    +0.210 HD
ENDBRANCH  10  11
BRANCH  10  13
ATOM     13  C   UNL     1      -1.902  -0.722   4.548  0.00  0.00    +0.258 C 
BRANCH  13  14
ATOM     14  O   UNL     1      -2.761   0.025   3.684  0.00  0.00    -0.489 OA
BRANCH  14  21
ATOM     15  C   UNL     1      -4.461   1.483   1.962  0.00  0.00    +0.047 C 
ATOM     16  C   UNL     1      -4.102   0.040   1.719  0.00  0.00    -0.009 A 
ATOM     17  C   UNL     1      -4.606  -0.622   0.616  0.00  0.00    +0.007 A 
ATOM     18  C   UNL     1      -4.278  -1.946   0.393  0.00  0.00    +0.000 A 
ATOM     19  C   UNL     1      -3.445  -2.612   1.273  0.00  0.00    +0.004 A 
ATOM     20  C   UNL     1      -2.939  -1.956   2.377  0.00  0.00    +0.046 A 
ATOM     21  C   UNL     1      -3.262  -0.625   2.601  0.00  0.00    +0.124 A 
ENDBRANCH  14  21
ENDBRANCH  13  14
ENDBRANCH  10  13
ENDBRANCH   9  10
ENDBRANCH   1   9
BRANCH   1  22
ATOM     22  C   UNL     1       1.258  -0.357   8.252  0.00  0.00    -0.003 C 
BRANCH  22  23
ATOM     23  C   UNL     1       2.196   0.666   8.841  0.00  0.00    +0.094 A 
ATOM     24  N   UNL     1       3.189   0.251   9.665  0.00  0.00    -0.312 N 
ATOM     25  H   UNL     1       3.279  -0.694   9.862  0.00  0.00    +0.170 HD
ATOM     26  C   UNL     1       4.054   1.125  10.216  0.00  0.00    +0.260 A 
ATOM     27  O   UNL     1       4.943   0.743  10.955  0.00  0.00    -0.267 OA
ATOM     28  C   UNL     1       3.894   2.563   9.900  0.00  0.00    +0.076 A 
ATOM     29  C   UNL     1       4.651   3.652  10.338  0.00  0.00    -0.015 A 
ATOM     30  C   UNL     1       4.332   4.912   9.922  0.00  0.00    +0.102 A 
ATOM     31  S   UNL     1       2.919   4.633   8.867  0.00  0.00    -0.062 S 
ATOM     32  C   UNL     1       2.822   2.868   9.030  0.00  0.00    +0.116 A 
ATOM     33  N   UNL     1       2.030   1.925   8.538  0.00  0.00    -0.229 NA
ATOM     34  C   UNL     1       5.816   3.436  11.269  0.00  0.00    +0.046 C 
BRANCH  30  35
ATOM     35  C   UNL     1       4.986   6.178  10.257  0.00  0.00    +0.347 C 
ATOM     36  O   UNL     1       5.949   6.187  11.000  0.00  0.00    -0.244 OA
BRANCH  35  37
ATOM     37  O   UNL     1       4.521   7.335   9.742  0.00  0.00    -0.457 OA
BRANCH  37  38
ATOM     38  C   UNL     1       5.208   8.533  10.112  0.00  0.00    +0.259 C 
BRANCH  38  39
ATOM     39  C   UNL     1       4.552   9.714   9.445  0.00  0.00    +0.006 C 
ATOM     40  C   UNL     1       4.311  10.803  10.132  0.00  0.00    +0.007 C 
ENDBRANCH  38  39
ENDBRANCH  37  38
ENDBRANCH  35  37
ENDBRANCH  30  35
ENDBRANCH  22  23
ENDBRANCH   1  22
TORSDOF 13
