REMARK  Name = ZINC22681297
REMARK  11 active torsions:
REMARK  status: ('A' for Active; 'I' for Inactive)
REMARK    1  A    between atoms: C_1  and  C_2
REMARK    2  A    between atoms: N_5  and  C_8
REMARK    3  A    between atoms: C_8  and  C_10
REMARK    4  A    between atoms: C_8  and  C_29
REMARK    5  A    between atoms: C_10  and  N_11
REMARK    6  A    between atoms: C_12  and  C_14
REMARK    7  A    between atoms: C_17  and  O_27
REMARK    8  A    between atoms: C_18  and  S_20
REMARK    9  A    between atoms: S_20  and  N_23
REMARK   10  A    between atoms: N_23  and  C_24
REMARK   11  A    between atoms: O_27  and  C_28
REMARK                            x       y       z     vdW  Elec       q    Type
REMARK                         _______ _______ _______ _____ _____    ______ ____
ROOT
ATOM      1  N   UNL     1      -3.309   4.939   0.046  0.00  0.00    -0.313 N 
ATOM      2  C   UNL     1      -2.086   5.451  -0.197  0.00  0.00    +0.244 C 
ATOM      3  O   UNL     1      -1.971   6.609  -0.549  0.00  0.00    -0.270 OA
ATOM      4  H   UNL     1      -3.414   3.892   0.365  0.00  0.00    +0.149 HD
ENDROOT
BRANCH   2   5
ATOM      5  C   UNL     1      -0.887   4.606  -0.034  0.00  0.00    +0.039 A 
ATOM      6  C   UNL     1      -1.018   3.273   0.366  0.00  0.00    +0.017 A 
ATOM      7  C   UNL     1       0.103   2.489   0.522  0.00  0.00    +0.048 A 
ATOM      8  C   UNL     1       1.364   3.019   0.271  0.00  0.00    +0.146 A 
ATOM      9  C   UNL     1       1.498   4.342  -0.132  0.00  0.00    +0.147 A 
ATOM     10  C   UNL     1       0.382   5.134  -0.285  0.00  0.00    +0.045 A 
BRANCH   9  11
ATOM     11  S   UNL     1       3.099   5.008  -0.447  0.00  0.00    +0.062 S 
ATOM     12  O   UNL     1       2.906   6.358  -0.846  0.00  0.00    -0.153 OA
ATOM     13  O   UNL     1       3.913   4.650   0.661  0.00  0.00    -0.153 OA
BRANCH  11  14
ATOM     14  N   UNL     1       3.711   4.209  -1.762  0.00  0.00    -0.187 NA
ATOM     15  H   UNL     1       4.503   3.461  -1.615  0.00  0.00    +0.148 HD
BRANCH  14  16
ATOM     16  C   UNL     1       3.057   4.337  -3.067  0.00  0.00    +0.077 C 
ATOM     17  C   UNL     1       3.096   3.124  -3.999  0.00  0.00    +0.022 C 
ATOM     18  C   UNL     1       3.952   4.355  -4.307  0.00  0.00    +0.022 C 
ENDBRANCH  14  16
ENDBRANCH  11  14
ENDBRANCH   9  11
BRANCH   8  19
ATOM     19  O   UNL     1       2.466   2.242   0.420  0.00  0.00    -0.493 OA
ATOM     20  C   UNL     1       2.256   0.891   0.837  0.00  0.00    +0.277 C 
ENDBRANCH   8  19
ENDBRANCH   2   5
BRANCH   1  21
ATOM     21  C   UNL     1      -4.500   5.778  -0.116  0.00  0.00    +0.094 C 
BRANCH  21  22
ATOM     22  C   UNL     1      -5.737   4.999   0.333  0.00  0.00    -0.013 C 
BRANCH  22  27
ATOM     23  C   UNL     1      -6.830   0.491  -3.008  0.00  0.00    +0.007 C 
ATOM     24  C   UNL     1      -6.901   1.859  -2.327  0.00  0.00    -0.018 C 
ATOM     25  C   UNL     1      -5.606   2.632  -2.593  0.00  0.00    -0.015 C 
ATOM     26  C   UNL     1      -5.658   3.974  -1.859  0.00  0.00    -0.078 C 
ATOM     27  N   UNL     1      -5.822   3.739  -0.419  0.00  0.00    +0.386 N 
ATOM     28  C   UNL     1      -7.082   3.041  -0.134  0.00  0.00    -0.078 C 
ATOM     29  C   UNL     1      -7.072   1.671  -0.817  0.00  0.00    -0.015 C 
ATOM     30  H   UNL     1      -4.997   3.090  -0.089  0.00  0.00    -0.081 HD
ENDBRANCH  22  27
BRANCH  22  31
ATOM     31  C   UNL     1      -6.972   5.823   0.072  0.00  0.00    -0.022 A 
ATOM     32  C   UNL     1      -7.695   6.574   0.938  0.00  0.00    +0.009 A 
ATOM     33  C   UNL     1      -8.804   7.254   0.471  0.00  0.00    +0.008 A 
ATOM     34  C   UNL     1      -9.135   7.150  -0.839  0.00  0.00    +0.045 A 
ATOM     35  S   UNL     1      -7.856   6.070  -1.459  0.00  0.00    -0.103 S 
ENDBRANCH  22  31
ENDBRANCH  21  22
ENDBRANCH   1  21
TORSDOF 9
