REMARK  Name = ZINC09110596
REMARK  9 active torsions:
REMARK  status: ('A' for Active; 'I' for Inactive)
REMARK    1  A    between atoms: C_1  and  C_2
REMARK    2  A    between atoms: C_7  and  N_8
REMARK    3  A    between atoms: C_9  and  C_11
REMARK    4  A    between atoms: C_11  and  S_12
REMARK    5  A    between atoms: S_12  and  C_13
REMARK    6  A    between atoms: C_14  and  C_34
REMARK    7  A    between atoms: C_15  and  C_27
REMARK    8  A    between atoms: C_20  and  C_24
REMARK    9  A    between atoms: C_20  and  C_25
REMARK                            x       y       z     vdW  Elec       q    Type
REMARK                         _______ _______ _______ _____ _____    ______ ____
ROOT
ATOM      1  C   UNL     1       1.041  -1.046   0.056  0.00  0.00    +0.111 C 
ATOM      2  C   UNL     1      -0.228  -0.499  -0.031  0.00  0.00    +0.069 C 
ATOM      3  C   UNL     1      -0.341   1.013   0.051  0.00  0.00    +0.078 C 
ATOM      4  C   UNL     1       0.965   1.765   0.221  0.00  0.00    +0.112 C 
ATOM      5  C   UNL     1       0.962   3.106   0.298  0.00  0.00    +0.143 C 
ATOM      6  C   UNL     1       2.240   3.883   0.468  0.00  0.00    +0.081 C 
ATOM      7  C   UNL     1       3.392   3.109  -0.179  0.00  0.00    -0.023 C 
ATOM      8  C   UNL     1       3.476   1.721   0.462  0.00  0.00    +0.058 C 
ATOM      9  C   UNL     1       2.152   1.014   0.290  0.00  0.00    +0.032 C 
ATOM     10  N   UNL     1       2.132  -0.293   0.207  0.00  0.00    -0.248 NA
ATOM     11  C   UNL     1       3.135   2.967  -1.680  0.00  0.00    +0.011 C 
ATOM     12  C   UNL     1       4.705   3.861   0.047  0.00  0.00    +0.011 C 
ATOM     13  O   UNL     1      -0.210   3.769   0.223  0.00  0.00    -0.297 OA
ENDROOT
BRANCH   3  14
ATOM     14  C   UNL     1      -1.236   1.355   1.215  0.00  0.00    -0.038 A 
ATOM     15  C   UNL     1      -0.941   0.876   2.478  0.00  0.00    +0.006 A 
ATOM     16  C   UNL     1      -1.758   1.195   3.546  0.00  0.00    +0.020 A 
ATOM     17  C   UNL     1      -2.878   1.983   3.349  0.00  0.00    +0.041 A 
ATOM     18  C   UNL     1      -3.176   2.457   2.084  0.00  0.00    +0.020 A 
ATOM     19  C   UNL     1      -2.355   2.143   1.017  0.00  0.00    +0.006 A 
ATOM     20 CL   UNL     1      -3.909   2.377   4.689  0.00  0.00    -0.084 Cl
ENDBRANCH   3  14
BRANCH   2  21
ATOM     21  C   UNL     1      -1.386  -1.326  -0.193  0.00  0.00    +0.098 C 
ATOM     22  N   UNL     1      -2.305  -1.982  -0.320  0.00  0.00    -0.191 NA
ENDBRANCH   2  21
BRANCH   1  23
ATOM     23  S   UNL     1       1.221  -2.796  -0.036  0.00  0.00    -0.096 S 
BRANCH  23  24
ATOM     24  C   UNL     1       3.018  -2.936   0.127  0.00  0.00    +0.172 C 
BRANCH  24  26
ATOM     25  N   UNL     1       4.713  -4.737   0.178  0.00  0.00    -0.285 N 
ATOM     26  C   UNL     1       3.415  -4.389   0.075  0.00  0.00    +0.227 C 
ATOM     27  O   UNL     1       2.567  -5.245  -0.059  0.00  0.00    -0.275 OA
ATOM     28  H   UNL     1       5.386  -4.058   0.346  0.00  0.00    +0.155 HD
BRANCH  25  35
ATOM     29  C   UNL     1       7.218  -5.308  -1.045  0.00  0.00    +0.045 C 
ATOM     30  C   UNL     1       6.306  -6.400  -0.550  0.00  0.00    -0.029 A 
ATOM     31  C   UNL     1       6.676  -7.724  -0.684  0.00  0.00    +0.005 A 
ATOM     32  C   UNL     1       5.840  -8.727  -0.230  0.00  0.00    +0.000 A 
ATOM     33  C   UNL     1       4.630  -8.408   0.360  0.00  0.00    +0.002 A 
ATOM     34  C   UNL     1       4.256  -7.086   0.501  0.00  0.00    +0.023 A 
ATOM     35  C   UNL     1       5.092  -6.077   0.041  0.00  0.00    +0.036 A 
ENDBRANCH  25  35
ENDBRANCH  24  26
ENDBRANCH  23  24
ENDBRANCH   1  23
TORSDOF 6
