REMARK  Name = ZINC39856152
REMARK  9 active torsions:
REMARK  status: ('A' for Active; 'I' for Inactive)
REMARK    1  A    between atoms: C_1  and  C_2
REMARK    2  A    between atoms: C_2  and  N_3
REMARK    3  A    between atoms: C_9  and  C_11
REMARK    4  A    between atoms: C_12  and  C_27
REMARK    5  A    between atoms: C_17  and  C_25
REMARK    6  A    between atoms: C_17  and  C_26
REMARK    7  A    between atoms: N_20  and  N_21
REMARK    8  A    between atoms: N_21  and  C_22
REMARK    9  A    between atoms: C_22  and  N_24
REMARK                            x       y       z     vdW  Elec       q    Type
REMARK                         _______ _______ _______ _____ _____    ______ ____
ROOT
ATOM      1  C   UNL     1       1.025  -4.226   4.422  0.00  0.00    +0.193 A 
ATOM      2  C   UNL     1       0.705  -5.184   5.344  0.00  0.00    +0.009 A 
ATOM      3  C   UNL     1       1.083  -6.409   4.782  0.00  0.00    +0.042 A 
ATOM      4  C   UNL     1       1.619  -6.148   3.543  0.00  0.00    +0.116 A 
ATOM      5  O   UNL     1       1.568  -4.833   3.342  0.00  0.00    -0.454 OA
ATOM      6  C   UNL     1       2.146  -7.229   2.634  0.00  0.00    +0.081 C 
ATOM      7  C   UNL     1       2.464  -8.479   3.459  0.00  0.00    -0.023 C 
ATOM      8  C   UNL     1       1.253  -8.891   4.303  0.00  0.00    +0.064 C 
ATOM      9  C   UNL     1       0.978  -7.787   5.313  0.00  0.00    +0.070 C 
ATOM     10  N   UNL     1       0.674  -8.035   6.550  0.00  0.00    -0.185 NA
ATOM     11  C   UNL     1       2.835  -9.624   2.515  0.00  0.00    +0.011 C 
ATOM     12  C   UNL     1       3.647  -8.185   4.384  0.00  0.00    +0.011 C 
ATOM     13  C   UNL     1       0.072  -4.964   6.694  0.00  0.00    +0.048 C 
ENDROOT
BRANCH   1  20
ATOM     14  N   UNL     1       0.579  -0.489   1.200  0.00  0.00    +0.382 N 
ATOM     15  C   UNL     1      -0.100  -0.095   2.441  0.00  0.00    -0.060 C 
ATOM     16  C   UNL     1       0.752  -0.514   3.643  0.00  0.00    +0.089 C 
ATOM     17  N   UNL     1       1.033  -1.954   3.536  0.00  0.00    -0.299 N 
ATOM     18  C   UNL     1       1.564  -2.464   2.263  0.00  0.00    +0.089 C 
ATOM     19  C   UNL     1       0.674  -1.952   1.125  0.00  0.00    -0.060 C 
ATOM     20  C   UNL     1       0.810  -2.783   4.575  0.00  0.00    +0.282 C 
ATOM     21  O   UNL     1       0.430  -2.334   5.641  0.00  0.00    -0.267 OA
ATOM     22  H   UNL     1       1.506  -0.092   1.186  0.00  0.00    -0.082 HD
BRANCH  14  24
ATOM     23  C   UNL     1      -0.177   1.540   0.056  0.00  0.00    -0.017 C 
ATOM     24  C   UNL     1      -0.183   0.010   0.047  0.00  0.00    -0.082 C 
ENDBRANCH  14  24
ENDBRANCH   1  20
BRANCH  10  25
ATOM     25  N   UNL     1       0.590  -9.360   6.998  0.00  0.00    -0.218 N 
ATOM     26  H   UNL     1       0.758 -10.091   6.384  0.00  0.00    +0.176 HD
BRANCH  25  27
ATOM     27  C   UNL     1       0.274  -9.618   8.282  0.00  0.00    +0.147 C 
ATOM     28  S   UNL     1       0.170 -11.236   8.830  0.00  0.00    -0.017 S 
BRANCH  27  29
ATOM     29  N   UNL     1       0.040  -8.601   9.136  0.00  0.00    -0.339 N 
ATOM     30  H   UNL     1       0.098  -7.684   8.826  0.00  0.00    +0.144 HD
ATOM     31  H   UNL     1      -0.188  -8.787  10.060  0.00  0.00    +0.144 HD
ENDBRANCH  27  29
ENDBRANCH  25  27
ENDBRANCH  10  25
TORSDOF 5
