REMARK  Name = ZINC05861004
REMARK  5 active torsions:
REMARK  status: ('A' for Active; 'I' for Inactive)
REMARK    1  A    between atoms: C_1  and  C_2
REMARK    2  A    between atoms: C_2  and  C_3
REMARK    3  A    between atoms: C_2  and  S_4
REMARK    4  A    between atoms: S_4  and  C_5
REMARK    5  A    between atoms: C_12  and  C_22
REMARK                            x       y       z     vdW  Elec       q    Type
REMARK                         _______ _______ _______ _____ _____    ______ ____
ROOT
ATOM      1  C   UNL     1      -1.512  -2.377  -0.145  0.00  0.00    +0.172 A 
ATOM      2  N   UNL     1      -2.619  -3.169  -0.176  0.00  0.00    -0.322 N 
ATOM      3  C   UNL     1      -2.489  -4.528  -0.297  0.00  0.00    +0.111 A 
ATOM      4  C   UNL     1      -1.246  -5.072  -0.386  0.00  0.00    +0.069 A 
ATOM      5  C   UNL     1      -0.123  -4.216  -0.356  0.00  0.00    +0.280 A 
ATOM      6  N   UNL     1      -0.303  -2.891  -0.238  0.00  0.00    -0.185 NA
ATOM      7  O   UNL     1       1.005  -4.678  -0.440  0.00  0.00    -0.265 OA
ATOM      8  C   UNL     1      -1.060  -6.556  -0.509  0.00  0.00    +0.092 C 
ATOM      9  C   UNL     1      -2.336  -7.234  -0.939  0.00  0.00    +0.024 C 
ATOM     10  C   UNL     1      -2.248  -8.536  -1.461  0.00  0.00    +0.162 C 
ATOM     11  C   UNL     1      -3.474  -9.276  -1.922  0.00  0.00    +0.080 C 
ATOM     12  C   UNL     1      -4.522  -8.262  -2.392  0.00  0.00    +0.014 C 
ATOM     13  C   UNL     1      -4.806  -7.292  -1.243  0.00  0.00    +0.051 C 
ATOM     14  C   UNL     1      -3.527  -6.608  -0.827  0.00  0.00    +0.017 C 
ATOM     15  N   UNL     1      -3.602  -5.335  -0.332  0.00  0.00    -0.304 N 
ATOM     16  O   UNL     1      -1.161  -9.074  -1.542  0.00  0.00    -0.292 OA
ATOM     17  H   UNL     1      -4.449  -4.997  -0.002  0.00  0.00    +0.153 HD
ATOM     18  H   UNL     1      -3.502  -2.771  -0.112  0.00  0.00    +0.169 HD
ENDROOT
BRANCH   8  19
ATOM     19  C   UNL     1      -0.632  -7.112   0.824  0.00  0.00    -0.032 A 
ATOM     20  C   UNL     1      -1.452  -6.968   1.928  0.00  0.00    +0.005 A 
ATOM     21  C   UNL     1      -1.061  -7.477   3.152  0.00  0.00    +0.003 A 
ATOM     22  C   UNL     1       0.151  -8.131   3.274  0.00  0.00    +0.038 A 
ATOM     23  C   UNL     1       0.973  -8.276   2.169  0.00  0.00    +0.124 A 
ATOM     24  C   UNL     1       0.577  -7.770   0.942  0.00  0.00    +0.043 A 
ATOM     25  F   UNL     1       2.158  -8.914   2.287  0.00  0.00    -0.205 F 
ENDBRANCH   8  19
BRANCH   1  26
ATOM     26  S   UNL     1      -1.700  -0.632   0.015  0.00  0.00    -0.085 S 
BRANCH  26  28
ATOM     27  C   UNL     1      -0.019   1.526   0.010  0.00  0.00    +0.019 C 
ATOM     28  C   UNL     1       0.002  -0.004   0.002  0.00  0.00    +0.048 C 
ATOM     29  C   UNL     1       0.742  -0.511   1.242  0.00  0.00    +0.019 C 
ENDBRANCH  26  28
ENDBRANCH   1  26
TORSDOF 3
