REMARK  Name = ZINC67298075
REMARK  8 active torsions:
REMARK  status: ('A' for Active; 'I' for Inactive)
REMARK    1  A    between atoms: C_1  and  C_2
REMARK    2  A    between atoms: C_2  and  C_4
REMARK    3  A    between atoms: C_2  and  N_14
REMARK    4  A    between atoms: N_17  and  C_18
REMARK    5  A    between atoms: C_23  and  O_24
REMARK    6  A    between atoms: O_24  and  C_25
REMARK    7  A    between atoms: C_25  and  C_26
REMARK    8  A    between atoms: C_25  and  C_27
REMARK                            x       y       z     vdW  Elec       q    Type
REMARK                         _______ _______ _______ _____ _____    ______ ____
ROOT
ATOM      1  N   UNL     1       0.859  -0.235  -1.308  0.00  0.00    -0.293 N 
ATOM      2  C   UNL     1       0.065  -0.531  -2.356  0.00  0.00    +0.304 C 
ATOM      3  O   UNL     1      -1.133  -0.337  -2.285  0.00  0.00    -0.252 OA
ATOM      4  N   UNL     1       0.600  -1.043  -3.483  0.00  0.00    -0.266 N 
ATOM      5  H   UNL     1       1.815  -0.390  -1.365  0.00  0.00    +0.151 HD
ATOM      6  H   UNL     1       1.562  -1.138  -3.564  0.00  0.00    +0.156 HD
ENDROOT
BRANCH   4   7
ATOM      7  C   UNL     1      -0.235  -1.438  -4.538  0.00  0.00    +0.080 A 
ATOM      8  C   UNL     1      -1.444  -0.792  -4.746  0.00  0.00    +0.065 A 
ATOM      9  C   UNL     1      -2.266  -1.184  -5.788  0.00  0.00    +0.125 A 
ATOM     10  C   UNL     1      -1.883  -2.219  -6.624  0.00  0.00    +0.042 A 
ATOM     11  C   UNL     1      -0.678  -2.866  -6.420  0.00  0.00    +0.050 A 
ATOM     12  C   UNL     1       0.152  -2.475  -5.383  0.00  0.00    +0.142 A 
ATOM     13  F   UNL     1      -3.445  -0.555  -5.991  0.00  0.00    -0.205 F 
BRANCH  12  14
ATOM     14  O   UNL     1       1.340  -3.108  -5.185  0.00  0.00    -0.488 OA
BRANCH  14  15
ATOM     15  C   UNL     1       1.722  -4.088  -6.153  0.00  0.00    +0.167 C 
ATOM     16  C   UNL     1       3.244  -4.244  -6.147  0.00  0.00    +0.051 C 
ATOM     17  C   UNL     1       1.070  -5.428  -5.806  0.00  0.00    +0.051 C 
ENDBRANCH  14  15
ENDBRANCH  12  14
ENDBRANCH   4   7
BRANCH   1  19
ATOM     18  C   UNL     1       0.147   1.838  -0.225  0.00  0.00    +0.033 C 
ATOM     19  C   UNL     1       0.278   0.321  -0.084  0.00  0.00    +0.102 C 
BRANCH  19  20
ATOM     20  C   UNL     1       1.173   0.001   1.087  0.00  0.00    -0.027 A 
ATOM     21  C   UNL     1       2.547   0.077   0.950  0.00  0.00    +0.007 A 
ATOM     22  C   UNL     1       3.371  -0.214   2.018  0.00  0.00    +0.024 A 
ATOM     23  C   UNL     1       2.823  -0.588   3.243  0.00  0.00    +0.037 A 
ATOM     24  C   UNL     1       1.441  -0.661   3.367  0.00  0.00    -0.017 A 
ATOM     25  C   UNL     1       0.621  -0.365   2.302  0.00  0.00    +0.011 A 
ATOM     26  C   UNL     1       1.164  -1.085   4.791  0.00  0.00    +0.133 C 
ATOM     27  C   UNL     1       2.540  -1.230   5.406  0.00  0.00    +0.222 C 
ATOM     28  O   UNL     1       2.788  -1.558   6.547  0.00  0.00    -0.275 OA
ATOM     29  N   UNL     1       3.434  -0.926   4.451  0.00  0.00    -0.285 N 
ATOM     30  H   UNL     1       4.395  -0.940   4.585  0.00  0.00    +0.155 HD
ENDBRANCH  19  20
ENDBRANCH   1  19
TORSDOF 5
