REMARK  Name = ZINC11463754
REMARK  10 active torsions:
REMARK  status: ('A' for Active; 'I' for Inactive)
REMARK    1  A    between atoms: C_1  and  C_2
REMARK    2  A    between atoms: C_2  and  C_3
REMARK    3  A    between atoms: C_3  and  N_49
REMARK    4  A    between atoms: C_4  and  C_5
REMARK    5  A    between atoms: C_4  and  N_49
REMARK    6  A    between atoms: C_5  and  S_6
REMARK    7  A    between atoms: S_6  and  C_9
REMARK    8  A    between atoms: C_16  and  C_17
REMARK    9  A    between atoms: C_16  and  N_49
REMARK   10  A    between atoms: N_19  and  C_20
REMARK                            x       y       z     vdW  Elec       q    Type
REMARK                         _______ _______ _______ _____ _____    ______ ____
ROOT
ATOM      1  N   UNL     1       3.765   5.996  -0.052  0.00  0.00    +0.386 N 
ATOM      2  H   UNL     1       4.270   5.537  -0.819  0.00  0.00    -0.081 HD
ENDROOT
BRANCH   1   3
ATOM      3  C   UNL     1       4.429   5.665   1.226  0.00  0.00    -0.078 C 
BRANCH   3   5
ATOM      4  C   UNL     1       5.423   3.800   2.559  0.00  0.00    +0.002 C 
ATOM      5  C   UNL     1       4.817   4.185   1.208  0.00  0.00    -0.022 C 
ENDBRANCH   3   5
ENDBRANCH   1   3
BRANCH   1   6
ATOM      6  C   UNL     1       3.787   7.458  -0.269  0.00  0.00    -0.055 C 
BRANCH   6   7
ATOM      7  C   UNL     1       5.233   7.900  -0.503  0.00  0.00    +0.153 C 
BRANCH   7   8
ATOM      8  S   UNL     1       5.278   9.690  -0.797  0.00  0.00    -0.005 S 
ATOM      9  O   UNL     1       4.652   9.998  -2.035  0.00  0.00    -0.169 OA
ATOM     10  O   UNL     1       4.924  10.390   0.388  0.00  0.00    -0.169 OA
BRANCH   8  11
ATOM     11  C   UNL     1       6.981  10.065  -1.049  0.00  0.00    +0.088 A 
ATOM     12  C   UNL     1       7.779  10.407   0.026  0.00  0.00    +0.028 A 
ATOM     13  C   UNL     1       9.117  10.697  -0.170  0.00  0.00    +0.017 A 
ATOM     14  C   UNL     1       9.653  10.654  -1.445  0.00  0.00    +0.018 A 
ATOM     15  C   UNL     1       8.853  10.316  -2.521  0.00  0.00    +0.017 A 
ATOM     16  C   UNL     1       7.517  10.022  -2.323  0.00  0.00    +0.028 A 
ATOM     17 BR   UNL     1      11.481  11.056  -1.715  0.00  0.00    -0.050 Br
ENDBRANCH   8  11
ENDBRANCH   7   8
ENDBRANCH   6   7
ENDBRANCH   1   6
BRANCH   1  18
ATOM     18  C   UNL     1       2.369   5.509  -0.037  0.00  0.00    +0.019 C 
BRANCH  18  19
ATOM     19  C   UNL     1       1.873   5.423  -1.458  0.00  0.00    +0.201 C 
ATOM     20  O   UNL     1       2.631   5.643  -2.379  0.00  0.00    -0.278 OA
ATOM     21  N   UNL     1       0.588   5.101  -1.704  0.00  0.00    -0.285 N 
ATOM     22  H   UNL     1      -0.036   4.998  -0.969  0.00  0.00    +0.155 HD
BRANCH  21  23
ATOM     23  C   UNL     1       0.153   4.914  -3.023  0.00  0.00    +0.072 A 
ATOM     24  C   UNL     1       0.740   5.631  -4.057  0.00  0.00    +0.029 A 
ATOM     25  C   UNL     1       0.310   5.447  -5.357  0.00  0.00    +0.043 A 
ATOM     26  C   UNL     1      -0.706   4.547  -5.632  0.00  0.00    +0.161 A 
ATOM     27  C   UNL     1      -1.295   3.829  -4.603  0.00  0.00    +0.195 A 
ATOM     28  C   UNL     1      -0.867   4.011  -3.298  0.00  0.00    +0.182 A 
ATOM     29  F   UNL     1      -1.444   3.315  -2.294  0.00  0.00    -0.200 F 
ATOM     30  F   UNL     1      -2.286   2.952  -4.872  0.00  0.00    -0.199 F 
ATOM     31  F   UNL     1      -1.124   4.370  -6.904  0.00  0.00    -0.202 F 
ENDBRANCH  21  23
ENDBRANCH  18  19
ENDBRANCH   1  18
TORSDOF 9
