REMARK  Name = ZINC33810566
REMARK  7 active torsions:
REMARK  status: ('A' for Active; 'I' for Inactive)
REMARK    1  A    between atoms: C_1  and  C_2
REMARK    2  A    between atoms: C_5  and  C_8
REMARK    3  A    between atoms: C_8  and  S_9
REMARK    4  A    between atoms: S_9  and  C_10
REMARK    5  A    between atoms: C_17  and  C_29
REMARK    6  A    between atoms: C_23  and  C_27
REMARK    7  A    between atoms: C_23  and  C_28
REMARK                            x       y       z     vdW  Elec       q    Type
REMARK                         _______ _______ _______ _____ _____    ______ ____
ROOT
ATOM      1  C   UNL     1       4.644   2.944   3.466  0.00  0.00    +0.171 A 
ATOM      2  N   UNL     1       4.997   2.393   2.271  0.00  0.00    -0.208 NA
ATOM      3  C   UNL     1       4.298   2.709   1.136  0.00  0.00    +0.135 A 
ATOM      4  C   UNL     1       3.249   3.571   1.218  0.00  0.00    +0.069 A 
ATOM      5  C   UNL     1       2.917   4.122   2.475  0.00  0.00    +0.258 A 
ATOM      6  O   UNL     1       1.982   4.903   2.576  0.00  0.00    -0.267 OA
ATOM      7  N   UNL     1       3.633   3.784   3.558  0.00  0.00    -0.302 N 
ATOM      8  C   UNL     1       2.453   3.935  -0.000  0.00  0.00    +0.095 C 
ATOM      9  C   UNL     1       3.212   3.614  -1.263  0.00  0.00    +0.024 C 
ATOM     10  C   UNL     1       4.254   2.756  -1.246  0.00  0.00    +0.017 C 
ATOM     11  N   UNL     1       4.653   2.167  -0.077  0.00  0.00    -0.302 N 
ATOM     12  C   UNL     1       5.005   2.422  -2.512  0.00  0.00    +0.058 C 
ATOM     13  C   UNL     1       4.978   3.625  -3.458  0.00  0.00    -0.023 C 
ATOM     14  C   UNL     1       3.516   3.976  -3.754  0.00  0.00    +0.086 C 
ATOM     15  C   UNL     1       2.801   4.233  -2.456  0.00  0.00    +0.162 C 
ATOM     16  O   UNL     1       1.851   4.991  -2.438  0.00  0.00    -0.292 OA
ATOM     17  C   UNL     1       5.668   4.818  -2.794  0.00  0.00    +0.011 C 
ATOM     18  C   UNL     1       5.700   3.272  -4.760  0.00  0.00    +0.011 C 
ATOM     19  H   UNL     1       5.264   1.253  -0.114  0.00  0.00    +0.153 HD
ATOM     20  H   UNL     1       3.366   4.218   4.532  0.00  0.00    +0.171 HD
ENDROOT
BRANCH   8  21
ATOM     21  C   UNL     1       1.158   3.165   0.007  0.00  0.00    -0.000 A 
ATOM     22  C   UNL     1       1.175   1.783   0.000  0.00  0.00    +0.007 A 
ATOM     23  C   UNL     1      -0.013   1.076   0.008  0.00  0.00    +0.000 A 
ATOM     24  C   UNL     1      -1.220   1.750   0.017  0.00  0.00    +0.003 A 
ATOM     25  C   UNL     1      -1.240   3.132   0.030  0.00  0.00    +0.038 A 
ATOM     26  C   UNL     1      -0.050   3.841   0.022  0.00  0.00    +0.127 A 
ATOM     27  F   UNL     1      -0.068   5.192   0.030  0.00  0.00    -0.205 F 
ENDBRANCH   8  21
BRANCH   1  28
ATOM     28  S   UNL     1       5.555   2.525   4.915  0.00  0.00    -0.083 S 
BRANCH  28  29
ATOM     29  C   UNL     1       4.667   3.516   6.142  0.00  0.00    +0.112 C 
BRANCH  29  34
ATOM     30  C   UNL     1       7.055   2.731  11.346  0.00  0.00    +0.044 C 
ATOM     31  C   UNL     1       6.432   2.936   9.989  0.00  0.00    -0.050 A 
ATOM     32  C   UNL     1       6.890   3.946   9.163  0.00  0.00    +0.003 A 
ATOM     33  C   UNL     1       6.319   4.134   7.919  0.00  0.00    +0.005 A 
ATOM     34  C   UNL     1       5.290   3.312   7.499  0.00  0.00    -0.037 A 
ATOM     35  C   UNL     1       4.829   2.305   8.326  0.00  0.00    +0.005 A 
ATOM     36  C   UNL     1       5.403   2.114   9.569  0.00  0.00    +0.003 A 
ENDBRANCH  29  34
ENDBRANCH  28  29
ENDBRANCH   1  28
TORSDOF 4
