REMARK  Name = ZINC19861215
REMARK  9 active torsions:
REMARK  status: ('A' for Active; 'I' for Inactive)
REMARK    1  A    between atoms: C_2  and  C_3
REMARK    2  A    between atoms: C_3  and  C_4
REMARK    3  A    between atoms: C_8  and  C_11
REMARK    4  A    between atoms: C_9  and  O_10
REMARK    5  A    between atoms: N_12  and  N_13
REMARK    6  A    between atoms: C_14  and  C_16
REMARK    7  A    between atoms: C_16  and  N_17
REMARK    8  A    between atoms: N_20  and  S_23
REMARK    9  A    between atoms: S_23  and  C_26
REMARK                            x       y       z     vdW  Elec       q    Type
REMARK                         _______ _______ _______ _____ _____    ______ ____
ROOT
ATOM      1  C   UNL     1       0.293   5.028  -3.393  0.00  0.00    +0.020 C 
ENDROOT
BRANCH   1   2
ATOM      2  N   UNL     1       1.194   4.577  -2.324  0.00  0.00    +0.387 N 
ATOM      3  C   UNL     1       0.470   3.774  -1.329  0.00  0.00    -0.061 C 
ATOM      4  C   UNL     1       1.471   3.174  -0.336  0.00  0.00    +0.091 C 
ATOM      5  N   UNL     1       2.292   4.261   0.220  0.00  0.00    -0.180 NA
ATOM      6  C   UNL     1       2.935   5.196  -0.717  0.00  0.00    +0.091 C 
ATOM      7  C   UNL     1       1.877   5.716  -1.695  0.00  0.00    -0.061 C 
ATOM      8  H   UNL     1       1.963   3.934  -2.777  0.00  0.00    -0.081 HD
BRANCH   5   9
ATOM      9  S   UNL     1       2.482   4.431   1.856  0.00  0.00    +0.061 S 
ATOM     10  O   UNL     1       2.809   5.795   2.088  0.00  0.00    -0.153 OA
ATOM     11  O   UNL     1       1.360   3.803   2.463  0.00  0.00    -0.153 OA
BRANCH   9  12
ATOM     12  C   UNL     1       3.897   3.488   2.318  0.00  0.00    +0.106 A 
ATOM     13  C   UNL     1       3.755   2.163   2.684  0.00  0.00    +0.029 A 
ATOM     14  C   UNL     1       4.865   1.422   3.042  0.00  0.00    +0.017 A 
ATOM     15  C   UNL     1       6.117   2.009   3.042  0.00  0.00    +0.018 A 
ATOM     16  C   UNL     1       6.259   3.337   2.681  0.00  0.00    +0.017 A 
ATOM     17  C   UNL     1       5.148   4.076   2.318  0.00  0.00    +0.029 A 
ATOM     18 BR   UNL     1       7.636   0.997   3.538  0.00  0.00    -0.050 Br
ENDBRANCH   9  12
ENDBRANCH   5   9
ENDBRANCH   1   2
BRANCH   1  20
ATOM     19  N   UNL     1      -1.753   6.403  -3.595  0.00  0.00    -0.209 N 
ATOM     20  C   UNL     1      -0.765   5.929  -2.811  0.00  0.00    +0.216 C 
ATOM     21  O   UNL     1      -0.728   6.229  -1.635  0.00  0.00    -0.276 OA
ATOM     22  H   UNL     1      -1.788   6.132  -4.661  0.00  0.00    +0.177 HD
BRANCH  19  24
ATOM     23  C   UNL     1      -3.751   7.604  -3.778  0.00  0.00    +0.142 C 
ATOM     24  N   UNL     1      -2.737   7.241  -3.054  0.00  0.00    -0.188 NA
BRANCH  23  29
ATOM     25  C   UNL     1      -4.876   7.057  -7.324  0.00  0.00    -0.002 A 
ATOM     26  C   UNL     1      -4.433   5.767  -7.546  0.00  0.00    +0.007 A 
ATOM     27  C   UNL     1      -3.770   5.073  -6.549  0.00  0.00    +0.001 A 
ATOM     28  C   UNL     1      -3.545   5.664  -5.322  0.00  0.00    +0.013 A 
ATOM     29  C   UNL     1      -3.988   6.967  -5.086  0.00  0.00    +0.036 A 
ATOM     30  C   UNL     1      -4.664   7.663  -6.097  0.00  0.00    +0.129 A 
BRANCH  30  31
ATOM     31  O   UNL     1      -5.105   8.929  -5.876  0.00  0.00    -0.506 OA
ATOM     32  H   UNL     1      -4.936   9.408  -4.901  0.00  0.00    +0.292 HD
ENDBRANCH  30  31
BRANCH  25  33
ATOM     33  C   UNL     1      -5.597   7.804  -8.417  0.00  0.00    +0.065 C 
BRANCH  33  35
ATOM     34  C   UNL     1      -4.507   8.534 -10.477  0.00  0.00    +0.004 C 
ATOM     35  C   UNL     1      -4.613   8.656  -9.177  0.00  0.00    -0.030 C 
ENDBRANCH  33  35
ENDBRANCH  25  33
ENDBRANCH  23  29
ENDBRANCH  19  24
ENDBRANCH   1  20
TORSDOF 9
