REMARK  Name = ZINC33724028
REMARK  8 active torsions:
REMARK  status: ('A' for Active; 'I' for Inactive)
REMARK    1  A    between atoms: C_1  and  C_2
REMARK    2  A    between atoms: C_3  and  C_31
REMARK    3  A    between atoms: C_4  and  C_22
REMARK    4  A    between atoms: C_7  and  N_21
REMARK    5  A    between atoms: C_8  and  C_12
REMARK    6  A    between atoms: C_12  and  C_14
REMARK    7  A    between atoms: C_27  and  N_28
REMARK    8  A    between atoms: C_31  and  C_33
REMARK                            x       y       z     vdW  Elec       q    Type
REMARK                         _______ _______ _______ _____ _____    ______ ____
ROOT
ATOM      1  C   UNL     1     -10.472   4.353   2.546  0.00  0.00    +0.061 C 
ATOM      2  C   UNL     1      -9.242   3.734   1.933  0.00  0.00    +0.013 C 
ATOM      3  C   UNL     1      -9.168   2.395   1.831  0.00  0.00    +0.023 C 
ATOM      4  C   UNL     1      -8.015   1.648   1.226  0.00  0.00    +0.090 C 
ATOM      5  C   UNL     1      -6.831   2.590   1.050  0.00  0.00    +0.014 A 
ATOM      6  C   UNL     1      -5.545   2.184   0.749  0.00  0.00    +0.049 A 
ATOM      7  C   UNL     1      -4.543   3.149   0.604  0.00  0.00    +0.082 A 
ATOM      8  S   UNL     1      -5.437   4.666   0.910  0.00  0.00    -0.068 S 
ATOM      9  C   UNL     1      -7.033   3.959   1.193  0.00  0.00    +0.076 A 
ATOM     10  N   UNL     1      -8.231   4.552   1.496  0.00  0.00    -0.312 N 
ATOM     11  H   UNL     1      -8.402   5.634   1.402  0.00  0.00    +0.152 HD
ENDROOT
BRANCH   4  12
ATOM     12  C   UNL     1      -8.422   1.097  -0.117  0.00  0.00    -0.005 A 
ATOM     13  C   UNL     1      -8.722   1.960  -1.155  0.00  0.00    +0.007 A 
ATOM     14  C   UNL     1      -9.096   1.455  -2.386  0.00  0.00    +0.000 A 
ATOM     15  C   UNL     1      -9.168   0.088  -2.580  0.00  0.00    +0.002 A 
ATOM     16  C   UNL     1      -8.867  -0.774  -1.542  0.00  0.00    +0.033 A 
ATOM     17  C   UNL     1      -8.490  -0.269  -0.312  0.00  0.00    +0.130 A 
BRANCH  17  18
ATOM     18  N   UNL     1      -8.163  -1.192   0.798  0.00  0.00    +0.057 N 
ATOM     19  O   UNL     1      -7.231  -0.944   1.542  0.00  0.00    -0.126 OA
ATOM     20  O   UNL     1      -8.826  -2.200   0.968  0.00  0.00    -0.126 OA
ENDBRANCH  17  18
ENDBRANCH   4  12
BRANCH   6  21
ATOM     21  N   UNL     1      -5.252   0.834   0.591  0.00  0.00    -0.357 N 
ATOM     22  H   UNL     1      -4.225   0.519   0.350  0.00  0.00    +0.142 HD
ATOM     23  H   UNL     1      -6.045   0.082   0.706  0.00  0.00    +0.142 HD
ENDBRANCH   6  21
BRANCH   3  24
ATOM     24  C   UNL     1     -10.244   1.643   2.323  0.00  0.00    +0.159 C 
ATOM     25  O   UNL     1     -11.200   2.205   2.821  0.00  0.00    -0.293 OA
ATOM     26  C   UNL     1     -10.216   0.139   2.236  0.00  0.00    +0.091 C 
ENDBRANCH   3  24
BRANCH   7  27
ATOM     27  C   UNL     1      -3.180   2.971   0.301  0.00  0.00    +0.202 C 
ATOM     28  O   UNL     1      -2.761   1.865   0.003  0.00  0.00    -0.286 OA
BRANCH  27  29
ATOM     29  C   UNL     1      -2.255   4.125   0.345  0.00  0.00    +0.023 A 
ATOM     30  C   UNL     1      -1.056   4.089  -0.367  0.00  0.00    +0.013 A 
ATOM     31  C   UNL     1      -0.201   5.171  -0.328  0.00  0.00    +0.016 A 
ATOM     32  C   UNL     1      -0.528   6.288   0.421  0.00  0.00    +0.018 A 
ATOM     33  C   UNL     1      -1.714   6.328   1.134  0.00  0.00    +0.016 A 
ATOM     34  C   UNL     1      -2.577   5.253   1.102  0.00  0.00    +0.013 A 
ATOM     35 BR   UNL     1       0.650   7.767   0.471  0.00  0.00    -0.050 Br
ENDBRANCH  27  29
ENDBRANCH   7  27
TORSDOF 6
