REMARK  Name = ZINC04661592
REMARK  9 active torsions:
REMARK  status: ('A' for Active; 'I' for Inactive)
REMARK    1  A    between atoms: C_1  and  C_2
REMARK    2  A    between atoms: C_2  and  C_3
REMARK    3  A    between atoms: C_3  and  O_4
REMARK    4  A    between atoms: O_4  and  C_5
REMARK    5  A    between atoms: C_5  and  C_7
REMARK    6  A    between atoms: C_10  and  O_13
REMARK    7  A    between atoms: O_13  and  C_14
REMARK    8  A    between atoms: C_19  and  O_26
REMARK    9  A    between atoms: C_21  and  O_25
REMARK                            x       y       z     vdW  Elec       q    Type
REMARK                         _______ _______ _______ _____ _____    ______ ____
ROOT
ATOM      1  C   UNL     1      -1.292  -0.055   1.198  0.00  0.00    +0.210 A 
ATOM      2  C   UNL     1      -1.234  -0.742   2.356  0.00  0.00    +0.245 A 
ATOM      3  O   UNL     1      -1.353  -0.153   3.554  0.00  0.00    -0.459 OA
ATOM      4  C   UNL     1      -1.540   1.176   3.691  0.00  0.00    +0.146 A 
ATOM      5  C   UNL     1      -1.658   1.752   4.946  0.00  0.00    +0.092 A 
ATOM      6  C   UNL     1      -1.850   3.119   5.067  0.00  0.00    +0.124 A 
ATOM      7  C   UNL     1      -1.925   3.928   3.937  0.00  0.00    +0.091 A 
ATOM      8  C   UNL     1      -1.810   3.373   2.677  0.00  0.00    +0.135 A 
ATOM      9  C   UNL     1      -1.616   1.991   2.547  0.00  0.00    +0.109 A 
ATOM     10  C   UNL     1      -1.487   1.356   1.227  0.00  0.00    +0.238 A 
ATOM     11  O   UNL     1      -1.540   2.011   0.199  0.00  0.00    -0.283 OA
ENDROOT
BRANCH   8  12
ATOM     12  O   UNL     1      -1.883   4.160   1.573  0.00  0.00    -0.506 OA
ATOM     13  H   UNL     1      -2.780   4.268   1.227  0.00  0.00    +0.292 HD
ENDBRANCH   8  12
BRANCH   6  14
ATOM     14  O   UNL     1      -1.966   3.675   6.300  0.00  0.00    -0.507 OA
ATOM     15  H   UNL     1      -2.874   3.716   6.629  0.00  0.00    +0.292 HD
ENDBRANCH   6  14
BRANCH   1  16
ATOM     16  O   UNL     1      -1.165  -0.705   0.009  0.00  0.00    -0.449 OA
BRANCH  16  20
ATOM     17  C   UNL     1      -0.647  -4.800   0.085  0.00  0.00    +0.059 A 
ATOM     18  C   UNL     1      -1.934  -4.257   0.028  0.00  0.00    +0.018 A 
ATOM     19  C   UNL     1      -2.103  -2.891   0.002  0.00  0.00    +0.047 A 
ATOM     20  C   UNL     1      -0.995  -2.051   0.034  0.00  0.00    +0.129 A 
ATOM     21  C   UNL     1       0.288  -2.587   0.085  0.00  0.00    +0.047 A 
ATOM     22  C   UNL     1       0.464  -3.952   0.117  0.00  0.00    +0.018 A 
BRANCH  17  23
ATOM     23  C   UNL     1      -0.463  -6.262   0.113  0.00  0.00    +0.339 C 
ATOM     24  O   UNL     1      -1.430  -6.997   0.086  0.00  0.00    -0.245 OA
BRANCH  23  25
ATOM     25  O   UNL     1       0.779  -6.784   0.169  0.00  0.00    -0.461 OA
BRANCH  25  26
ATOM     26  C   UNL     1       0.885  -8.232   0.194  0.00  0.00    +0.232 C 
BRANCH  26  28
ATOM     27  C   UNL     1       2.472 -10.159   0.282  0.00  0.00    +0.007 C 
ATOM     28  C   UNL     1       2.360  -8.633   0.256  0.00  0.00    +0.038 C 
ENDBRANCH  26  28
ENDBRANCH  25  26
ENDBRANCH  23  25
ENDBRANCH  17  23
ENDBRANCH  16  20
ENDBRANCH   1  16
TORSDOF 8
