REMARK  Name = ZINC06598160
REMARK  3 active torsions:
REMARK  status: ('A' for Active; 'I' for Inactive)
REMARK    1  A    between atoms: C_4  and  C_7
REMARK    2  A    between atoms: C_7  and  O_26
REMARK    3  A    between atoms: C_15  and  N_17
REMARK                            x       y       z     vdW  Elec       q    Type
REMARK                         _______ _______ _______ _____ _____    ______ ____
ROOT
ATOM      1  C   UNL     1       1.467   3.570   0.026  0.00  0.00    +0.177 C 
ATOM      2  C   UNL     1       1.167   2.084   0.002  0.00  0.00    +0.036 A 
ATOM      3  C   UNL     1      -0.017   1.379   0.010  0.00  0.00    +0.010 A 
ATOM      4  C   UNL     1       0.002  -0.004   0.002  0.00  0.00    +0.001 A 
ATOM      5  C   UNL     1       1.212  -0.674  -0.013  0.00  0.00    +0.004 A 
ATOM      6  C   UNL     1       2.398   0.029  -0.026  0.00  0.00    +0.046 A 
ATOM      7  C   UNL     1       2.388   1.422  -0.021  0.00  0.00    +0.130 A 
ATOM      8  O   UNL     1       3.425   2.303  -0.043  0.00  0.00    -0.463 OA
ATOM      9  C   UNL     1       2.966   3.587   0.410  0.00  0.00    +0.335 C 
ENDROOT
BRANCH   9  10
ATOM     10  N   UNL     1       3.128   3.714   1.861  0.00  0.00    -0.201 N 
ATOM     11  C   UNL     1       3.613   4.805   2.542  0.00  0.00    +0.093 A 
ATOM     12  C   UNL     1       4.067   6.062   2.156  0.00  0.00    +0.030 A 
ATOM     13  C   UNL     1       4.488   6.953   3.104  0.00  0.00    +0.002 A 
ATOM     14  C   UNL     1       4.462   6.616   4.451  0.00  0.00    +0.002 A 
ATOM     15  C   UNL     1       4.015   5.392   4.856  0.00  0.00    +0.032 A 
ATOM     16  C   UNL     1       3.578   4.461   3.905  0.00  0.00    +0.113 A 
ATOM     17  N   UNL     1       3.095   3.206   3.997  0.00  0.00    -0.129 NA
ATOM     18  N   UNL     1       2.824   2.744   2.828  0.00  0.00    -0.061 NA
ENDBRANCH   9  10
BRANCH   1  22
ATOM     19  C   UNL     1       0.860   5.312  -3.827  0.00  0.00    +0.000 A 
ATOM     20  C   UNL     1      -0.132   5.393  -2.867  0.00  0.00    +0.000 A 
ATOM     21  C   UNL     1       0.064   4.829  -1.621  0.00  0.00    +0.007 A 
ATOM     22  C   UNL     1       1.253   4.184  -1.333  0.00  0.00    -0.006 A 
ATOM     23  C   UNL     1       2.247   4.108  -2.291  0.00  0.00    +0.007 A 
ATOM     24  C   UNL     1       2.049   4.668  -3.539  0.00  0.00    +0.000 A 
ENDBRANCH   1  22
BRANCH   1  25
ATOM     25  O   UNL     1       0.679   4.235   1.014  0.00  0.00    -0.374 OA
ATOM     26  H   UNL     1      -0.268   4.250   0.818  0.00  0.00    +0.211 HD
ENDBRANCH   1  25
TORSDOF 3
