REMARK  Name = ZINC39229753
REMARK  6 active torsions:
REMARK  status: ('A' for Active; 'I' for Inactive)
REMARK    1  A    between atoms: C_4  and  C_7
REMARK    2  A    between atoms: C_7  and  O_8
REMARK    3  A    between atoms: O_8  and  C_9
REMARK    4  A    between atoms: C_15  and  N_17
REMARK    5  A    between atoms: C_18  and  C_20
REMARK    6  A    between atoms: C_30  and  C_33
REMARK                            x       y       z     vdW  Elec       q    Type
REMARK                         _______ _______ _______ _____ _____    ______ ____
ROOT
ATOM      1  C   UNL     1       2.694  -4.906   3.770  0.00  0.00    +0.055 A 
ATOM      2  C   UNL     1       2.005  -5.239   4.947  0.00  0.00    +0.018 A 
ATOM      3  C   UNL     1       0.978  -6.141   4.870  0.00  0.00    +0.044 A 
ATOM      4  C   UNL     1       0.649  -6.698   3.635  0.00  0.00    +0.121 A 
ATOM      5  N   UNL     1       1.316  -6.367   2.538  0.00  0.00    -0.240 NA
ATOM      6  C   UNL     1       2.306  -5.499   2.567  0.00  0.00    +0.126 A 
ATOM      7  N   UNL     1      -0.389  -7.610   3.553  0.00  0.00    -0.318 N 
ATOM      8  C   UNL     1      -0.912  -8.046   2.249  0.00  0.00    +0.087 C 
ATOM      9  C   UNL     1      -0.956  -9.578   2.232  0.00  0.00    -0.062 C 
ATOM     10  N   UNL     1      -1.728 -10.058   3.385  0.00  0.00    +0.386 N 
ATOM     11  C   UNL     1      -1.041  -9.697   4.631  0.00  0.00    -0.023 C 
ATOM     12  C   UNL     1      -0.997  -8.176   4.768  0.00  0.00    +0.095 C 
ATOM     13  H   UNL     1      -2.645  -9.636   3.373  0.00  0.00    -0.085 HD
ATOM     14  H   UNL     1      -1.821 -11.061   3.332  0.00  0.00    -0.085 HD
ENDROOT
BRANCH  11  15
ATOM     15  C   UNL     1      -1.783 -10.287   5.803  0.00  0.00    -0.060 A 
ATOM     16  C   UNL     1      -3.165 -10.291   5.815  0.00  0.00    +0.002 A 
ATOM     17  C   UNL     1      -3.845 -10.832   6.890  0.00  0.00    +0.000 A 
ATOM     18  C   UNL     1      -3.143 -11.370   7.952  0.00  0.00    +0.000 A 
ATOM     19  C   UNL     1      -1.761 -11.367   7.940  0.00  0.00    +0.000 A 
ATOM     20  C   UNL     1      -1.081 -10.830   6.863  0.00  0.00    +0.002 A 
ENDBRANCH  11  15
BRANCH   1  22
ATOM     21  N   UNL     1       4.459  -3.623   2.666  0.00  0.00    -0.306 N 
ATOM     22  C   UNL     1       3.808  -3.940   3.803  0.00  0.00    +0.246 C 
ATOM     23  O   UNL     1       4.138  -3.429   4.856  0.00  0.00    -0.270 OA
ATOM     24  H   UNL     1       4.195  -4.031   1.827  0.00  0.00    +0.149 HD
BRANCH  21  30
ATOM     25  C   UNL     1       5.717  -2.013   1.322  0.00  0.00    +0.139 C 
ATOM     26  C   UNL     1       6.872  -1.010   1.356  0.00  0.00    +0.033 C 
ATOM     27  C   UNL     1       8.168  -1.737   1.723  0.00  0.00    +0.003 C 
ATOM     28  C   UNL     1       8.016  -2.387   3.099  0.00  0.00    +0.002 C 
ATOM     29  C   UNL     1       6.861  -3.390   3.065  0.00  0.00    +0.025 C 
ATOM     30  C   UNL     1       5.565  -2.663   2.699  0.00  0.00    +0.102 C 
BRANCH  25  31
ATOM     31  O   UNL     1       4.507  -1.334   0.980  0.00  0.00    -0.370 OA
BRANCH  31  32
ATOM     32  C   UNL     1       4.247  -1.282  -0.424  0.00  0.00    +0.195 C 
BRANCH  32  36
ATOM     33  C   UNL     1       0.581   0.799  -1.119  0.00  0.00    +0.000 A 
ATOM     34  C   UNL     1       1.775   1.495  -1.079  0.00  0.00    +0.000 A 
ATOM     35  C   UNL     1       2.961   0.822  -0.854  0.00  0.00    +0.006 A 
ATOM     36  C   UNL     1       2.954  -0.548  -0.669  0.00  0.00    -0.022 A 
ATOM     37  C   UNL     1       1.760  -1.244  -0.708  0.00  0.00    +0.006 A 
ATOM     38  C   UNL     1       0.574  -0.571  -0.935  0.00  0.00    +0.000 A 
ENDBRANCH  32  36
ENDBRANCH  31  32
ENDBRANCH  25  31
ENDBRANCH  21  30
ENDBRANCH   1  22
TORSDOF 6
