REMARK  Name = ZINC04346810
REMARK  6 active torsions:
REMARK  status: ('A' for Active; 'I' for Inactive)
REMARK    1  A    between atoms: C_1  and  C_2
REMARK    2  A    between atoms: C_5  and  C_9
REMARK    3  A    between atoms: C_6  and  C_8
REMARK    4  A    between atoms: N_14  and  C_17
REMARK    5  A    between atoms: C_17  and  C_18
REMARK    6  A    between atoms: N_23  and  C_27
REMARK                            x       y       z     vdW  Elec       q    Type
REMARK                         _______ _______ _______ _____ _____    ______ ____
ROOT
ATOM      1  C   UNL     1      -1.079   2.488   0.100  0.00  0.00    +0.142 C 
ATOM      2  C   UNL     1      -1.141   3.088   1.490  0.00  0.00    +0.058 C 
ATOM      3  C   UNL     1      -2.268   2.898   2.206  0.00  0.00    +0.042 C 
ATOM      4  C   UNL     1      -2.053   3.595   3.531  0.00  0.00    +0.160 C 
ATOM      5  N   UNL     1      -0.702   4.169   3.441  0.00  0.00    -0.285 N 
ATOM      6  C   UNL     1      -0.211   3.846   2.231  0.00  0.00    +0.247 C 
ATOM      7  O   UNL     1       0.892   4.168   1.827  0.00  0.00    -0.270 OA
ATOM      8  N   UNL     1      -3.318   2.190   1.697  0.00  0.00    -0.260 N 
ATOM      9  C   UNL     1      -3.319   1.638   0.476  0.00  0.00    +0.307 C 
ATOM     10  O   UNL     1      -4.301   1.024   0.108  0.00  0.00    -0.252 OA
ATOM     11  N   UNL     1      -2.264   1.742  -0.357  0.00  0.00    -0.288 N 
ATOM     12  C   UNL     1      -4.511   2.023   2.532  0.00  0.00    +0.139 C 
ATOM     13  H   UNL     1      -2.285   1.335  -1.237  0.00  0.00    +0.151 HD
ENDROOT
BRANCH   1  18
ATOM     14  C   UNL     1       3.449  -1.096  -0.103  0.00  0.00    +0.044 C 
ATOM     15  C   UNL     1       2.269  -0.160  -0.050  0.00  0.00    -0.050 A 
ATOM     16  C   UNL     1       1.661   0.118   1.160  0.00  0.00    +0.004 A 
ATOM     17  C   UNL     1       0.579   0.977   1.209  0.00  0.00    +0.006 A 
ATOM     18  C   UNL     1       0.104   1.557   0.048  0.00  0.00    -0.020 A 
ATOM     19  C   UNL     1       0.712   1.279  -1.162  0.00  0.00    -0.045 A 
ATOM     20  C   UNL     1       1.794   0.419  -1.211  0.00  0.00    +0.007 A 
ATOM     21  C   UNL     1       0.194   1.911  -2.428  0.00  0.00    +0.044 C 
ENDBRANCH   1  18
BRANCH   5  22
ATOM     22  C   UNL     1      -0.019   4.949   4.476  0.00  0.00    +0.182 C 
BRANCH  22  23
ATOM     23  C   UNL     1       0.760   4.021   5.372  0.00  0.00    +0.122 A 
ATOM     24  C   UNL     1       2.035   3.634   5.186  0.00  0.00    +0.046 A 
ATOM     25  C   UNL     1       2.362   2.771   6.257  0.00  0.00    +0.041 A 
ATOM     26  C   UNL     1       1.264   2.676   7.029  0.00  0.00    +0.195 A 
ATOM     27  O   UNL     1       0.297   3.435   6.488  0.00  0.00    -0.466 OA
ENDBRANCH  22  23
ENDBRANCH   5  22
TORSDOF 3
