REMARK  Name = ZINC40317860
REMARK  13 active torsions:
REMARK  status: ('A' for Active; 'I' for Inactive)
REMARK    1  A    between atoms: C_1  and  C_2
REMARK    2  A    between atoms: C_2  and  C_3
REMARK    3  A    between atoms: C_3  and  O_4
REMARK    4  A    between atoms: O_4  and  C_5
REMARK    5  A    between atoms: C_8  and  C_11
REMARK    6  A    between atoms: C_11  and  N_12
REMARK    7  A    between atoms: N_12  and  C_13
REMARK    8  A    between atoms: N_12  and  C_27
REMARK    9  A    between atoms: C_13  and  C_14
REMARK   10  A    between atoms: C_14  and  C_16
REMARK   11  A    between atoms: C_14  and  O_26
REMARK   12  A    between atoms: C_16  and  O_17
REMARK   13  A    between atoms: O_17  and  C_18
REMARK                            x       y       z     vdW  Elec       q    Type
REMARK                         _______ _______ _______ _____ _____    ______ ____
ROOT
ATOM      1  N   UNL     1       4.476  -4.807  -5.241  0.00  0.00    +0.387 N 
ATOM      2  H   UNL     1       4.496  -5.305  -4.363  0.00  0.00    -0.081 HD
ENDROOT
BRANCH   1   3
ATOM      3  C   UNL     1       4.629  -3.368  -4.991  0.00  0.00    -0.045 C 
ATOM      4  C   UNL     1       3.828  -2.970  -3.740  0.00  0.00    +0.009 C 
ATOM      5  C   UNL     1       3.719  -1.428  -3.653  0.00  0.00    +0.164 C 
ATOM      6  S   UNL     1       3.812  -0.915  -5.416  0.00  0.00    -0.033 S 
ATOM      7  O   UNL     1       4.977  -0.124  -5.607  0.00  0.00    -0.174 OA
ATOM      8  O   UNL     1       2.547  -0.406  -5.817  0.00  0.00    -0.174 OA
ATOM      9  C   UNL     1       4.072  -2.563  -6.199  0.00  0.00    +0.151 C 
ENDBRANCH   1   3
BRANCH   1  10
ATOM     10  C   UNL     1       3.195  -5.054  -5.915  0.00  0.00    -0.042 C 
BRANCH  10  14
ATOM     11  C   UNL     1      -0.015  -4.253  -3.210  0.00  0.00    +0.121 A 
ATOM     12  C   UNL     1       0.370  -3.293  -4.135  0.00  0.00    +0.046 A 
ATOM     13  C   UNL     1       1.408  -3.554  -5.008  0.00  0.00    +0.005 A 
ATOM     14  C   UNL     1       2.063  -4.771  -4.961  0.00  0.00    -0.064 A 
ATOM     15  C   UNL     1       1.681  -5.729  -4.040  0.00  0.00    +0.005 A 
ATOM     16  C   UNL     1       0.647  -5.471  -3.161  0.00  0.00    +0.046 A 
BRANCH  11  17
ATOM     17  O   UNL     1      -1.036  -3.998  -2.350  0.00  0.00    -0.492 OA
BRANCH  17  18
ATOM     18  C   UNL     1      -1.672  -2.723  -2.457  0.00  0.00    +0.229 C 
BRANCH  18  20
ATOM     19  C   UNL     1      -3.470  -1.255  -1.531  0.00  0.00    +0.007 C 
ATOM     20  C   UNL     1      -2.788  -2.620  -1.415  0.00  0.00    +0.038 C 
ENDBRANCH  18  20
ENDBRANCH  17  18
ENDBRANCH  11  17
ENDBRANCH  10  14
ENDBRANCH   1  10
BRANCH   1  21
ATOM     21  C   UNL     1       5.576  -5.276  -6.094  0.00  0.00    -0.043 C 
BRANCH  21  22
ATOM     22  C   UNL     1       6.852  -5.401  -5.259  0.00  0.00    +0.135 C 
BRANCH  22  23
ATOM     23  O   UNL     1       7.291  -4.100  -4.863  0.00  0.00    -0.390 OA
ATOM     24  H   UNL     1       7.445  -3.494  -5.601  0.00  0.00    +0.210 HD
ENDBRANCH  22  23
BRANCH  22  25
ATOM     25  C   UNL     1       7.944  -6.075  -6.092  0.00  0.00    +0.258 C 
BRANCH  25  26
ATOM     26  O   UNL     1       9.097  -6.297  -5.278  0.00  0.00    -0.488 OA
BRANCH  26  27
ATOM     27  C   UNL     1      10.165  -6.892  -5.870  0.00  0.00    +0.139 A 
ATOM     28  C   UNL     1      10.107  -7.250  -7.209  0.00  0.00    +0.048 A 
ATOM     29  C   UNL     1      11.195  -7.856  -7.809  0.00  0.00    +0.023 A 
ATOM     30  C   UNL     1      12.341  -8.105  -7.076  0.00  0.00    +0.043 A 
ATOM     31  C   UNL     1      12.402  -7.749  -5.740  0.00  0.00    +0.043 A 
ATOM     32  C   UNL     1      11.319  -7.138  -5.137  0.00  0.00    +0.084 A 
ATOM     33 CL   UNL     1      11.397  -6.684  -3.463  0.00  0.00    -0.080 Cl
ATOM     34 CL   UNL     1      13.706  -8.866  -7.833  0.00  0.00    -0.083 Cl
ENDBRANCH  26  27
ENDBRANCH  25  26
ENDBRANCH  22  25
ENDBRANCH  21  22
ENDBRANCH   1  21
TORSDOF 12
