REMARK  Name = ZINC17075131
REMARK  7 active torsions:
REMARK  status: ('A' for Active; 'I' for Inactive)
REMARK    1  A    between atoms: C_1  and  C_2
REMARK    2  A    between atoms: C_9  and  N_14
REMARK    3  A    between atoms: C_10  and  C_11
REMARK    4  A    between atoms: C_15  and  C_17
REMARK    5  A    between atoms: C_17  and  N_18
REMARK    6  A    between atoms: C_20  and  C_27
REMARK    7  A    between atoms: C_23  and  C_26
REMARK                            x       y       z     vdW  Elec       q    Type
REMARK                         _______ _______ _______ _____ _____    ______ ____
ROOT
ATOM      1  C   UNL     1       3.553   2.073  -1.310  0.00  0.00    +0.008 C 
ATOM      2  C   UNL     1       2.198   1.381  -1.150  0.00  0.00    -0.009 C 
ATOM      3  C   UNL     1       1.423   2.031  -0.001  0.00  0.00    +0.008 C 
ATOM      4  C   UNL     1      -0.019   1.520   0.010  0.00  0.00    +0.037 C 
ATOM      5  C   UNL     1       0.002  -0.004   0.002  0.00  0.00    -0.023 A 
ATOM      6  C   UNL     1       1.107  -0.683  -0.376  0.00  0.00    -0.004 A 
ATOM      7  S   UNL     1       0.663  -2.390  -0.226  0.00  0.00    -0.077 S 
ATOM      8  C   UNL     1      -0.967  -2.207   0.331  0.00  0.00    +0.084 A 
ATOM      9  C   UNL     1      -1.129  -0.830   0.388  0.00  0.00    +0.068 A 
ATOM     10  C   UNL     1       2.414  -0.104  -0.824  0.00  0.00    +0.046 C 
ENDROOT
BRANCH   9  11
ATOM     11  C   UNL     1      -2.396  -0.231   0.820  0.00  0.00    +0.244 C 
ATOM     12  O   UNL     1      -3.262   0.019   0.002  0.00  0.00    -0.270 OA
ATOM     13  N   UNL     1      -2.601   0.044   2.124  0.00  0.00    -0.325 N 
ATOM     14  H   UNL     1      -3.551   0.494   2.448  0.00  0.00    +0.145 HD
ATOM     15  H   UNL     1      -1.818  -0.181   2.863  0.00  0.00    +0.145 HD
ENDBRANCH   9  11
BRANCH   8  16
ATOM     16  N   UNL     1      -1.887  -3.196   0.645  0.00  0.00    -0.278 N 
ATOM     17  C   UNL     1      -1.546  -4.495   0.528  0.00  0.00    +0.232 C 
ATOM     18  O   UNL     1      -0.435  -4.798   0.147  0.00  0.00    -0.274 OA
ATOM     19  H   UNL     1      -2.894  -2.921   0.990  0.00  0.00    +0.155 HD
BRANCH  17  20
ATOM     20  C   UNL     1      -2.545  -5.570   0.869  0.00  0.00    +0.181 C 
BRANCH  20  21
ATOM     21  N   UNL     1      -1.935  -6.890   0.659  0.00  0.00    -0.289 NA
ATOM     22  C   UNL     1      -1.655  -7.121  -0.765  0.00  0.00    +0.116 C 
ATOM     23  C   UNL     1      -0.967  -8.479  -0.931  0.00  0.00    +0.130 C 
ATOM     24  O   UNL     1      -1.797  -9.499  -0.370  0.00  0.00    -0.371 OA
ATOM     25  C   UNL     1      -2.089  -9.306   1.017  0.00  0.00    +0.130 C 
ATOM     26  C   UNL     1      -2.788  -7.957   1.202  0.00  0.00    +0.116 C 
ATOM     27  C   UNL     1      -0.786  -9.322   1.820  0.00  0.00    +0.039 C 
ATOM     28  C   UNL     1      -0.746  -8.761  -2.419  0.00  0.00    +0.039 C 
ENDBRANCH  20  21
ENDBRANCH  17  20
ENDBRANCH   8  16
TORSDOF 4
