REMARK  Name = ZINC13215230
REMARK  3 active torsions:
REMARK  status: ('A' for Active; 'I' for Inactive)
REMARK    1  A    between atoms: C_1  and  C_2
REMARK    2  A    between atoms: C_15  and  C_16
REMARK    3  A    between atoms: C_28  and  C_29
REMARK                            x       y       z     vdW  Elec       q    Type
REMARK                         _______ _______ _______ _____ _____    ______ ____
ROOT
ATOM      1  C   UNL     1      -2.477  -1.852   5.335  0.00  0.00    +0.046 C 
ATOM      2  C   UNL     1      -3.555  -1.189   4.516  0.00  0.00    -0.015 A 
ATOM      3  C   UNL     1      -3.238  -0.585   3.302  0.00  0.00    +0.076 A 
ATOM      4  C   UNL     1      -4.334  -0.076   2.558  0.00  0.00    +0.117 A 
ATOM      5  N   UNL     1      -4.184   0.418   1.349  0.00  0.00    -0.222 NA
ATOM      6  C   UNL     1      -2.985   0.573   0.772  0.00  0.00    +0.141 A 
ATOM      7  N   UNL     1      -1.885   0.457   1.599  0.00  0.00    -0.292 N 
ATOM      8  C   UNL     1      -1.915  -0.345   2.682  0.00  0.00    +0.263 A 
ATOM      9  O   UNL     1      -0.900  -0.851   3.128  0.00  0.00    -0.267 OA
ATOM     10  C   UNL     1      -0.739   1.348   1.426  0.00  0.00    +0.127 C 
ATOM     11  C   UNL     1      -0.049   1.192   0.113  0.00  0.00    +0.022 C 
ATOM     12  C   UNL     1      -0.753   1.840  -1.047  0.00  0.00    +0.006 C 
ATOM     13  C   UNL     1      -1.872   0.977  -1.591  0.00  0.00    +0.039 C 
ATOM     14  C   UNL     1      -2.954   0.807  -0.584  0.00  0.00    -0.004 C 
ATOM     15  C   UNL     1      -4.189   0.904  -1.124  0.00  0.00    +0.021 C 
ATOM     16  S   UNL     1      -5.712  -0.336   3.648  0.00  0.00    -0.062 S 
ATOM     17  C   UNL     1      -4.846  -1.178   4.963  0.00  0.00    +0.106 A 
ENDROOT
BRANCH  15  18
ATOM     18  C   UNL     1      -4.347   0.999  -2.581  0.00  0.00    +0.052 A 
ATOM     19  C   UNL     1      -4.980   2.114  -3.149  0.00  0.00    +0.171 A 
ATOM     20  C   UNL     1      -5.120   2.199  -4.521  0.00  0.00    +0.197 A 
ATOM     21  C   UNL     1      -4.647   1.180  -5.336  0.00  0.00    +0.199 A 
ATOM     22  C   UNL     1      -4.025   0.071  -4.780  0.00  0.00    +0.197 A 
ATOM     23  C   UNL     1      -3.872  -0.026  -3.410  0.00  0.00    +0.171 A 
ATOM     24  F   UNL     1      -3.267  -1.107  -2.871  0.00  0.00    -0.202 F 
ATOM     25  F   UNL     1      -3.568  -0.916  -5.581  0.00  0.00    -0.199 F 
ATOM     26  F   UNL     1      -4.793   1.268  -6.676  0.00  0.00    -0.199 F 
ATOM     27  F   UNL     1      -5.724   3.276  -5.071  0.00  0.00    -0.199 F 
ATOM     28  F   UNL     1      -5.446   3.104  -2.357  0.00  0.00    -0.202 F 
ENDBRANCH  15  18
BRANCH  17  29
ATOM     29  C   UNL     1      -5.386  -1.721   6.209  0.00  0.00    +0.393 C 
ATOM     30  O   UNL     1      -4.647  -2.270   7.004  0.00  0.00    -0.240 OA
ATOM     31  O   UNL     1      -6.704  -1.613   6.478  0.00  0.00    -0.240 OA
ENDBRANCH  17  29
TORSDOF 2
