REMARK  Name = ZINC33234426
REMARK  7 active torsions:
REMARK  status: ('A' for Active; 'I' for Inactive)
REMARK    1  A    between atoms: C_1  and  N_2
REMARK    2  A    between atoms: C_6  and  C_7
REMARK    3  A    between atoms: N_9  and  N_10
REMARK    4  A    between atoms: C_11  and  C_13
REMARK    5  A    between atoms: C_13  and  C_14
REMARK    6  A    between atoms: C_19  and  O_20
REMARK    7  A    between atoms: O_20  and  C_21
REMARK                            x       y       z     vdW  Elec       q    Type
REMARK                         _______ _______ _______ _____ _____    ______ ____
ROOT
ATOM      1  N   UNL     1      -1.183   1.615   0.929  0.00  0.00    -0.234 N 
ATOM      2  C   UNL     1      -2.321   0.916   1.110  0.00  0.00    +0.234 C 
ATOM      3  O   UNL     1      -2.308  -0.295   1.037  0.00  0.00    -0.274 OA
ATOM      4  H   UNL     1      -1.196   2.713   0.996  0.00  0.00    +0.173 HD
ENDROOT
BRANCH   1   7
ATOM      5  C   UNL     1       1.152   1.642   0.468  0.00  0.00    +0.277 C 
ATOM      6  O   UNL     1       1.120   2.858   0.436  0.00  0.00    -0.267 OA
ATOM      7  N   UNL     1       0.015   0.943   0.655  0.00  0.00    -0.229 N 
ATOM      8  H   UNL     1       0.028  -0.155   0.593  0.00  0.00    +0.173 HD
BRANCH   5  14
ATOM      9  C   UNL     1       3.948   2.957   0.240  0.00  0.00    +0.149 C 
ATOM     10  N   UNL     1       3.671   1.518   0.202  0.00  0.00    -0.345 N 
ATOM     11  C   UNL     1       4.598   0.539   0.060  0.00  0.00    +0.101 A 
ATOM     12  C   UNL     1       3.970  -0.662   0.068  0.00  0.00    +0.036 A 
ATOM     13  C   UNL     1       2.600  -0.429   0.227  0.00  0.00    +0.047 A 
ATOM     14  C   UNL     1       2.428   0.937   0.303  0.00  0.00    +0.107 A 
ATOM     15 BR   UNL     1       4.800  -2.353  -0.097  0.00  0.00    -0.049 Br
ENDBRANCH   5  14
ENDBRANCH   1   7
BRANCH   2  16
ATOM     16  C   UNL     1      -3.611   1.639   1.405  0.00  0.00    +0.136 C 
BRANCH  16  17
ATOM     17  C   UNL     1      -4.724   0.635   1.563  0.00  0.00    +0.003 A 
ATOM     18  C   UNL     1      -5.534   0.325   0.488  0.00  0.00    +0.008 A 
ATOM     19  C   UNL     1      -6.552  -0.598   0.632  0.00  0.00    +0.001 A 
ATOM     20  C   UNL     1      -6.770  -1.206   1.855  0.00  0.00    +0.004 A 
ATOM     21  C   UNL     1      -5.966  -0.896   2.934  0.00  0.00    +0.046 A 
ATOM     22  C   UNL     1      -4.940   0.027   2.791  0.00  0.00    +0.124 A 
BRANCH  22  23
ATOM     23  O   UNL     1      -4.148   0.334   3.852  0.00  0.00    -0.495 OA
ATOM     24  C   UNL     1      -4.428  -0.331   5.085  0.00  0.00    +0.277 C 
ENDBRANCH  22  23
ENDBRANCH  16  17
ENDBRANCH   2  16
TORSDOF 5
