REMARK  Name = ZINC29664848
REMARK  10 active torsions:
REMARK  status: ('A' for Active; 'I' for Inactive)
REMARK    1  A    between atoms: C_1  and  C_2
REMARK    2  A    between atoms: C_2  and  C_4
REMARK    3  A    between atoms: C_2  and  S_18
REMARK    4  A    between atoms: C_4  and  C_6
REMARK    5  A    between atoms: C_6  and  C_16
REMARK    6  A    between atoms: S_18  and  C_19
REMARK    7  A    between atoms: C_22  and  C_29
REMARK    8  A    between atoms: N_23  and  C_24
REMARK    9  A    between atoms: C_24  and  C_25
REMARK   10  A    between atoms: C_25  and  C_26
REMARK                            x       y       z     vdW  Elec       q    Type
REMARK                         _______ _______ _______ _____ _____    ______ ____
ROOT
ATOM      1  S   UNL     1      -2.425  -0.627   1.486  0.00  0.00    -0.075 S 
ENDROOT
BRANCH   1   2
ATOM      2  C   UNL     1      -1.701   0.927   1.894  0.00  0.00    +0.193 A 
ATOM      3  N   UNL     1      -2.026   1.694   2.911  0.00  0.00    -0.122 NA
ATOM      4  N   UNL     1      -1.301   2.755   2.914  0.00  0.00    -0.125 NA
ATOM      5  C   UNL     1      -0.463   2.729   1.901  0.00  0.00    +0.200 A 
ATOM      6  N   UNL     1      -0.698   1.558   1.213  0.00  0.00    -0.299 N 
BRANCH   5   7
ATOM      7  C   UNL     1       0.535   3.756   1.563  0.00  0.00    +0.172 A 
ATOM      8  C   UNL     1       0.576   5.024   2.059  0.00  0.00    +0.053 A 
ATOM      9  C   UNL     1       1.689   5.654   1.469  0.00  0.00    +0.042 A 
ATOM     10  C   UNL     1       2.266   4.752   0.650  0.00  0.00    +0.196 A 
ATOM     11  O   UNL     1       1.570   3.605   0.714  0.00  0.00    -0.460 OA
ENDBRANCH   5   7
BRANCH   6  12
ATOM     12  C   UNL     1      -0.013   1.086   0.008  0.00  0.00    +0.135 C 
BRANCH  12  13
ATOM     13  C   UNL     1      -0.753   1.593  -1.232  0.00  0.00    +0.117 C 
BRANCH  13  14
ATOM     14  C   UNL     1      -0.047   1.107  -2.471  0.00  0.00    +0.212 C 
ATOM     15  O   UNL     1       0.949   0.422  -2.373  0.00  0.00    -0.276 OA
ATOM     16  N   UNL     1      -0.524   1.433  -3.689  0.00  0.00    -0.329 N 
ATOM     17  H   UNL     1      -0.009   1.078  -4.594  0.00  0.00    +0.145 HD
ATOM     18  H   UNL     1      -1.427   2.053  -3.778  0.00  0.00    +0.145 HD
ENDBRANCH  13  14
ENDBRANCH  12  13
ENDBRANCH   6  12
ENDBRANCH   1   2
BRANCH   1  20
ATOM     19  C   UNL     1      -4.687   0.337   2.676  0.00  0.00    +0.028 C 
ATOM     20  C   UNL     1      -3.639  -0.769   2.820  0.00  0.00    +0.123 C 
BRANCH  20  21
ATOM     21  C   UNL     1      -4.314  -2.114   2.743  0.00  0.00    +0.189 C 
ATOM     22  O   UNL     1      -4.371  -2.706   1.683  0.00  0.00    -0.290 OA
BRANCH  21  23
ATOM     23  C   UNL     1      -4.878  -2.684   3.897  0.00  0.00    +0.123 C 
ATOM     24  C   UNL     1      -5.509  -3.940   3.825  0.00  0.00    +0.091 C 
ATOM     25  N   UNL     1      -5.673  -4.739   2.739  0.00  0.00    -0.307 N 
ATOM     26  C   UNL     1      -6.321  -5.953   2.863  0.00  0.00    +0.046 A 
ATOM     27  C   UNL     1      -6.580  -6.909   1.867  0.00  0.00    +0.024 A 
ATOM     28  C   UNL     1      -7.249  -8.071   2.165  0.00  0.00    +0.002 A 
ATOM     29  C   UNL     1      -7.688  -8.338   3.452  0.00  0.00    +0.001 A 
ATOM     30  C   UNL     1      -7.448  -7.413   4.453  0.00  0.00    +0.017 A 
ATOM     31  C   UNL     1      -6.777  -6.250   4.156  0.00  0.00    +0.035 A 
ATOM     32  S   UNL     1      -6.270  -4.835   5.100  0.00  0.00    -0.071 S 
ATOM     33  H   UNL     1      -5.290  -4.421   1.759  0.00  0.00    +0.153 HD
BRANCH  23  34
ATOM     34  C   UNL     1      -4.811  -1.986   5.146  0.00  0.00    +0.105 C 
ATOM     35  N   UNL     1      -4.758  -1.433   6.137  0.00  0.00    -0.191 NA
ENDBRANCH  23  34
ENDBRANCH  21  23
ENDBRANCH  20  21
ENDBRANCH   1  20
TORSDOF 9
