REMARK  Name = ZINC57342209
REMARK  1 active torsions:
REMARK  status: ('A' for Active; 'I' for Inactive)
REMARK    1  A    between atoms: C_5  and  N_7
REMARK                            x       y       z     vdW  Elec       q    Type
REMARK                         _______ _______ _______ _____ _____    ______ ____
ROOT
ATOM      1  N   UNL     1       1.237  -2.079  -0.022  0.00  0.00    -0.284 N 
ATOM      2  C   UNL     1       0.067  -2.784   0.089  0.00  0.00    +0.200 A 
ATOM      3  N   UNL     1      -1.081  -2.136   0.098  0.00  0.00    -0.224 NA
ATOM      4  C   UNL     1      -2.240  -2.782   0.205  0.00  0.00    +0.119 A 
ATOM      5  C   UNL     1      -2.259  -4.143   0.307  0.00  0.00    +0.090 A 
ATOM      6  C   UNL     1      -1.038  -4.842   0.298  0.00  0.00    +0.253 A 
ATOM      7  N   UNL     1       0.110  -4.141   0.182  0.00  0.00    -0.295 N 
ATOM      8  O   UNL     1      -1.018  -6.058   0.387  0.00  0.00    -0.268 OA
ATOM      9  H   UNL     1       2.080  -2.550  -0.119  0.00  0.00    +0.155 HD
ATOM     10  H   UNL     1       0.963  -4.603   0.170  0.00  0.00    +0.172 HD
ENDROOT
BRANCH   1  15
ATOM     11  C   UNL     1       0.158   1.369   0.656  0.00  0.00    +0.002 A 
ATOM     12  C   UNL     1       1.175   2.086   0.052  0.00  0.00    +0.001 A 
ATOM     13  C   UNL     1       2.212   1.423  -0.577  0.00  0.00    +0.017 A 
ATOM     14  C   UNL     1       2.236   0.042  -0.604  0.00  0.00    +0.039 A 
ATOM     15  C   UNL     1       1.216  -0.681   0.003  0.00  0.00    +0.048 A 
ATOM     16  C   UNL     1       0.176  -0.011   0.634  0.00  0.00    +0.024 A 
ATOM     17 BR   UNL     1       3.655  -0.864  -1.466  0.00  0.00    -0.048 Br
ENDBRANCH   1  15
TORSDOF 1
