REMARK  Name = ZINC05460476
REMARK  5 active torsions:
REMARK  status: ('A' for Active; 'I' for Inactive)
REMARK    1  A    between atoms: C_1  and  C_2
REMARK    2  A    between atoms: C_2  and  C_3
REMARK    3  A    between atoms: C_2  and  C_4
REMARK    4  A    between atoms: C_7  and  C_10
REMARK    5  A    between atoms: C_13  and  C_25
REMARK                            x       y       z     vdW  Elec       q    Type
REMARK                         _______ _______ _______ _____ _____    ______ ____
ROOT
ATOM      1  C   UNL     1       2.797  -1.919   4.683  0.00  0.00    +0.122 C 
ATOM      2  C   UNL     1       2.075  -1.435   5.946  0.00  0.00    +0.057 C 
ATOM      3  C   UNL     1       2.650  -2.149   7.175  0.00  0.00    +0.106 C 
ATOM      4  N   UNL     1       2.384  -3.594   7.046  0.00  0.00    -0.309 N 
ATOM      5  C   UNL     1       2.616  -4.155   5.800  0.00  0.00    +0.175 A 
ATOM      6  N   UNL     1       2.818  -3.384   4.676  0.00  0.00    -0.306 N 
ATOM      7  C   UNL     1       3.025  -4.239   3.630  0.00  0.00    +0.069 A 
ATOM      8  C   UNL     1       3.278  -4.034   2.279  0.00  0.00    +0.028 A 
ATOM      9  C   UNL     1       3.439  -5.161   1.489  0.00  0.00    +0.002 A 
ATOM     10  C   UNL     1       3.353  -6.440   2.009  0.00  0.00    +0.002 A 
ATOM     11  C   UNL     1       3.103  -6.671   3.350  0.00  0.00    +0.028 A 
ATOM     12  C   UNL     1       2.937  -5.548   4.167  0.00  0.00    +0.065 A 
ATOM     13  N   UNL     1       2.684  -5.423   5.490  0.00  0.00    -0.327 N 
ATOM     14  H   UNL     1       2.063  -4.123   7.793  0.00  0.00    +0.149 HD
ATOM     15  H   UNL     1       2.573  -6.159   6.112  0.00  0.00    +0.169 HD
ENDROOT
BRANCH   3  16
ATOM     16  C   UNL     1       4.135  -1.909   7.252  0.00  0.00    -0.027 A 
ATOM     17  C   UNL     1       4.996  -2.647   6.460  0.00  0.00    +0.007 A 
ATOM     18  C   UNL     1       6.359  -2.427   6.529  0.00  0.00    +0.020 A 
ATOM     19  C   UNL     1       6.862  -1.469   7.392  0.00  0.00    +0.041 A 
ATOM     20  C   UNL     1       6.000  -0.732   8.184  0.00  0.00    +0.020 A 
ATOM     21  C   UNL     1       4.637  -0.948   8.109  0.00  0.00    +0.007 A 
ATOM     22 CL   UNL     1       8.573  -1.193   7.480  0.00  0.00    -0.084 Cl
ENDBRANCH   3  16
BRANCH   1  26
ATOM     23  C   UNL     1       0.731  -0.503   1.223  0.00  0.00    -0.045 A 
ATOM     24  C   UNL     1       2.050  -0.148   1.434  0.00  0.00    +0.004 A 
ATOM     25  C   UNL     1       2.719  -0.606   2.554  0.00  0.00    +0.006 A 
ATOM     26  C   UNL     1       2.068  -1.419   3.463  0.00  0.00    -0.025 A 
ATOM     27  C   UNL     1       0.749  -1.773   3.252  0.00  0.00    +0.006 A 
ATOM     28  C   UNL     1       0.079  -1.312   2.135  0.00  0.00    +0.004 A 
BRANCH  23  30
ATOM     29  C   UNL     1      -0.019   1.526   0.010  0.00  0.00    +0.012 C 
ATOM     30  C   UNL     1       0.002  -0.004   0.002  0.00  0.00    +0.013 C 
ATOM     31  C   UNL     1       0.718  -0.497  -1.257  0.00  0.00    +0.012 C 
ENDBRANCH  23  30
ENDBRANCH   1  26
TORSDOF 3
