REMARK  Name = ZINC16809475
REMARK  7 active torsions:
REMARK  status: ('A' for Active; 'I' for Inactive)
REMARK    1  A    between atoms: C_1  and  C_2
REMARK    2  A    between atoms: C_5  and  C_9
REMARK    3  A    between atoms: C_6  and  C_8
REMARK    4  A    between atoms: C_9  and  C_10
REMARK    5  A    between atoms: C_11  and  C_33
REMARK    6  A    between atoms: C_24  and  C_28
REMARK    7  A    between atoms: C_25  and  C_27
REMARK                            x       y       z     vdW  Elec       q    Type
REMARK                         _______ _______ _______ _____ _____    ______ ____
ROOT
ATOM      1  C   UNL     1      -5.428   1.408  -1.538  0.00  0.00    +0.042 A 
ATOM      2  C   UNL     1      -4.099   1.106  -1.603  0.00  0.00    +0.050 A 
ATOM      3  N   UNL     1      -3.324   1.273  -0.534  0.00  0.00    -0.221 NA
ATOM      4  C   UNL     1      -3.810   1.728   0.602  0.00  0.00    +0.202 A 
ATOM      5  N   UNL     1      -5.128   2.040   0.729  0.00  0.00    -0.295 N 
ATOM      6  H   UNL     1      -5.471   2.370   1.574  0.00  0.00    +0.172 HD
ATOM      7  C   UNL     1      -5.956   1.894  -0.328  0.00  0.00    +0.256 A 
ATOM      8  O   UNL     1      -7.139   2.174  -0.234  0.00  0.00    -0.267 OA
ATOM      9  N   UNL     1      -2.973   1.884   1.680  0.00  0.00    -0.255 N 
ATOM     10  C   UNL     1      -1.640   1.567   1.567  0.00  0.00    +0.202 A 
ATOM     11  N   UNL     1      -0.822   1.726   2.642  0.00  0.00    -0.295 N 
ATOM     12  H   UNL     1      -1.179   2.060   3.480  0.00  0.00    +0.172 HD
ATOM     13  C   UNL     1       0.488   1.417   2.539  0.00  0.00    +0.256 A 
ATOM     14  O   UNL     1       1.236   1.554   3.493  0.00  0.00    -0.267 OA
ATOM     15  C   UNL     1       0.974   0.935   1.310  0.00  0.00    +0.041 A 
ATOM     16  C   UNL     1       0.106   0.796   0.267  0.00  0.00    +0.050 A 
ATOM     17  N   UNL     1      -1.177   1.119   0.419  0.00  0.00    -0.221 NA
ATOM     18  C   UNL     1       0.600   0.282  -1.060  0.00  0.00    +0.066 C 
ATOM     19  C   UNL     1      -3.509   0.584  -2.888  0.00  0.00    +0.066 C 
ATOM     20  H   UNL     1      -3.322   2.218   2.521  0.00  0.00    +0.158 HD
ENDROOT
BRANCH  15  21
ATOM     21  C   UNL     1       2.429   0.577   1.149  0.00  0.00    +0.026 C 
ATOM     22  C   UNL     1       2.831  -0.486   2.192  0.00  0.00    +0.008 C 
ATOM     23  C   UNL     1       4.273  -0.092   2.599  0.00  0.00    +0.001 C 
ATOM     24  C   UNL     1       4.214   1.455   2.614  0.00  0.00    +0.001 C 
ATOM     25  C   UNL     1       3.308   1.811   1.417  0.00  0.00    +0.008 C 
ENDBRANCH  15  21
BRANCH   1  26
ATOM     26  C   UNL     1      -6.316   1.224  -2.742  0.00  0.00    +0.077 C 
BRANCH  26  31
ATOM     27  C   UNL     1      -8.831  -3.973  -2.502  0.00  0.00    +0.044 C 
ATOM     28  C   UNL     1      -8.175  -2.618  -2.564  0.00  0.00    -0.050 A 
ATOM     29  C   UNL     1      -7.405  -2.173  -1.506  0.00  0.00    +0.003 A 
ATOM     30  C   UNL     1      -6.803  -0.930  -1.563  0.00  0.00    +0.004 A 
ATOM     31  C   UNL     1      -6.972  -0.132  -2.679  0.00  0.00    -0.040 A 
ATOM     32  C   UNL     1      -7.746  -0.574  -3.735  0.00  0.00    -0.047 A 
ATOM     33  C   UNL     1      -8.343  -1.820  -3.680  0.00  0.00    +0.007 A 
ATOM     34  C   UNL     1      -7.934   0.299  -4.949  0.00  0.00    +0.044 C 
ENDBRANCH  26  31
ENDBRANCH   1  26
TORSDOF 3
