REMARK  Name = ZINC01655010
REMARK  11 active torsions:
REMARK  status: ('A' for Active; 'I' for Inactive)
REMARK    1  A    between atoms: C_1  and  C_2
REMARK    2  A    between atoms: C_4  and  C_33
REMARK    3  A    between atoms: C_4  and  O_39
REMARK    4  A    between atoms: C_7  and  C_9
REMARK    5  A    between atoms: C_9  and  S_10
REMARK    6  A    between atoms: S_10  and  C_11
REMARK    7  A    between atoms: C_14  and  S_16
REMARK    8  A    between atoms: S_16  and  C_17
REMARK    9  A    between atoms: C_17  and  C_18
REMARK   10  A    between atoms: C_21  and  C_26
REMARK   11  A    between atoms: C_21  and  O_32
REMARK                            x       y       z     vdW  Elec       q    Type
REMARK                         _______ _______ _______ _____ _____    ______ ____
ROOT
ATOM      1  C   UNL     1       5.781  -4.016  -0.049  0.00  0.00    +0.160 A 
ATOM      2  N   UNL     1       6.316  -2.811  -0.039  0.00  0.00    -0.134 NA
ATOM      3  N   UNL     1       7.684  -2.669  -0.046  0.00  0.00    -0.134 NA
ATOM      4  C   UNL     1       8.455  -3.740  -0.062  0.00  0.00    +0.160 A 
ATOM      5  S   UNL     1       7.239  -5.048  -0.062  0.00  0.00    -0.033 S 
ENDROOT
BRANCH   1   6
ATOM      6  S   UNL     1       4.082  -4.484  -0.043  0.00  0.00    -0.088 S 
BRANCH   6   7
ATOM      7  C   UNL     1       3.192  -2.903  -0.030  0.00  0.00    +0.174 C 
BRANCH   7  14
ATOM      8  C   UNL     1      -0.018   1.503   0.010  0.00  0.00    +0.062 C 
ATOM      9  C   UNL     1       0.002  -0.004   0.002  0.00  0.00    +0.020 C 
ATOM     10  C   UNL     1      -1.078  -0.756   0.003  0.00  0.00    +0.053 C 
ATOM     11  C   UNL     1      -0.628  -2.200  -0.007  0.00  0.00    +0.199 C 
ATOM     12  N   UNL     1       0.843  -2.128  -0.014  0.00  0.00    -0.183 N 
ATOM     13  N   UNL     1       1.157  -0.762  -0.014  0.00  0.00    -0.263 N 
ATOM     14  C   UNL     1       1.707  -3.162  -0.024  0.00  0.00    +0.245 C 
ATOM     15  O   UNL     1       1.291  -4.301  -0.028  0.00  0.00    -0.273 OA
ATOM     16  H   UNL     1       2.057  -0.401  -0.020  0.00  0.00    +0.170 HD
BRANCH  11  17
ATOM     17  C   UNL     1      -1.127  -2.897  -1.247  0.00  0.00    +0.008 A 
ATOM     18  C   UNL     1      -0.324  -2.969  -2.370  0.00  0.00    +0.008 A 
ATOM     19  C   UNL     1      -0.781  -3.609  -3.507  0.00  0.00    +0.000 A 
ATOM     20  C   UNL     1      -2.041  -4.176  -3.521  0.00  0.00    +0.000 A 
ATOM     21  C   UNL     1      -2.844  -4.104  -2.398  0.00  0.00    +0.000 A 
ATOM     22  C   UNL     1      -2.385  -3.469  -1.260  0.00  0.00    +0.008 A 
ENDBRANCH  11  17
BRANCH  11  23
ATOM     23  O   UNL     1      -1.089  -2.874   1.165  0.00  0.00    -0.363 OA
ATOM     24  H   UNL     1      -2.052  -2.904   1.248  0.00  0.00    +0.213 HD
ENDBRANCH  11  23
ENDBRANCH   7  14
ENDBRANCH   6   7
ENDBRANCH   1   6
BRANCH   4  25
ATOM     25  S   UNL     1      10.213  -3.850  -0.073  0.00  0.00    -0.088 S 
BRANCH  25  26
ATOM     26  C   UNL     1      10.762  -2.122  -0.058  0.00  0.00    +0.174 C 
BRANCH  26  27
ATOM     27  C   UNL     1      12.268  -2.072  -0.066  0.00  0.00    +0.245 C 
ATOM     28  O   UNL     1      12.908  -3.102  -0.081  0.00  0.00    -0.273 OA
ATOM     29  N   UNL     1      12.903  -0.883  -0.056  0.00  0.00    -0.186 N 
ATOM     30  C   UNL     1      14.360  -0.704  -0.069  0.00  0.00    +0.183 C 
ATOM     31  C   UNL     1      14.579   0.819  -0.051  0.00  0.00    +0.113 C 
ATOM     32  C   UNL     1      13.185   1.405  -0.029  0.00  0.00    +0.020 C 
ATOM     33  C   UNL     1      12.887   2.690  -0.010  0.00  0.00    +0.030 C 
ATOM     34  N   UNL     1      12.277   0.361  -0.039  0.00  0.00    -0.264 N 
ATOM     35  H   UNL     1      11.314   0.482  -0.033  0.00  0.00    +0.170 HD
BRANCH  30  36
ATOM     36  C   UNL     1      14.974  -1.335   1.154  0.00  0.00    +0.004 A 
ATOM     37  C   UNL     1      16.302  -1.718   1.140  0.00  0.00    +0.008 A 
ATOM     38  C   UNL     1      16.867  -2.296   2.261  0.00  0.00    +0.000 A 
ATOM     39  C   UNL     1      16.103  -2.491   3.397  0.00  0.00    +0.000 A 
ATOM     40  C   UNL     1      14.775  -2.107   3.411  0.00  0.00    +0.000 A 
ATOM     41  C   UNL     1      14.212  -1.525   2.291  0.00  0.00    +0.008 A 
ENDBRANCH  30  36
BRANCH  30  42
ATOM     42  O   UNL     1      14.919  -1.271  -1.255  0.00  0.00    -0.366 OA
ATOM     43  H   UNL     1      14.774  -2.224  -1.341  0.00  0.00    +0.212 HD
ENDBRANCH  30  42
ENDBRANCH  26  27
ENDBRANCH  25  26
ENDBRANCH   4  25
TORSDOF 10
