REMARK  Name = ZINC05808993
REMARK  13 active torsions:
REMARK  status: ('A' for Active; 'I' for Inactive)
REMARK    1  A    between atoms: C_1  and  C_2
REMARK    2  A    between atoms: C_11  and  C_12
REMARK    3  A    between atoms: C_11  and  O_37
REMARK    4  A    between atoms: C_12  and  C_14
REMARK    5  A    between atoms: C_12  and  C_22
REMARK    6  A    between atoms: C_17  and  O_20
REMARK    7  A    between atoms: O_20  and  C_21
REMARK    8  A    between atoms: C_22  and  C_29
REMARK    9  A    between atoms: N_23  and  N_24
REMARK   10  A    between atoms: C_25  and  O_27
REMARK   11  A    between atoms: O_27  and  C_28
REMARK   12  A    between atoms: C_32  and  O_35
REMARK   13  A    between atoms: O_35  and  C_36
REMARK                            x       y       z     vdW  Elec       q    Type
REMARK                         _______ _______ _______ _____ _____    ______ ____
ROOT
ATOM      1  C   UNL     1       2.104   5.582  -0.065  0.00  0.00    +0.115 C 
ENDROOT
BRANCH   1  12
ATOM      2  C   UNL     1       7.355   7.310  -1.859  0.00  0.00    +0.046 C 
ATOM      3  C   UNL     1       6.345   6.193  -1.813  0.00  0.00    -0.027 A 
ATOM      4  C   UNL     1       6.758   4.884  -1.955  0.00  0.00    +0.025 A 
ATOM      5  C   UNL     1       5.838   3.852  -1.915  0.00  0.00    +0.042 A 
ATOM      6  C   UNL     1       4.494   4.134  -1.730  0.00  0.00    +0.028 A 
ATOM      7  C   UNL     1       4.079   5.436  -1.590  0.00  0.00    +0.017 A 
ATOM      8  C   UNL     1       4.995   6.484  -1.627  0.00  0.00    +0.043 A 
ATOM      9  N   UNL     1       4.339   7.705  -1.461  0.00  0.00    -0.282 N 
ATOM     10  C   UNL     1       3.013   7.553  -1.308  0.00  0.00    +0.255 C 
ATOM     11  O   UNL     1       2.200   8.439  -1.147  0.00  0.00    -0.272 OA
ATOM     12  C   UNL     1       2.723   6.069  -1.377  0.00  0.00    +0.181 C 
ATOM     13 CL   UNL     1       6.366   2.208  -2.094  0.00  0.00    -0.084 Cl
ATOM     14  H   UNL     1       4.789   8.564  -1.456  0.00  0.00    +0.155 HD
BRANCH  12  15
ATOM     15  O   UNL     1       1.857   5.778  -2.476  0.00  0.00    -0.374 OA
ATOM     16  H   UNL     1       2.199   6.065  -3.333  0.00  0.00    +0.211 HD
ENDBRANCH  12  15
ENDBRANCH   1  12
BRANCH   1  17
ATOM     17  C   UNL     1       0.903   6.429   0.268  0.00  0.00    -0.035 A 
ATOM     18  C   UNL     1      -0.165   6.488  -0.609  0.00  0.00    +0.008 A 
ATOM     19  C   UNL     1      -1.269   7.259  -0.304  0.00  0.00    +0.046 A 
ATOM     20  C   UNL     1      -1.303   7.983   0.879  0.00  0.00    +0.120 A 
ATOM     21  C   UNL     1      -0.228   7.926   1.755  0.00  0.00    +0.046 A 
ATOM     22  C   UNL     1       0.872   7.149   1.448  0.00  0.00    +0.008 A 
BRANCH  20  23
ATOM     23  O   UNL     1      -2.386   8.746   1.180  0.00  0.00    -0.495 OA
ATOM     24  C   UNL     1      -3.455   8.757   0.232  0.00  0.00    +0.277 C 
ENDBRANCH  20  23
ENDBRANCH   1  17
BRANCH   1  25
ATOM     25  C   UNL     1       1.679   4.144  -0.213  0.00  0.00    +0.077 C 
ATOM     26  N   UNL     1       1.795   3.548  -1.360  0.00  0.00    -0.181 NA
BRANCH  25  27
ATOM     27  C   UNL     1       1.133   3.414   0.946  0.00  0.00    -0.001 A 
ATOM     28  C   UNL     1       1.734   3.541   2.201  0.00  0.00    +0.013 A 
ATOM     29  C   UNL     1       1.216   2.860   3.282  0.00  0.00    +0.046 A 
ATOM     30  C   UNL     1       0.106   2.041   3.123  0.00  0.00    +0.120 A 
ATOM     31  C   UNL     1      -0.491   1.907   1.876  0.00  0.00    +0.046 A 
ATOM     32  C   UNL     1       0.017   2.588   0.790  0.00  0.00    +0.013 A 
BRANCH  30  33
ATOM     33  O   UNL     1      -0.397   1.367   4.190  0.00  0.00    -0.495 OA
ATOM     34  C   UNL     1       0.195   1.634   5.463  0.00  0.00    +0.277 C 
ENDBRANCH  30  33
ENDBRANCH  25  27
BRANCH  26  35
ATOM     35  N   UNL     1       1.539   2.175  -1.464  0.00  0.00    -0.172 N 
ATOM     36  C   UNL     1       1.692   1.549  -2.648  0.00  0.00    +0.420 C 
ATOM     37  O   UNL     1       1.470   0.357  -2.739  0.00  0.00    -0.225 OA
ATOM     38  H   UNL     1       1.251   1.674  -0.685  0.00  0.00    +0.181 HD
BRANCH  36  39
ATOM     39  O   UNL     1       2.098   2.243  -3.729  0.00  0.00    -0.453 OA
ATOM     40  C   UNL     1       2.248   1.502  -4.969  0.00  0.00    +0.282 C 
ENDBRANCH  36  39
ENDBRANCH  26  35
ENDBRANCH   1  25
TORSDOF 9
