REMARK  Name = ZINC22509172
REMARK  10 active torsions:
REMARK  status: ('A' for Active; 'I' for Inactive)
REMARK    1  A    between atoms: C_1  and  C_2
REMARK    2  A    between atoms: C_4  and  C_27
REMARK    3  A    between atoms: N_8  and  N_9
REMARK    4  A    between atoms: C_10  and  C_12
REMARK    5  A    between atoms: C_13  and  C_26
REMARK    6  A    between atoms: C_15  and  C_25
REMARK    7  A    between atoms: C_17  and  C_21
REMARK    8  A    between atoms: C_21  and  C_22
REMARK    9  A    between atoms: C_21  and  C_23
REMARK   10  A    between atoms: C_21  and  C_24
REMARK                            x       y       z     vdW  Elec       q    Type
REMARK                         _______ _______ _______ _____ _____    ______ ____
ROOT
ATOM      1  C   UNL     1       3.413  -2.172  -0.244  0.00  0.00    +0.081 A 
ATOM      2  C   UNL     1       3.549  -0.823  -0.344  0.00  0.00    -0.020 A 
ATOM      3  C   UNL     1       2.407  -0.009  -0.409  0.00  0.00    +0.032 A 
ATOM      4  C   UNL     1       2.314   1.401  -0.515  0.00  0.00    +0.050 A 
ATOM      5  N   UNL     1       1.128   1.967  -0.562  0.00  0.00    -0.236 NA
ATOM      6  C   UNL     1       0.006   1.268  -0.514  0.00  0.00    +0.136 A 
ATOM      7  N   UNL     1       0.021  -0.047  -0.416  0.00  0.00    -0.224 NA
ATOM      8  C   UNL     1       1.164  -0.695  -0.363  0.00  0.00    +0.113 A 
ATOM      9  S   UNL     1       1.643  -2.398  -0.234  0.00  0.00    -0.064 S 
ATOM     10  C   UNL     1       3.562   2.244  -0.573  0.00  0.00    +0.066 C 
ATOM     11  C   UNL     1       4.922  -0.203  -0.384  0.00  0.00    +0.046 C 
ENDROOT
BRANCH   1  13
ATOM     12  N   UNL     1       4.135  -4.497  -0.067  0.00  0.00    -0.230 N 
ATOM     13  C   UNL     1       4.466  -3.195  -0.163  0.00  0.00    +0.267 C 
ATOM     14  O   UNL     1       5.637  -2.864  -0.182  0.00  0.00    -0.268 OA
ATOM     15  H   UNL     1       3.077  -4.796  -0.050  0.00  0.00    +0.173 HD
BRANCH  12  23
ATOM     16  C   UNL     1       1.702  -8.802   0.244  0.00  0.00    +0.066 C 
ATOM     17  C   UNL     1       3.160  -8.421   0.222  0.00  0.00    +0.044 A 
ATOM     18  C   UNL     1       4.141  -9.398   0.299  0.00  0.00    +0.046 A 
ATOM     19  C   UNL     1       5.470  -9.005   0.275  0.00  0.00    +0.044 A 
ATOM     20  N   UNL     1       5.761  -7.718   0.180  0.00  0.00    -0.219 NA
ATOM     21  C   UNL     1       4.799  -6.810   0.108  0.00  0.00    +0.232 A 
ATOM     22  N   UNL     1       3.519  -7.151   0.134  0.00  0.00    -0.219 NA
ATOM     23  N   UNL     1       5.139  -5.472   0.010  0.00  0.00    -0.232 N 
ATOM     24  C   UNL     1       6.570 -10.031   0.356  0.00  0.00    +0.066 C 
ATOM     25  H   UNL     1       6.198  -5.173  -0.008  0.00  0.00    +0.173 HD
ENDBRANCH  12  23
ENDBRANCH   1  13
BRANCH   6  26
ATOM     26  C   UNL     1      -1.315   1.989  -0.580  0.00  0.00    +0.022 C 
ATOM     27  C   UNL     1      -2.455   0.971  -0.514  0.00  0.00    +0.019 C 
ATOM     28  C   UNL     1      -1.428   2.957   0.600  0.00  0.00    +0.019 C 
ATOM     29  C   UNL     1      -1.405   2.771  -1.892  0.00  0.00    +0.019 C 
ENDBRANCH   6  26
TORSDOF 3
