REMARK  Name = ZINC32948213
REMARK  7 active torsions:
REMARK  status: ('A' for Active; 'I' for Inactive)
REMARK    1  A    between atoms: C_1  and  C_2
REMARK    2  A    between atoms: C_2  and  O_3
REMARK    3  A    between atoms: O_3  and  C_4
REMARK    4  A    between atoms: C_7  and  N_10
REMARK    5  A    between atoms: C_17  and  S_19
REMARK    6  A    between atoms: S_19  and  C_20
REMARK    7  A    between atoms: C_20  and  C_21
REMARK                            x       y       z     vdW  Elec       q    Type
REMARK                         _______ _______ _______ _____ _____    ______ ____
ROOT
ATOM      1  N   UNL     1       2.220   0.769  -0.015  0.00  0.00    -0.282 N 
ATOM      2  C   UNL     1       1.366  -0.304  -0.013  0.00  0.00    +0.161 A 
ATOM      3  C   UNL     1       0.002  -0.004   0.002  0.00  0.00    +0.122 A 
ATOM      4  C   UNL     1      -0.968  -0.997   0.006  0.00  0.00    +0.268 A 
ATOM      5  O   UNL     1      -2.155  -0.714   0.019  0.00  0.00    -0.267 OA
ATOM      6  N   UNL     1      -0.562  -2.290  -0.006  0.00  0.00    -0.301 N 
ATOM      7  H   UNL     1      -1.306  -3.100  -0.003  0.00  0.00    +0.171 HD
ATOM      8  C   UNL     1       0.774  -2.561  -0.020  0.00  0.00    +0.171 A 
ATOM      9  N   UNL     1       1.687  -1.622  -0.023  0.00  0.00    -0.204 NA
ATOM     10  S   UNL     1      -0.022   1.770   0.012  0.00  0.00    -0.055 S 
ATOM     11  C   UNL     1       1.745   2.032  -0.004  0.00  0.00    +0.132 A 
ATOM     12  S   UNL     1       2.614   3.507  -0.004  0.00  0.00    -0.024 S 
ENDROOT
BRANCH   1  16
ATOM     13  C   UNL     1       6.341   0.121  -0.058  0.00  0.00    +0.121 A 
ATOM     14  C   UNL     1       5.724   0.737  -1.138  0.00  0.00    +0.047 A 
ATOM     15  C   UNL     1       4.360   0.951  -1.124  0.00  0.00    +0.030 A 
ATOM     16  C   UNL     1       3.606   0.552  -0.029  0.00  0.00    +0.050 A 
ATOM     17  C   UNL     1       4.224  -0.059   1.053  0.00  0.00    +0.030 A 
ATOM     18  C   UNL     1       5.587  -0.278   1.036  0.00  0.00    +0.047 A 
BRANCH  13  19
ATOM     19  O   UNL     1       7.684  -0.090  -0.072  0.00  0.00    -0.492 OA
BRANCH  19  21
ATOM     20  C   UNL     1       9.762  -0.879   0.877  0.00  0.00    +0.048 C 
ATOM     21  C   UNL     1       8.252  -0.728   1.073  0.00  0.00    +0.225 C 
ENDBRANCH  19  21
ENDBRANCH  13  19
ENDBRANCH   1  16
BRANCH   8  22
ATOM     22  S   UNL     1       1.294  -4.244  -0.034  0.00  0.00    -0.083 S 
BRANCH  22  23
ATOM     23  C   UNL     1       3.090  -4.018  -0.050  0.00  0.00    +0.112 C 
BRANCH  23  24
ATOM     24  C   UNL     1       3.766  -5.365  -0.063  0.00  0.00    -0.037 A 
ATOM     25  C   UNL     1       4.092  -5.986   1.128  0.00  0.00    +0.006 A 
ATOM     26  C   UNL     1       4.707  -7.224   1.116  0.00  0.00    +0.020 A 
ATOM     27  C   UNL     1       5.006  -7.836  -0.088  0.00  0.00    +0.041 A 
ATOM     28  C   UNL     1       4.684  -7.212  -1.280  0.00  0.00    +0.020 A 
ATOM     29  C   UNL     1       4.064  -5.976  -1.267  0.00  0.00    +0.006 A 
ATOM     30 CL   UNL     1       5.784  -9.388  -0.104  0.00  0.00    -0.084 Cl
ENDBRANCH  23  24
ENDBRANCH  22  23
ENDBRANCH   8  22
TORSDOF 6
