REMARK  Name = ZINC19568197
REMARK  7 active torsions:
REMARK  status: ('A' for Active; 'I' for Inactive)
REMARK    1  A    between atoms: C_1  and  C_2
REMARK    2  A    between atoms: C_4  and  C_39
REMARK    3  A    between atoms: C_9  and  C_14
REMARK    4  A    between atoms: C_14  and  C_16
REMARK    5  A    between atoms: C_14  and  N_29
REMARK    6  A    between atoms: N_20  and  C_21
REMARK    7  A    between atoms: C_21  and  C_22
REMARK                            x       y       z     vdW  Elec       q    Type
REMARK                         _______ _______ _______ _____ _____    ______ ____
ROOT
ATOM      1  C   UNL     1       0.002  -0.004   0.002  0.00  0.00    +0.163 C 
ENDROOT
BRANCH   1  10
ATOM      2  C   UNL     1       3.163   6.715  -0.691  0.00  0.00    +0.044 C 
ATOM      3  C   UNL     1       1.939   5.840  -0.619  0.00  0.00    -0.050 A 
ATOM      4  C   UNL     1       0.677   6.412  -0.713  0.00  0.00    +0.008 A 
ATOM      5  C   UNL     1      -0.456   5.631  -0.650  0.00  0.00    -0.026 A 
ATOM      6  C   UNL     1      -0.338   4.255  -0.491  0.00  0.00    +0.052 A 
ATOM      7  C   UNL     1       0.942   3.678  -0.395  0.00  0.00    -0.001 A 
ATOM      8  C   UNL     1       2.079   4.490  -0.461  0.00  0.00    +0.013 A 
ATOM      9  C   UNL     1       1.057   2.228  -0.227  0.00  0.00    +0.021 A 
ATOM     10  C   UNL     1      -0.080   1.491  -0.170  0.00  0.00    +0.042 A 
ATOM     11  C   UNL     1      -1.340   2.118  -0.276  0.00  0.00    +0.254 A 
ATOM     12  O   UNL     1      -2.349   1.436  -0.227  0.00  0.00    -0.268 OA
ATOM     13  N   UNL     1      -1.455   3.450  -0.424  0.00  0.00    -0.322 N 
ATOM     14  H   UNL     1      -2.459   3.895  -0.493  0.00  0.00    +0.169 HD
ATOM     15  C   UNL     1      -1.819   6.267  -0.755  0.00  0.00    +0.046 C 
ENDBRANCH   1  10
BRANCH   1  16
ATOM     16  N   UNL     1      -0.807  -0.409   1.159  0.00  0.00    -0.284 NA
ATOM     17  C   UNL     1      -0.303   0.208   2.397  0.00  0.00    +0.090 C 
ATOM     18  C   UNL     1      -1.370   0.059   3.482  0.00  0.00    +0.051 C 
ATOM     19  C   UNL     1      -1.829  -1.374   3.560  0.00  0.00    -0.042 A 
ATOM     20  C   UNL     1      -2.516  -1.788   4.691  0.00  0.00    +0.004 A 
ATOM     21  C   UNL     1      -2.961  -3.091   4.798  0.00  0.00    +0.000 A 
ATOM     22  C   UNL     1      -2.720  -3.987   3.774  0.00  0.00    +0.000 A 
ATOM     23  C   UNL     1      -2.034  -3.576   2.649  0.00  0.00    +0.005 A 
ATOM     24  C   UNL     1      -1.585  -2.268   2.539  0.00  0.00    -0.030 A 
ATOM     25  C   UNL     1      -0.837  -1.869   1.295  0.00  0.00    +0.120 C 
ENDBRANCH   1  16
BRANCH   1  26
ATOM     26  C   UNL     1      -0.521  -0.682  -1.238  0.00  0.00    +0.173 A 
ATOM     27  N   UNL     1      -1.778  -0.840  -1.573  0.00  0.00    -0.111 NA
ATOM     28  N   UNL     1      -1.815  -1.465  -2.699  0.00  0.00    -0.023 NA
ATOM     29  N   UNL     1      -0.613  -1.709  -3.092  0.00  0.00    -0.044 NA
ATOM     30  N   UNL     1       0.213  -1.237  -2.221  0.00  0.00    -0.223 N 
BRANCH  30  31
ATOM     31  C   UNL     1       1.675  -1.297  -2.287  0.00  0.00    +0.182 C 
BRANCH  31  32
ATOM     32  C   UNL     1       2.157  -2.561  -1.622  0.00  0.00    -0.026 A 
ATOM     33  C   UNL     1       2.454  -2.561  -0.272  0.00  0.00    +0.008 A 
ATOM     34  C   UNL     1       2.890  -3.721   0.340  0.00  0.00    +0.038 A 
ATOM     35  C   UNL     1       3.041  -4.880  -0.402  0.00  0.00    +0.123 A 
ATOM     36  C   UNL     1       2.748  -4.877  -1.756  0.00  0.00    +0.038 A 
ATOM     37  C   UNL     1       2.306  -3.718  -2.364  0.00  0.00    +0.008 A 
ATOM     38  F   UNL     1       3.472  -6.013   0.194  0.00  0.00    -0.205 F 
ENDBRANCH  31  32
ENDBRANCH  30  31
ENDBRANCH   1  26
TORSDOF 5
