REMARK  Name = ZINC08695581
REMARK  12 active torsions:
REMARK  status: ('A' for Active; 'I' for Inactive)
REMARK    1  A    between atoms: C_1  and  C_2
REMARK    2  A    between atoms: C_2  and  C_3
REMARK    3  A    between atoms: C_3  and  C_5
REMARK    4  A    between atoms: C_3  and  O_6
REMARK    5  A    between atoms: O_6  and  C_7
REMARK    6  A    between atoms: C_12  and  C_13
REMARK    7  A    between atoms: C_18  and  C_23
REMARK    8  A    between atoms: C_26  and  O_31
REMARK    9  A    between atoms: C_27  and  O_29
REMARK   10  A    between atoms: O_29  and  C_30
REMARK   11  A    between atoms: O_31  and  C_32
REMARK   12  A    between atoms: C_41  and  C_43
REMARK                            x       y       z     vdW  Elec       q    Type
REMARK                         _______ _______ _______ _____ _____    ______ ____
ROOT
ATOM      1  C   UNL     1      -0.016   1.433   0.005  0.00  0.00    +0.150 C 
ATOM      2  C   UNL     1       1.276   2.208   0.093  0.00  0.00    +0.037 C 
ATOM      3  C   UNL     1       2.508   1.716  -0.132  0.00  0.00    +0.017 C 
ATOM      4  C   UNL     1       3.731   2.606   0.007  0.00  0.00    +0.059 C 
ATOM      5  C   UNL     1       3.378   4.042  -0.375  0.00  0.00    +0.032 C 
ATOM      6  C   UNL     1       2.263   4.515   0.565  0.00  0.00    +0.088 C 
ATOM      7  C   UNL     1       1.107   3.567   0.447  0.00  0.00    +0.163 C 
ATOM      8  O   UNL     1      -0.015   3.981   0.662  0.00  0.00    -0.292 OA
ATOM      9  N   UNL     1       2.775   0.429  -0.472  0.00  0.00    -0.316 N 
ATOM     10  C   UNL     1       2.098  -0.294  -1.446  0.00  0.00    +0.053 A 
ATOM     11  C   UNL     1       2.729  -0.785  -2.575  0.00  0.00    +0.025 A 
ATOM     12  C   UNL     1       2.024  -1.598  -3.447  0.00  0.00    +0.002 A 
ATOM     13  C   UNL     1       0.702  -1.914  -3.191  0.00  0.00    +0.002 A 
ATOM     14  C   UNL     1       0.064  -1.405  -2.074  0.00  0.00    +0.025 A 
ATOM     15  C   UNL     1       0.761  -0.577  -1.209  0.00  0.00    +0.058 A 
ATOM     16  N   UNL     1       0.147  -0.001  -0.096  0.00  0.00    -0.258 N 
ATOM     17  C   UNL     1      -0.300  -0.792   0.899  0.00  0.00    +0.218 C 
ATOM     18  O   UNL     1      -0.835  -0.301   1.871  0.00  0.00    -0.276 OA
ATOM     19  C   UNL     1      -0.135  -2.288   0.805  0.00  0.00    +0.110 C 
ATOM     20  H   UNL     1       3.493  -0.020   0.001  0.00  0.00    +0.152 HD
ENDROOT
BRANCH   1  26
ATOM     21  C   UNL     1      -2.152   1.734  -1.273  0.00  0.00    +0.126 A 
ATOM     22  C   UNL     1      -2.851   2.178  -2.387  0.00  0.00    +0.046 A 
ATOM     23  C   UNL     1      -2.178   2.795  -3.423  0.00  0.00    +0.004 A 
ATOM     24  C   UNL     1      -0.808   2.971  -3.351  0.00  0.00    +0.001 A 
ATOM     25  C   UNL     1      -0.110   2.535  -2.240  0.00  0.00    +0.009 A 
ATOM     26  C   UNL     1      -0.778   1.913  -1.204  0.00  0.00    +0.020 A 
BRANCH  21  27
ATOM     27  O   UNL     1      -2.812   1.127  -0.253  0.00  0.00    -0.489 OA
BRANCH  27  28
ATOM     28  C   UNL     1      -4.206   0.873  -0.442  0.00  0.00    +0.170 C 
ATOM     29  C   UNL     1      -5.008   2.119  -0.061  0.00  0.00    +0.052 C 
BRANCH  28  31
ATOM     30  C   UNL     1      -3.925  -1.574  -0.021  0.00  0.00    +0.007 C 
ATOM     31  C   UNL     1      -4.635  -0.300   0.442  0.00  0.00    +0.041 C 
ENDBRANCH  28  31
ENDBRANCH  27  28
ENDBRANCH  21  27
ENDBRANCH   1  26
BRANCH   5  32
ATOM     32  C   UNL     1       4.589   4.925  -0.217  0.00  0.00    -0.040 A 
ATOM     33  C   UNL     1       5.193   5.052   1.020  0.00  0.00    +0.008 A 
ATOM     34  C   UNL     1       6.305   5.860   1.171  0.00  0.00    +0.049 A 
ATOM     35  C   UNL     1       6.816   6.545   0.080  0.00  0.00    +0.161 A 
ATOM     36  C   UNL     1       6.207   6.418  -1.165  0.00  0.00    +0.162 A 
ATOM     37  C   UNL     1       5.097   5.602  -1.310  0.00  0.00    +0.053 A 
BRANCH  36  38
ATOM     38  O   UNL     1       6.705   7.089  -2.238  0.00  0.00    -0.491 OA
ATOM     39  C   UNL     1       6.029   6.911  -3.485  0.00  0.00    +0.277 C 
ENDBRANCH  36  38
BRANCH  35  40
ATOM     40  O   UNL     1       7.909   7.340   0.226  0.00  0.00    -0.491 OA
ATOM     41  C   UNL     1       8.482   7.422   1.533  0.00  0.00    +0.277 C 
ENDBRANCH  35  40
ENDBRANCH   5  32
TORSDOF 7
