REMARK  Name = ZINC15817099
REMARK  11 active torsions:
REMARK  status: ('A' for Active; 'I' for Inactive)
REMARK    1  A    between atoms: C_1  and  C_2
REMARK    2  A    between atoms: C_6  and  N_9
REMARK    3  A    between atoms: C_7  and  C_8
REMARK    4  A    between atoms: C_13  and  S_15
REMARK    5  A    between atoms: S_15  and  C_16
REMARK    6  A    between atoms: C_16  and  C_18
REMARK    7  A    between atoms: C_16  and  C_19
REMARK    8  A    between atoms: N_24  and  C_25
REMARK    9  A    between atoms: C_25  and  C_26
REMARK   10  A    between atoms: C_25  and  C_27
REMARK   11  A    between atoms: C_25  and  C_28
REMARK                            x       y       z     vdW  Elec       q    Type
REMARK                         _______ _______ _______ _____ _____    ______ ____
ROOT
ATOM      1  N   UNL     1       3.583   2.122  -0.020  0.00  0.00    -0.292 N 
ATOM      2  C   UNL     1       3.567   3.509  -0.117  0.00  0.00    +0.187 A 
ATOM      3  N   UNL     1       2.538   4.334  -0.128  0.00  0.00    -0.125 NA
ATOM      4  N   UNL     1       2.749   5.690  -0.230  0.00  0.00    -0.133 NA
ATOM      5  C   UNL     1       3.980   6.157  -0.327  0.00  0.00    +0.161 A 
ATOM      6  S   UNL     1       4.934   4.648  -0.269  0.00  0.00    -0.024 S 
ATOM      7  H   UNL     1       4.418   1.639  -0.114  0.00  0.00    +0.154 HD
ENDROOT
BRANCH   1  13
ATOM      8  C   UNL     1       1.177  -2.153   0.287  0.00  0.00    +0.044 C 
ATOM      9  C   UNL     1       1.199  -0.648   0.369  0.00  0.00    -0.046 A 
ATOM     10  C   UNL     1       0.042   0.044   0.678  0.00  0.00    +0.004 A 
ATOM     11  C   UNL     1       0.058   1.424   0.755  0.00  0.00    +0.002 A 
ATOM     12  C   UNL     1       1.231   2.117   0.524  0.00  0.00    +0.023 A 
ATOM     13  C   UNL     1       2.395   1.425   0.214  0.00  0.00    +0.036 A 
ATOM     14  C   UNL     1       2.375   0.037   0.138  0.00  0.00    -0.026 A 
ATOM     15  C   UNL     1       3.635  -0.718  -0.198  0.00  0.00    +0.046 C 
ENDBRANCH   1  13
BRANCH   5  16
ATOM     16  S   UNL     1       4.533   7.824  -0.473  0.00  0.00    -0.084 S 
BRANCH  16  17
ATOM     17  C   UNL     1       3.002   8.797  -0.463  0.00  0.00    +0.136 C 
ATOM     18  C   UNL     1       2.179   8.466  -1.710  0.00  0.00    +0.029 C 
BRANCH  17  19
ATOM     19  C   UNL     1       3.340  10.265  -0.460  0.00  0.00    +0.233 C 
ATOM     20  O   UNL     1       4.402  10.644  -0.907  0.00  0.00    -0.274 OA
ATOM     21  N   UNL     1       2.463  11.158   0.040  0.00  0.00    -0.239 N 
ATOM     22  C   UNL     1       2.765  12.471   0.042  0.00  0.00    +0.306 C 
ATOM     23  O   UNL     1       3.829  12.851  -0.406  0.00  0.00    -0.252 OA
ATOM     24  N   UNL     1       1.888  13.364   0.542  0.00  0.00    -0.294 N 
ATOM     25  H   UNL     1       1.614  10.855   0.397  0.00  0.00    +0.159 HD
ATOM     26  H   UNL     1       1.039  13.061   0.900  0.00  0.00    +0.151 HD
BRANCH  24  27
ATOM     27  C   UNL     1       2.217  14.791   0.545  0.00  0.00    +0.028 C 
ATOM     28  C   UNL     1       2.447  15.265  -0.891  0.00  0.00    +0.031 C 
ATOM     29  C   UNL     1       1.060  15.580   1.162  0.00  0.00    +0.031 C 
ATOM     30  C   UNL     1       3.486  15.021   1.368  0.00  0.00    +0.031 C 
ENDBRANCH  24  27
ENDBRANCH  17  19
ENDBRANCH  16  17
ENDBRANCH   5  16
TORSDOF 5
