REMARK  Name = ZINC35870275
REMARK  5 active torsions:
REMARK  status: ('A' for Active; 'I' for Inactive)
REMARK    1  A    between atoms: C_3  and  C_6
REMARK    2  A    between atoms: C_6  and  N_7
REMARK    3  A    between atoms: C_8  and  C_10
REMARK    4  A    between atoms: C_15  and  N_33
REMARK    5  A    between atoms: N_23  and  C_26
REMARK                            x       y       z     vdW  Elec       q    Type
REMARK                         _______ _______ _______ _____ _____    ______ ____
ROOT
ATOM      1  C   UNL     1       5.932   0.582   2.996  0.00  0.00    +0.101 C 
ATOM      2  C   UNL     1       5.387  -0.656   3.708  0.00  0.00    +0.051 C 
ATOM      3  C   UNL     1       5.983  -0.719   5.091  0.00  0.00    -0.023 A 
ATOM      4  C   UNL     1       5.270  -1.317   6.114  0.00  0.00    +0.038 A 
ATOM      5  C   UNL     1       5.803  -1.371   7.388  0.00  0.00    +0.127 A 
ATOM      6  C   UNL     1       7.048  -0.827   7.643  0.00  0.00    +0.034 A 
ATOM      7  C   UNL     1       7.764  -0.232   6.624  0.00  0.00    +0.025 A 
ATOM      8  C   UNL     1       7.232  -0.182   5.338  0.00  0.00    +0.033 A 
ATOM      9  N   UNL     1       7.998   0.406   4.316  0.00  0.00    -0.323 N 
ATOM     10  C   UNL     1       7.463   0.538   2.973  0.00  0.00    +0.103 C 
ATOM     11  C   UNL     1       7.965   1.773   2.243  0.00  0.00    +0.128 C 
ATOM     12  N   UNL     1       9.318   2.139   2.612  0.00  0.00    -0.327 N 
ATOM     13  C   UNL     1       9.797   2.083   3.983  0.00  0.00    +0.124 C 
ATOM     14  C   UNL     1       9.357   0.812   4.672  0.00  0.00    +0.124 C 
ENDROOT
BRANCH  12  15
ATOM     15  C   UNL     1      10.197   2.562   1.611  0.00  0.00    +0.030 A 
ATOM     16  C   UNL     1       9.806   2.520   0.279  0.00  0.00    +0.024 A 
ATOM     17  C   UNL     1      10.675   2.940  -0.709  0.00  0.00    +0.022 A 
ATOM     18  C   UNL     1      11.936   3.401  -0.372  0.00  0.00    +0.041 A 
ATOM     19  C   UNL     1      12.328   3.445   0.955  0.00  0.00    +0.022 A 
ATOM     20  C   UNL     1      11.460   3.032   1.947  0.00  0.00    +0.024 A 
ATOM     21 CL   UNL     1      13.027   3.927  -1.615  0.00  0.00    -0.084 Cl
ENDBRANCH  12  15
BRANCH   1  23
ATOM     22  N   UNL     1       4.083   0.661   1.355  0.00  0.00    -0.308 N 
ATOM     23  C   UNL     1       5.411   0.616   1.583  0.00  0.00    +0.219 C 
ATOM     24  O   UNL     1       6.186   0.603   0.650  0.00  0.00    -0.275 OA
ATOM     25  H   UNL     1       3.463   0.672   2.100  0.00  0.00    +0.149 HD
BRANCH  22  26
ATOM     26  C   UNL     1       3.576   0.694  -0.020  0.00  0.00    +0.178 C 
BRANCH  26  29
ATOM     27  C   UNL     1      -0.032   1.441   0.038  0.00  0.00    +0.041 A 
ATOM     28  C   UNL     1       1.319   1.857   0.025  0.00  0.00    +0.046 A 
ATOM     29  C   UNL     1       2.070   0.742   0.001  0.00  0.00    +0.122 A 
ATOM     30  O   UNL     1       1.251  -0.322  -0.002  0.00  0.00    -0.466 OA
ATOM     31  C   UNL     1      -0.025   0.096   0.020  0.00  0.00    +0.195 A 
ENDBRANCH  26  29
ENDBRANCH  22  26
ENDBRANCH   1  23
BRANCH   5  32
ATOM     32  N   UNL     1       5.039  -2.013   8.482  0.00  0.00    +0.056 N 
ATOM     33  O   UNL     1       3.950  -2.489   8.260  0.00  0.00    -0.126 OA
ATOM     34  O   UNL     1       5.504  -2.061   9.596  0.00  0.00    -0.126 OA
ENDBRANCH   5  32
TORSDOF 5
