REMARK  Name = ZINC59513360
REMARK  11 active torsions:
REMARK  status: ('A' for Active; 'I' for Inactive)
REMARK    1  A    between atoms: C_1  and  C_2
REMARK    2  A    between atoms: C_2  and  C_3
REMARK    3  A    between atoms: C_3  and  C_5
REMARK    4  A    between atoms: C_3  and  S_17
REMARK    5  A    between atoms: N_7  and  C_8
REMARK    6  A    between atoms: C_8  and  C_10
REMARK    7  A    between atoms: C_8  and  C_11
REMARK    8  A    between atoms: S_17  and  C_18
REMARK    9  A    between atoms: C_20  and  N_32
REMARK   10  A    between atoms: N_24  and  C_25
REMARK   11  A    between atoms: C_29  and  C_31
REMARK                            x       y       z     vdW  Elec       q    Type
REMARK                         _______ _______ _______ _____ _____    ______ ____
ROOT
ATOM      1  C   UNL     1       2.803   0.040  -3.255  0.00  0.00    +0.179 A 
ATOM      2  N   UNL     1       1.923  -0.465  -4.096  0.00  0.00    -0.208 NA
ATOM      3  C   UNL     1       2.308  -1.233  -5.121  0.00  0.00    +0.124 A 
ATOM      4  C   UNL     1       3.655  -1.509  -5.308  0.00  0.00    +0.114 A 
ATOM      5  C   UNL     1       4.583  -0.971  -4.412  0.00  0.00    +0.261 A 
ATOM      6  O   UNL     1       5.776  -1.192  -4.546  0.00  0.00    -0.267 OA
ATOM      7  N   UNL     1       4.138  -0.198  -3.399  0.00  0.00    -0.256 N 
ENDROOT
BRANCH   7   8
ATOM      8  C   UNL     1       5.050   0.357  -2.491  0.00  0.00    +0.052 A 
ATOM      9  C   UNL     1       5.459  -0.372  -1.382  0.00  0.00    +0.026 A 
ATOM     10  C   UNL     1       6.357   0.177  -0.489  0.00  0.00    +0.002 A 
ATOM     11  C   UNL     1       6.850   1.453  -0.698  0.00  0.00    +0.003 A 
ATOM     12  C   UNL     1       6.445   2.181  -1.801  0.00  0.00    -0.048 A 
ATOM     13  C   UNL     1       5.550   1.635  -2.701  0.00  0.00    +0.029 A 
ATOM     14  C   UNL     1       6.983   3.571  -2.025  0.00  0.00    +0.044 C 
ENDBRANCH   7   8
BRANCH   3  15
ATOM     15  N   UNL     1       1.367  -1.751  -5.989  0.00  0.00    -0.343 N 
ATOM     16  H   UNL     1       0.426  -1.557  -5.856  0.00  0.00    +0.144 HD
ATOM     17  H   UNL     1       1.648  -2.308  -6.732  0.00  0.00    +0.144 HD
ENDBRANCH   3  15
BRANCH   1  18
ATOM     18  S   UNL     1       2.244   1.047  -1.921  0.00  0.00    -0.074 S 
BRANCH  18  19
ATOM     19  C   UNL     1       0.435   0.962  -2.035  0.00  0.00    +0.140 C 
BRANCH  19  20
ATOM     20  C   UNL     1      -0.020  -0.447  -1.752  0.00  0.00    +0.227 C 
ATOM     21  O   UNL     1       0.669  -1.183  -1.079  0.00  0.00    -0.275 OA
ATOM     22  N   UNL     1      -1.194  -0.887  -2.246  0.00  0.00    -0.308 N 
ATOM     23  H   UNL     1      -1.746  -0.298  -2.784  0.00  0.00    +0.149 HD
BRANCH  22  24
ATOM     24  C   UNL     1      -1.637  -2.256  -1.971  0.00  0.00    +0.100 C 
ATOM     25  C   UNL     1      -1.016  -3.209  -2.995  0.00  0.00    +0.033 C 
BRANCH  24  26
ATOM     26  C   UNL     1      -3.139  -2.327  -2.066  0.00  0.00    -0.027 A 
ATOM     27  C   UNL     1      -3.802  -1.638  -3.064  0.00  0.00    +0.005 A 
ATOM     28  C   UNL     1      -5.180  -1.703  -3.151  0.00  0.00    +0.000 A 
ATOM     29  C   UNL     1      -5.896  -2.456  -2.240  0.00  0.00    +0.000 A 
ATOM     30  C   UNL     1      -5.233  -3.146  -1.241  0.00  0.00    +0.000 A 
ATOM     31  C   UNL     1      -3.854  -3.084  -1.157  0.00  0.00    +0.005 A 
ENDBRANCH  24  26
ENDBRANCH  22  24
ENDBRANCH  19  20
BRANCH  19  33
ATOM     32  C   UNL     1       0.159   3.358  -1.383  0.00  0.00    +0.005 C 
ATOM     33  C   UNL     1      -0.185   1.914  -1.012  0.00  0.00    +0.020 C 
ENDBRANCH  19  33
ENDBRANCH  18  19
ENDBRANCH   1  18
TORSDOF 8
