REMARK  Name = ZINC27604718
REMARK  6 active torsions:
REMARK  status: ('A' for Active; 'I' for Inactive)
REMARK    1  A    between atoms: C_3  and  C_6
REMARK    2  A    between atoms: C_6  and  C_8
REMARK    3  A    between atoms: C_6  and  N_20
REMARK    4  A    between atoms: C_8  and  N_9
REMARK    5  A    between atoms: C_10  and  C_12
REMARK    6  A    between atoms: C_17  and  O_18
REMARK                            x       y       z     vdW  Elec       q    Type
REMARK                         _______ _______ _______ _____ _____    ______ ____
ROOT
ATOM      1  C   UNL     1       2.961  -2.189   1.322  0.00  0.00    +0.094 C 
ENDROOT
BRANCH   1   2
ATOM      2  N   UNL     1       3.858  -3.322   1.078  0.00  0.00    -0.312 N 
ATOM      3  C   UNL     1       4.402  -3.986   2.116  0.00  0.00    +0.248 C 
ATOM      4  O   UNL     1       4.149  -3.646   3.256  0.00  0.00    -0.270 OA
ATOM      5  H   UNL     1       4.087  -3.630   0.047  0.00  0.00    +0.149 HD
BRANCH   3   6
ATOM      6  C   UNL     1       5.305  -5.127   1.871  0.00  0.00    +0.079 A 
ATOM      7  C   UNL     1       5.599  -5.521   0.563  0.00  0.00    +0.032 A 
ATOM      8  C   UNL     1       6.444  -6.588   0.341  0.00  0.00    +0.019 A 
ATOM      9  C   UNL     1       7.004  -7.270   1.409  0.00  0.00    +0.019 A 
ATOM     10  C   UNL     1       6.722  -6.890   2.706  0.00  0.00    +0.047 A 
ATOM     11  C   UNL     1       5.878  -5.816   2.948  0.00  0.00    +0.129 A 
ATOM     12 BR   UNL     1       6.840  -7.121  -1.430  0.00  0.00    -0.050 Br
BRANCH  11  13
ATOM     13  O   UNL     1       5.604  -5.439   4.222  0.00  0.00    -0.506 OA
ATOM     14  H   UNL     1       6.055  -5.982   5.065  0.00  0.00    +0.292 HD
ENDBRANCH  11  13
ENDBRANCH   3   6
ENDBRANCH   1   2
BRANCH   1  15
ATOM     15  C   UNL     1       2.366  -1.715  -0.006  0.00  0.00    -0.013 C 
BRANCH  15  16
ATOM     16  N   UNL     1       1.542  -2.785  -0.584  0.00  0.00    +0.386 N 
ATOM     17  C   UNL     1       0.732  -2.278  -1.720  0.00  0.00    -0.078 C 
ATOM     18  C   UNL     1       0.372  -3.566  -2.502  0.00  0.00    -0.020 C 
ATOM     19  C   UNL     1       1.659  -4.415  -2.380  0.00  0.00    -0.020 C 
ATOM     20  C   UNL     1       2.389  -3.862  -1.141  0.00  0.00    -0.078 C 
ATOM     21  H   UNL     1       0.910  -3.153   0.238  0.00  0.00    -0.081 HD
ENDBRANCH  15  16
BRANCH  15  24
ATOM     22  C   UNL     1       0.833   1.762   0.261  0.00  0.00    +0.008 A 
ATOM     23  C   UNL     1       1.776   0.801  -0.052  0.00  0.00    +0.009 A 
ATOM     24  C   UNL     1       1.511  -0.497   0.234  0.00  0.00    -0.022 A 
ATOM     25  S   UNL     1      -0.112  -0.390   0.969  0.00  0.00    -0.103 S 
ATOM     26  C   UNL     1      -0.329   1.378   0.845  0.00  0.00    +0.045 A 
ENDBRANCH  15  24
ENDBRANCH   1  15
TORSDOF 6
