REMARK  Name = ZINC44978367
REMARK  4 active torsions:
REMARK  status: ('A' for Active; 'I' for Inactive)
REMARK    1  A    between atoms: C_1  and  C_2
REMARK    2  A    between atoms: C_4  and  C_9
REMARK    3  A    between atoms: C_5  and  C_8
REMARK    4  A    between atoms: C_12  and  C_18
REMARK                            x       y       z     vdW  Elec       q    Type
REMARK                         _______ _______ _______ _____ _____    ______ ____
ROOT
ATOM      1  C   UNL     1       0.042  -3.385  -1.459  0.00  0.00    +0.081 C 
ATOM      2  N   UNL     1       0.056  -4.510  -0.840  0.00  0.00    -0.166 NA
ATOM      3  N   UNL     1       0.110  -5.749  -1.468  0.00  0.00    -0.191 N 
ATOM      4  C   UNL     1      -0.181  -6.999  -1.029  0.00  0.00    +0.159 A 
ATOM      5  N   UNL     1       0.055  -7.823  -2.018  0.00  0.00    -0.131 NA
ATOM      6  N   UNL     1       0.473  -7.172  -3.054  0.00  0.00    -0.121 NA
ATOM      7  C   UNL     1       0.520  -5.910  -2.776  0.00  0.00    +0.212 A 
ATOM      8  S   UNL     1       0.984  -4.517  -3.754  0.00  0.00    -0.078 S 
ATOM      9  C   UNL     1       0.032  -3.186  -2.947  0.00  0.00    +0.135 C 
ENDROOT
BRANCH   1  13
ATOM     10  C   UNL     1      -0.018   1.503   0.010  0.00  0.00    +0.063 C 
ATOM     11  C   UNL     1       0.002  -0.004   0.002  0.00  0.00    +0.014 A 
ATOM     12  C   UNL     1       0.008  -0.780  -1.097  0.00  0.00    +0.032 A 
ATOM     13  C   UNL     1       0.029  -2.169  -0.627  0.00  0.00    +0.019 A 
ATOM     14  C   UNL     1       0.035  -2.109   0.738  0.00  0.00    +0.022 A 
ATOM     15  N   UNL     1       0.024  -0.803   1.107  0.00  0.00    -0.362 N 
ATOM     16  H   UNL     1       0.029  -0.484   2.023  0.00  0.00    +0.165 HD
ATOM     17  C   UNL     1       0.057  -3.291   1.673  0.00  0.00    +0.064 C 
ENDBRANCH   1  13
BRANCH   4  18
ATOM     18  C   UNL     1      -0.682  -7.370   0.343  0.00  0.00    +0.059 C 
ATOM     19  C   UNL     1       0.311  -8.326   1.008  0.00  0.00    +0.011 C 
ATOM     20  C   UNL     1      -0.198  -8.702   2.400  0.00  0.00    +0.001 C 
ATOM     21  C   UNL     1      -1.561  -9.386   2.278  0.00  0.00    +0.000 C 
ATOM     22  C   UNL     1      -2.553  -8.430   1.614  0.00  0.00    +0.001 C 
ATOM     23  C   UNL     1      -2.045  -8.054   0.221  0.00  0.00    +0.011 C 
ENDBRANCH   4  18
TORSDOF 2
