REMARK  Name = ZINC39447691
REMARK  10 active torsions:
REMARK  status: ('A' for Active; 'I' for Inactive)
REMARK    1  A    between atoms: C_1  and  C_2
REMARK    2  A    between atoms: C_5  and  O_32
REMARK    3  A    between atoms: C_10  and  C_12
REMARK    4  A    between atoms: C_12  and  N_13
REMARK    5  A    between atoms: N_16  and  C_23
REMARK    6  A    between atoms: C_17  and  C_20
REMARK    7  A    between atoms: C_20  and  C_21
REMARK    8  A    between atoms: C_21  and  O_22
REMARK    9  A    between atoms: C_23  and  C_24
REMARK   10  A    between atoms: O_32  and  C_33
REMARK                            x       y       z     vdW  Elec       q    Type
REMARK                         _______ _______ _______ _____ _____    ______ ____
ROOT
ATOM      1  N   UNL     1       1.453   0.117  -3.077  0.00  0.00    +0.385 N 
ATOM      2  C   UNL     1       1.006  -0.793  -2.014  0.00  0.00    -0.063 C 
ATOM      3  C   UNL     1       1.131  -2.240  -2.496  0.00  0.00    +0.066 C 
ATOM      4  N   UNL     1       2.531  -2.518  -2.847  0.00  0.00    -0.299 NA
ATOM      5  C   UNL     1       2.999  -1.598  -3.892  0.00  0.00    +0.043 C 
ATOM      6  C   UNL     1       2.860  -0.156  -3.399  0.00  0.00    -0.059 C 
ATOM      7  H   UNL     1       0.886  -0.023  -3.900  0.00  0.00    -0.081 HD
ENDROOT
BRANCH   1   8
ATOM      8  C   UNL     1       1.316   1.507  -2.620  0.00  0.00    -0.024 C 
BRANCH   8  18
ATOM      9  C   UNL     1      -0.738   2.058  -4.881  0.00  0.00    +0.046 C 
ATOM     10  C   UNL     1      -1.024   2.064  -3.402  0.00  0.00    -0.024 A 
ATOM     11  C   UNL     1      -2.317   2.325  -2.766  0.00  0.00    +0.006 A 
ATOM     12  C   UNL     1      -3.593   2.622  -3.250  0.00  0.00    +0.056 A 
ATOM     13  C   UNL     1      -4.632   2.816  -2.361  0.00  0.00    +0.121 A 
ATOM     14  C   UNL     1      -4.411   2.716  -0.991  0.00  0.00    +0.047 A 
ATOM     15  C   UNL     1      -3.157   2.423  -0.502  0.00  0.00    +0.030 A 
ATOM     16  C   UNL     1      -2.097   2.224  -1.380  0.00  0.00    +0.047 A 
ATOM     17  N   UNL     1      -0.763   1.924  -1.202  0.00  0.00    -0.359 N 
ATOM     18  C   UNL     1      -0.142   1.828  -2.417  0.00  0.00    +0.003 A 
ATOM     19  H   UNL     1      -0.330   1.797  -0.343  0.00  0.00    +0.166 HD
BRANCH  13  20
ATOM     20  O   UNL     1      -5.876   3.107  -2.827  0.00  0.00    -0.495 OA
ATOM     21  C   UNL     1      -6.905   3.296  -1.854  0.00  0.00    +0.277 C 
ENDBRANCH  13  20
ENDBRANCH   8  18
ENDBRANCH   1   8
BRANCH   5  22
ATOM     22  C   UNL     1       4.468  -1.889  -4.208  0.00  0.00    +0.045 C 
BRANCH  22  23
ATOM     23  C   UNL     1       4.939  -0.969  -5.336  0.00  0.00    +0.157 C 
BRANCH  23  24
ATOM     24  O   UNL     1       6.271  -1.322  -5.714  0.00  0.00    -0.395 OA
ATOM     25  H   UNL     1       6.636  -0.778  -6.426  0.00  0.00    +0.209 HD
ENDBRANCH  23  24
ENDBRANCH  22  23
ENDBRANCH   5  22
BRANCH   4  26
ATOM     26  C   UNL     1       2.702  -3.917  -3.261  0.00  0.00    +0.119 C 
BRANCH  26  27
ATOM     27  C   UNL     1       2.555  -4.817  -2.062  0.00  0.00    -0.030 A 
ATOM     28  C   UNL     1       3.664  -5.143  -1.303  0.00  0.00    +0.008 A 
ATOM     29  C   UNL     1       3.532  -5.969  -0.202  0.00  0.00    +0.041 A 
ATOM     30  C   UNL     1       2.288  -6.471   0.141  0.00  0.00    +0.158 A 
ATOM     31  C   UNL     1       1.176  -6.144  -0.620  0.00  0.00    +0.159 A 
ATOM     32  C   UNL     1       1.311  -5.313  -1.719  0.00  0.00    +0.046 A 
ATOM     33  F   UNL     1      -0.038  -6.633  -0.288  0.00  0.00    -0.202 F 
ATOM     34  F   UNL     1       2.159  -7.279   1.216  0.00  0.00    -0.202 F 
ENDBRANCH  26  27
ENDBRANCH   4  26
TORSDOF 8
