REMARK  Name = ZINC65408144
REMARK  3 active torsions:
REMARK  status: ('A' for Active; 'I' for Inactive)
REMARK    1  A    between atoms: C_7  and  C_11
REMARK    2  A    between atoms: C_11  and  C_12
REMARK    3  A    between atoms: C_12  and  N_13
REMARK                            x       y       z     vdW  Elec       q    Type
REMARK                         _______ _______ _______ _____ _____    ______ ____
ROOT
ATOM      1  N   UNL     1      -1.261  -4.090   3.585  0.00  0.00    -0.282 N 
ATOM      2  C   UNL     1      -1.365  -3.837   5.019  0.00  0.00    +0.213 C 
ATOM      3  N   UNL     1      -2.755  -3.540   5.409  0.00  0.00    -0.322 N 
ATOM      4  C   UNL     1      -3.742  -4.253   4.774  0.00  0.00    +0.079 A 
ATOM      5  C   UNL     1      -3.559  -4.836   3.511  0.00  0.00    +0.068 A 
ATOM      6  H   UNL     1      -2.962  -2.872   6.082  0.00  0.00    +0.148 HD
ATOM      7  C   UNL     1      -2.241  -4.668   2.860  0.00  0.00    +0.250 C 
ATOM      8  O   UNL     1      -2.048  -5.041   1.718  0.00  0.00    -0.270 OA
ATOM      9  C   UNL     1      -4.708  -5.545   2.978  0.00  0.00    -0.027 A 
ATOM     10  C   UNL     1      -5.794  -5.547   3.785  0.00  0.00    -0.022 A 
ATOM     11  S   UNL     1      -5.298  -4.630   5.215  0.00  0.00    -0.080 S 
ATOM     12  C   UNL     1      -7.111  -6.194   3.493  0.00  0.00    -0.039 C 
ATOM     13  N   UNL     1      -7.170  -6.495   2.051  0.00  0.00    +0.382 N 
ATOM     14  C   UNL     1      -5.954  -7.212   1.647  0.00  0.00    -0.077 C 
ATOM     15  C   UNL     1      -4.757  -6.255   1.632  0.00  0.00    +0.017 C 
ATOM     16  H   UNL     1      -7.978  -7.070   1.860  0.00  0.00    -0.085 HD
ATOM     17  H   UNL     1      -7.241  -5.634   1.530  0.00  0.00    -0.085 HD
ENDROOT
BRANCH   1  18
ATOM     18  C   UNL     1      -0.031  -3.691   2.897  0.00  0.00    +0.112 C 
BRANCH  18  19
ATOM     19  C   UNL     1      -0.172  -2.253   2.392  0.00  0.00    +0.052 C 
BRANCH  19  26
ATOM     20  C   UNL     1      -0.019   1.531   0.011  0.00  0.00    +0.005 C 
ATOM     21  C   UNL     1       1.421   2.054  -0.001  0.00  0.00    +0.006 C 
ATOM     22  C   UNL     1       2.091   1.749   1.343  0.00  0.00    +0.057 C 
ATOM     23  C   UNL     1       1.886   0.284   1.661  0.00  0.00    +0.064 C 
ATOM     24  C   UNL     1       0.961  -0.469   1.058  0.00  0.00    -0.021 C 
ATOM     25  C   UNL     1       0.002  -0.004   0.002  0.00  0.00    +0.035 C 
ATOM     26  C   UNL     1       1.112  -1.836   1.673  0.00  0.00    +0.157 C 
ATOM     27  N   UNL     1       2.214  -1.637   2.635  0.00  0.00    -0.180 NA
ATOM     28  N   UNL     1       2.572  -0.457   2.560  0.00  0.00    -0.158 NA
ENDBRANCH  19  26
ENDBRANCH  18  19
ENDBRANCH   1  18
TORSDOF 3
