REMARK  Name = ZINC66858963
REMARK  5 active torsions:
REMARK  status: ('A' for Active; 'I' for Inactive)
REMARK    1  A    between atoms: N_10  and  C_13
REMARK    2  A    between atoms: C_13  and  N_14
REMARK    3  A    between atoms: C_17  and  N_20
REMARK    4  A    between atoms: C_21  and  C_23
REMARK    5  A    between atoms: C_23  and  C_24
REMARK                            x       y       z     vdW  Elec       q    Type
REMARK                         _______ _______ _______ _____ _____    ______ ____
ROOT
ATOM      1  N   UNL     1       6.060  -0.963   0.507  0.00  0.00    +0.391 N 
ATOM      2  C   UNL     1       6.770  -0.653  -0.739  0.00  0.00    -0.075 C 
ATOM      3  C   UNL     1       7.878   0.365  -0.461  0.00  0.00    +0.004 C 
ATOM      4  C   UNL     1       8.861  -0.224   0.556  0.00  0.00    +0.069 C 
ATOM      5  C   UNL     1       8.096  -0.611   1.825  0.00  0.00    +0.004 C 
ATOM      6  C   UNL     1       6.980  -1.593   1.461  0.00  0.00    -0.075 C 
ATOM      7  H   UNL     1       5.697  -0.110   0.906  0.00  0.00    -0.079 HD
ENDROOT
BRANCH   4   8
ATOM      8  N   UNL     1       9.881   0.774   0.885  0.00  0.00    -0.313 N 
ATOM      9  C   UNL     1      11.091   0.380   1.328  0.00  0.00    +0.213 C 
ATOM     10  O   UNL     1      11.335  -0.801   1.454  0.00  0.00    -0.276 OA
ATOM     11  H   UNL     1       9.686   1.719   0.783  0.00  0.00    +0.149 HD
BRANCH   9  12
ATOM     12  C   UNL     1      12.142   1.407   1.666  0.00  0.00    +0.099 C 
BRANCH  12  13
ATOM     13  C   UNL     1      13.412   0.699   2.141  0.00  0.00    -0.002 C 
ATOM     14  C   UNL     1      13.158   0.013   3.499  0.00  0.00    +0.004 C 
ATOM     15  C   UNL     1      14.486   0.203   4.275  0.00  0.00    +0.000 C 
ATOM     16  C   UNL     1      14.922   1.630   3.861  0.00  0.00    +0.000 C 
ATOM     17  C   UNL     1      14.534   1.727   2.371  0.00  0.00    +0.004 C 
ENDBRANCH  12  13
ENDBRANCH   9  12
ENDBRANCH   4   8
BRANCH   1  18
ATOM     18  C   UNL     1       4.949  -1.880   0.222  0.00  0.00    +0.041 C 
BRANCH  18  28
ATOM     19  C   UNL     1      -0.019   1.526   0.010  0.00  0.00    +0.000 C 
ATOM     20  C   UNL     1       1.416   2.058  -0.000  0.00  0.00    +0.001 C 
ATOM     21  C   UNL     1       2.129   1.573  -1.266  0.00  0.00    +0.016 C 
ATOM     22  C   UNL     1       2.133   0.049  -1.296  0.00  0.00    +0.056 C 
ATOM     23  C   UNL     1       0.710  -0.496  -1.263  0.00  0.00    +0.016 C 
ATOM     24  C   UNL     1       0.002  -0.004   0.002  0.00  0.00    +0.001 C 
ATOM     25  C   UNL     1       2.870  -0.458  -2.546  0.00  0.00    +0.112 C 
ATOM     26  C   UNL     1       4.027  -1.250  -1.974  0.00  0.00    +0.221 C 
ATOM     27  O   UNL     1       4.871  -1.829  -2.623  0.00  0.00    -0.275 OA
ATOM     28  N   UNL     1       3.969  -1.209  -0.636  0.00  0.00    -0.259 N 
ATOM     29  C   UNL     1       2.940  -0.503  -0.147  0.00  0.00    +0.227 C 
ATOM     30  O   UNL     1       2.697  -0.334   1.029  0.00  0.00    -0.275 OA
ENDBRANCH  18  28
ENDBRANCH   1  18
TORSDOF 5
