REMARK  Name = ZINC39710572
REMARK  13 active torsions:
REMARK  status: ('A' for Active; 'I' for Inactive)
REMARK    1  A    between atoms: C_1  and  C_2
REMARK    2  A    between atoms: C_2  and  C_3
REMARK    3  A    between atoms: C_10  and  C_15
REMARK    4  A    between atoms: C_15  and  C_17
REMARK    5  A    between atoms: C_15  and  N_27
REMARK    6  A    between atoms: N_22  and  C_23
REMARK    7  A    between atoms: C_23  and  C_24
REMARK    8  A    between atoms: C_23  and  C_25
REMARK    9  A    between atoms: C_23  and  C_26
REMARK   10  A    between atoms: N_27  and  C_28
REMARK   11  A    between atoms: N_27  and  C_36
REMARK   12  A    between atoms: C_28  and  C_29
REMARK   13  A    between atoms: C_36  and  C_37
REMARK                            x       y       z     vdW  Elec       q    Type
REMARK                         _______ _______ _______ _____ _____    ______ ____
ROOT
ATOM      1  C   UNL     1       5.384  -2.742  -3.906  0.00  0.00    -0.008 C 
ENDROOT
BRANCH   1   9
ATOM      2  C   UNL     1       2.175   1.492  -1.493  0.00  0.00    -0.047 A 
ATOM      3  C   UNL     1       1.177   1.351  -2.458  0.00  0.00    +0.005 A 
ATOM      4  C   UNL     1       1.351   0.625  -3.593  0.00  0.00    +0.024 A 
ATOM      5  C   UNL     1       2.574  -0.026  -3.843  0.00  0.00    +0.040 A 
ATOM      6  N   UNL     1       2.734  -0.734  -4.961  0.00  0.00    -0.285 N 
ATOM      7  C   UNL     1       3.855  -1.370  -5.258  0.00  0.00    +0.223 C 
ATOM      8  O   UNL     1       3.942  -2.002  -6.294  0.00  0.00    -0.275 OA
ATOM      9  C   UNL     1       5.027  -1.309  -4.305  0.00  0.00    +0.088 C 
ATOM     10  C   UNL     1       4.850  -0.503  -3.033  0.00  0.00    -0.006 C 
ATOM     11  C   UNL     1       3.646   0.106  -2.842  0.00  0.00    -0.007 A 
ATOM     12  C   UNL     1       3.391   0.907  -1.644  0.00  0.00    +0.013 A 
ATOM     13  H   UNL     1       1.994  -0.786  -5.585  0.00  0.00    +0.155 HD
BRANCH   2  15
ATOM     14  C   UNL     1       2.288   3.772  -0.524  0.00  0.00    +0.009 C 
ATOM     15  C   UNL     1       1.899   2.315  -0.262  0.00  0.00    +0.032 C 
ENDBRANCH   2  15
ENDBRANCH   1   9
BRANCH   1  16
ATOM     16  C   UNL     1       4.178  -3.399  -3.232  0.00  0.00    +0.205 C 
ATOM     17  N   UNL     1       3.038  -3.451  -4.157  0.00  0.00    -0.152 NA
ATOM     18  N   UNL     1       2.107  -2.799  -3.680  0.00  0.00    -0.070 NA
ATOM     19  N   UNL     1       2.418  -2.233  -2.444  0.00  0.00    -0.179 N 
ATOM     20  N   UNL     1       3.704  -2.571  -2.103  0.00  0.00    -0.183 NA
ATOM     21  H   UNL     1       1.821  -1.687  -1.910  0.00  0.00    +0.191 HD
BRANCH  20  22
ATOM     22  C   UNL     1       3.735  -3.330  -0.845  0.00  0.00    +0.035 C 
ATOM     23  C   UNL     1       5.155  -3.841  -0.592  0.00  0.00    +0.029 C 
ATOM     24  C   UNL     1       3.306  -2.421   0.309  0.00  0.00    +0.029 C 
ATOM     25  C   UNL     1       2.776  -4.518  -0.942  0.00  0.00    +0.029 C 
ENDBRANCH  20  22
ENDBRANCH   1  16
BRANCH   1  26
ATOM     26  N   UNL     1       5.751  -3.507  -5.106  0.00  0.00    +0.392 N 
ATOM     27  H   UNL     1       4.944  -3.602  -5.704  0.00  0.00    -0.080 HD
BRANCH  26  28
ATOM     28  C   UNL     1       6.817  -2.801  -5.829  0.00  0.00    -0.042 C 
BRANCH  28  29
ATOM     29  C   UNL     1       7.099  -3.513  -7.128  0.00  0.00    -0.064 A 
ATOM     30  C   UNL     1       8.045  -4.520  -7.172  0.00  0.00    +0.004 A 
ATOM     31  C   UNL     1       8.304  -5.173  -8.362  0.00  0.00    +0.038 A 
ATOM     32  C   UNL     1       7.615  -4.819  -9.510  0.00  0.00    +0.123 A 
ATOM     33  C   UNL     1       6.668  -3.810  -9.464  0.00  0.00    +0.038 A 
ATOM     34  C   UNL     1       6.407  -3.162  -8.272  0.00  0.00    +0.004 A 
ATOM     35  F   UNL     1       7.868  -5.457 -10.674  0.00  0.00    -0.205 F 
ENDBRANCH  28  29
ENDBRANCH  26  28
BRANCH  26  36
ATOM     36  C   UNL     1       6.227  -4.840  -4.710  0.00  0.00    -0.002 C 
BRANCH  36  37
ATOM     37  C   UNL     1       5.055  -5.782  -4.608  0.00  0.00    +0.089 A 
ATOM     38  C   UNL     1       4.469  -6.423  -5.635  0.00  0.00    +0.042 A 
ATOM     39  C   UNL     1       3.419  -7.196  -5.090  0.00  0.00    +0.041 A 
ATOM     40  C   UNL     1       3.425  -6.981  -3.762  0.00  0.00    +0.195 A 
ATOM     41  O   UNL     1       4.422  -6.128  -3.475  0.00  0.00    -0.470 OA
ENDBRANCH  36  37
ENDBRANCH  26  36
ENDBRANCH   1  26
TORSDOF 9
