REMARK  Name = ZINC36090973
REMARK  10 active torsions:
REMARK  status: ('A' for Active; 'I' for Inactive)
REMARK    1  A    between atoms: C_1  and  C_2
REMARK    2  A    between atoms: C_3  and  S_9
REMARK    3  A    between atoms: C_4  and  C_8
REMARK    4  A    between atoms: S_9  and  N_12
REMARK    5  A    between atoms: N_12  and  C_13
REMARK    6  A    between atoms: C_13  and  C_14
REMARK    7  A    between atoms: C_14  and  C_16
REMARK    8  A    between atoms: C_14  and  N_23
REMARK    9  A    between atoms: N_23  and  C_24
REMARK   10  A    between atoms: N_23  and  C_25
REMARK                            x       y       z     vdW  Elec       q    Type
REMARK                         _______ _______ _______ _____ _____    ______ ____
ROOT
ATOM      1  N   UNL     1       1.455  -1.689  -3.899  0.00  0.00    -0.191 NA
ATOM      2  H   UNL     1       1.527  -1.857  -4.851  0.00  0.00    +0.148 HD
ENDROOT
BRANCH   1   3
ATOM      3  S   UNL     1       0.115  -2.196  -3.068  0.00  0.00    +0.062 S 
ATOM      4  O   UNL     1       0.587  -2.878  -1.914  0.00  0.00    -0.153 OA
ATOM      5  O   UNL     1      -0.744  -2.810  -4.018  0.00  0.00    -0.153 OA
BRANCH   3   8
ATOM      6  C   UNL     1      -2.227  -0.409  -4.520  0.00  0.00    +0.067 C 
ATOM      7  C   UNL     1      -1.679  -0.071  -3.158  0.00  0.00    +0.060 A 
ATOM      8  C   UNL     1      -0.718  -0.753  -2.493  0.00  0.00    +0.148 A 
ATOM      9  C   UNL     1      -0.503  -0.111  -1.269  0.00  0.00    +0.086 A 
ATOM     10  N   UNL     1      -1.306   0.919  -1.202  0.00  0.00    -0.177 NA
ATOM     11  N   UNL     1      -2.055   0.969  -2.384  0.00  0.00    -0.280 N 
ATOM     12  H   UNL     1      -2.727   1.632  -2.607  0.00  0.00    +0.189 HD
ATOM     13  C   UNL     1       0.483  -0.534  -0.211  0.00  0.00    +0.069 C 
ENDBRANCH   3   8
ENDBRANCH   1   3
BRANCH   1  14
ATOM     14  C   UNL     1       2.531  -0.986  -3.196  0.00  0.00    +0.095 C 
BRANCH  14  15
ATOM     15  C   UNL     1       3.787  -0.973  -4.069  0.00  0.00    -0.021 C 
BRANCH  15  16
ATOM     16  C   UNL     1       4.286  -2.383  -4.252  0.00  0.00    -0.041 A 
ATOM     17  C   UNL     1       4.008  -3.069  -5.420  0.00  0.00    +0.003 A 
ATOM     18  C   UNL     1       4.465  -4.362  -5.588  0.00  0.00    +0.000 A 
ATOM     19  C   UNL     1       5.202  -4.971  -4.588  0.00  0.00    +0.001 A 
ATOM     20  C   UNL     1       5.481  -4.287  -3.421  0.00  0.00    +0.020 A 
ATOM     21  C   UNL     1       5.028  -2.990  -3.254  0.00  0.00    +0.043 A 
ATOM     22 CL   UNL     1       5.384  -2.127  -1.790  0.00  0.00    -0.083 Cl
ENDBRANCH  15  16
BRANCH  15  23
ATOM     23  N   UNL     1       3.467  -0.393  -5.380  0.00  0.00    +0.381 N 
ATOM     24  C   UNL     1       2.860   0.932  -5.194  0.00  0.00    -0.096 C 
ATOM     25  C   UNL     1       4.697  -0.261  -6.171  0.00  0.00    -0.096 C 
ATOM     26  H   UNL     1       2.818  -0.995  -5.864  0.00  0.00    -0.082 HD
ENDBRANCH  15  23
ENDBRANCH  14  15
ENDBRANCH   1  14
TORSDOF 6
