REMARK  Name = ZINC41105207
REMARK  4 active torsions:
REMARK  status: ('A' for Active; 'I' for Inactive)
REMARK    1  A    between atoms: C_3  and  N_17
REMARK    2  A    between atoms: C_6  and  C_7
REMARK    3  A    between atoms: C_18  and  C_20
REMARK    4  A    between atoms: C_21  and  C_22
REMARK                            x       y       z     vdW  Elec       q    Type
REMARK                         _______ _______ _______ _____ _____    ______ ____
ROOT
ATOM      1  C   UNL     1      -0.037   1.531  -0.177  0.00  0.00    +0.013 A 
ATOM      2  C   UNL     1       1.177   2.180  -0.201  0.00  0.00    +0.024 A 
ATOM      3  C   UNL     1       2.354   1.465  -0.005  0.00  0.00    +0.034 A 
ATOM      4  C   UNL     1       2.308   0.093   0.215  0.00  0.00    +0.024 A 
ATOM      5  C   UNL     1       1.096  -0.562   0.240  0.00  0.00    +0.013 A 
ATOM      6  C   UNL     1      -0.087   0.153   0.044  0.00  0.00    +0.019 A 
ENDROOT
BRANCH   6   7
ATOM      7  C   UNL     1      -1.389  -0.547   0.071  0.00  0.00    +0.164 A 
ATOM      8  N   UNL     1      -2.573   0.003   0.243  0.00  0.00    -0.129 NA
ATOM      9  N   UNL     1      -3.484  -0.904   0.202  0.00  0.00    -0.134 NA
ATOM     10  C   UNL     1      -2.941  -2.072  -0.000  0.00  0.00    +0.134 A 
ATOM     11  N   UNL     1      -1.596  -1.887  -0.085  0.00  0.00    -0.311 N 
ATOM     12  C   UNL     1      -0.584  -2.924  -0.283  0.00  0.00    +0.125 C 
ATOM     13  C   UNL     1      -1.200  -4.091  -1.061  0.00  0.00    +0.022 C 
ATOM     14  C   UNL     1      -1.817  -5.092  -0.085  0.00  0.00    +0.002 C 
ATOM     15  C   UNL     1      -2.932  -4.437   0.723  0.00  0.00    +0.008 C 
ATOM     16  C   UNL     1      -3.648  -3.396  -0.133  0.00  0.00    +0.076 C 
ENDBRANCH   6   7
BRANCH   3  17
ATOM     17  N   UNL     1       3.583   2.126  -0.030  0.00  0.00    -0.282 N 
ATOM     18  C   UNL     1       3.653   3.432   0.295  0.00  0.00    +0.241 C 
ATOM     19  O   UNL     1       2.664   4.011   0.702  0.00  0.00    -0.270 OA
ATOM     20  H   UNL     1       4.387   1.645  -0.281  0.00  0.00    +0.155 HD
BRANCH  18  21
ATOM     21  C   UNL     1       4.929   4.159   0.159  0.00  0.00    +0.072 C 
ATOM     22  C   UNL     1       4.999   5.460   0.483  0.00  0.00    +0.072 C 
BRANCH  22  23
ATOM     23  C   UNL     1       6.276   6.188   0.346  0.00  0.00    +0.239 C 
ATOM     24  O   UNL     1       7.285   5.589   0.029  0.00  0.00    -0.271 OA
ATOM     25  N   UNL     1       6.322   7.516   0.571  0.00  0.00    -0.302 N 
ATOM     26  C   UNL     1       7.555   8.281   0.330  0.00  0.00    +0.089 C 
ATOM     27  C   UNL     1       7.210   9.499  -0.533  0.00  0.00    -0.063 C 
ATOM     28  N   UNL     1       6.137  10.266   0.111  0.00  0.00    +0.381 N 
ATOM     29  C   UNL     1       4.910   9.461   0.167  0.00  0.00    -0.063 C 
ATOM     30  C   UNL     1       5.140   8.242   1.060  0.00  0.00    +0.089 C 
ATOM     31  H   UNL     1       6.418  10.514   1.048  0.00  0.00    -0.086 HD
ATOM     32  H   UNL     1       5.962  11.107  -0.418  0.00  0.00    -0.086 HD
ENDBRANCH  22  23
ENDBRANCH  18  21
ENDBRANCH   3  17
TORSDOF 4
