REMARK  Name = ZINC05730239
REMARK  3 active torsions:
REMARK  status: ('A' for Active; 'I' for Inactive)
REMARK    1  A    between atoms: C_1  and  C_2
REMARK    2  A    between atoms: C_13  and  C_16
REMARK    3  A    between atoms: N_18  and  C_19
REMARK                            x       y       z     vdW  Elec       q    Type
REMARK                         _______ _______ _______ _____ _____    ______ ____
ROOT
ATOM      1  C   UNL     1      -0.148   1.508   0.028  0.00  0.00    +0.065 C 
ATOM      2  C   UNL     1      -0.251   0.004   0.034  0.00  0.00    +0.038 A 
ATOM      3  C   UNL     1      -0.574  -0.669  -1.143  0.00  0.00    +0.067 A 
ATOM      4  N   UNL     1      -0.846  -0.245  -2.427  0.00  0.00    -0.353 N 
ATOM      5  C   UNL     1      -1.112  -1.327  -3.246  0.00  0.00    +0.048 A 
ATOM      6  C   UNL     1      -1.435  -1.423  -4.596  0.00  0.00    +0.026 A 
ATOM      7  C   UNL     1      -1.653  -2.657  -5.168  0.00  0.00    +0.002 A 
ATOM      8  C   UNL     1      -1.555  -3.813  -4.409  0.00  0.00    +0.001 A 
ATOM      9  C   UNL     1      -1.238  -3.740  -3.071  0.00  0.00    +0.010 A 
ATOM     10  C   UNL     1      -1.013  -2.499  -2.479  0.00  0.00    +0.008 A 
ATOM     11  C   UNL     1      -0.664  -2.073  -1.114  0.00  0.00    +0.011 A 
ATOM     12  C   UNL     1      -0.429  -2.737   0.086  0.00  0.00    +0.041 A 
ATOM     13  C   UNL     1      -0.113  -1.985   1.214  0.00  0.00    +0.107 A 
ATOM     14  N   UNL     1      -0.031  -0.658   1.147  0.00  0.00    -0.353 N 
ATOM     15  H   UNL     1       0.195  -0.162   1.949  0.00  0.00    +0.166 HD
ATOM     16  H   UNL     1      -0.850   0.681  -2.715  0.00  0.00    +0.166 HD
ENDROOT
BRANCH  13  17
ATOM     17  C   UNL     1       0.141  -2.668   2.499  0.00  0.00    +0.294 C 
ATOM     18  O   UNL     1       0.449  -1.944   3.600  0.00  0.00    -0.264 OA
ATOM     19  N   UNL     1       0.069  -3.973   2.572  0.00  0.00    -0.206 NA
BRANCH  19  20
ATOM     20  C   UNL     1       0.186  -4.598   3.784  0.00  0.00    +0.086 A 
ATOM     21  C   UNL     1      -0.575  -4.166   4.873  0.00  0.00    +0.029 A 
ATOM     22  C   UNL     1      -0.452  -4.801   6.091  0.00  0.00    +0.002 A 
ATOM     23  C   UNL     1       0.423  -5.863   6.237  0.00  0.00    +0.002 A 
ATOM     24  C   UNL     1       1.181  -6.295   5.165  0.00  0.00    +0.022 A 
ATOM     25  C   UNL     1       1.065  -5.674   3.937  0.00  0.00    +0.066 A 
ATOM     26 CL   UNL     1       2.011  -6.223   2.590  0.00  0.00    -0.081 Cl
ENDBRANCH  19  20
ENDBRANCH  13  17
TORSDOF 2
