REMARK  Name = ZINC01418637
REMARK  6 active torsions:
REMARK  status: ('A' for Active; 'I' for Inactive)
REMARK    1  A    between atoms: C_1  and  C_2
REMARK    2  A    between atoms: C_6  and  C_8
REMARK    3  A    between atoms: C_8  and  C_10
REMARK    4  A    between atoms: C_8  and  N_21
REMARK    5  A    between atoms: C_19  and  O_20
REMARK    6  A    between atoms: N_21  and  C_22
REMARK                            x       y       z     vdW  Elec       q    Type
REMARK                         _______ _______ _______ _____ _____    ______ ____
ROOT
ATOM      1  C   UNL     1       3.701  -1.983  -0.044  0.00  0.00    +0.154 C 
ENDROOT
BRANCH   1   2
ATOM      2  C   UNL     1       5.065  -2.420   0.427  0.00  0.00    +0.022 A 
ATOM      3  C   UNL     1       6.101  -1.492   0.482  0.00  0.00    +0.010 A 
ATOM      4  C   UNL     1       7.343  -1.854   0.907  0.00  0.00    +0.010 A 
ATOM      5  C   UNL     1       7.589  -3.183   1.286  0.00  0.00    +0.004 A 
ATOM      6  C   UNL     1       8.861  -3.596   1.726  0.00  0.00    +0.011 A 
ATOM      7  C   UNL     1       9.028  -4.905   2.079  0.00  0.00    +0.020 A 
ATOM      8  C   UNL     1       7.953  -5.789   1.998  0.00  0.00    +0.111 A 
ATOM      9  N   UNL     1       6.770  -5.400   1.588  0.00  0.00    -0.251 NA
ATOM     10  C   UNL     1       6.541  -4.134   1.228  0.00  0.00    +0.113 A 
ATOM     11  C   UNL     1       5.266  -3.722   0.787  0.00  0.00    +0.148 A 
BRANCH  11  12
ATOM     12  O   UNL     1       4.244  -4.614   0.722  0.00  0.00    -0.504 OA
ATOM     13  H   UNL     1       4.173  -5.069  -0.129  0.00  0.00    +0.292 HD
ENDBRANCH  11  12
ENDBRANCH   1   2
BRANCH   1  19
ATOM     14  C   UNL     1       5.460  -1.266  -4.540  0.00  0.00    +0.065 C 
ATOM     15  C   UNL     1       4.412  -1.882  -3.649  0.00  0.00    +0.039 A 
ATOM     16  C   UNL     1       3.395  -2.632  -4.209  0.00  0.00    +0.023 A 
ATOM     17  C   UNL     1       2.436  -3.195  -3.381  0.00  0.00    +0.004 A 
ATOM     18  C   UNL     1       2.540  -2.986  -2.014  0.00  0.00    +0.025 A 
ATOM     19  C   UNL     1       3.582  -2.221  -1.527  0.00  0.00    +0.066 A 
ATOM     20  N   UNL     1       4.476  -1.700  -2.345  0.00  0.00    -0.255 NA
ENDBRANCH   1  19
BRANCH   1  21
ATOM     21  N   UNL     1       3.522  -0.556   0.238  0.00  0.00    -0.318 N 
ATOM     22  H   UNL     1       4.294   0.029   0.291  0.00  0.00    +0.148 HD
BRANCH  21  23
ATOM     23  C   UNL     1       2.245  -0.041   0.429  0.00  0.00    +0.097 A 
ATOM     24  C   UNL     1       1.142  -0.886   0.352  0.00  0.00    +0.041 A 
ATOM     25  C   UNL     1      -0.123  -0.360   0.544  0.00  0.00    +0.005 A 
ATOM     26  C   UNL     1      -0.242   0.998   0.809  0.00  0.00    +0.018 A 
ATOM     27  C   UNL     1       0.895   1.778   0.872  0.00  0.00    +0.084 A 
ATOM     28  N   UNL     1       2.153   1.295   0.687  0.00  0.00    -0.350 N 
ATOM     29  H   UNL     1       2.982   1.899   0.739  0.00  0.00    +0.166 HD
ENDBRANCH  21  23
ENDBRANCH   1  21
TORSDOF 5
