REMARK  Name = ZINC36813391
REMARK  3 active torsions:
REMARK  status: ('A' for Active; 'I' for Inactive)
REMARK    1  A    between atoms: C_8  and  N_15
REMARK    2  A    between atoms: C_9  and  N_12
REMARK    3  A    between atoms: N_15  and  C_16
REMARK                            x       y       z     vdW  Elec       q    Type
REMARK                         _______ _______ _______ _____ _____    ______ ____
ROOT
ATOM      1  C   UNL     1       1.890   1.860   2.623  0.00  0.00    +0.017 A 
ATOM      2  C   UNL     1       2.582   2.407   1.586  0.00  0.00    +0.029 A 
ATOM      3  C   UNL     1       3.124   1.575   0.592  0.00  0.00    +0.073 A 
ATOM      4  C   UNL     1       2.936   0.176   0.689  0.00  0.00    +0.024 A 
ATOM      5  C   UNL     1       2.218  -0.356   1.769  0.00  0.00    +0.027 A 
ATOM      6  C   UNL     1       1.706   0.482   2.715  0.00  0.00    +0.019 A 
ATOM      7 BR   UNL     1       0.738  -0.235   4.173  0.00  0.00    -0.050 Br
ATOM      8  C   UNL     1       3.483  -0.660  -0.315  0.00  0.00    +0.069 A 
ATOM      9  C   UNL     1       4.180  -0.059  -1.350  0.00  0.00    +0.165 A 
ATOM     10  C   UNL     1       4.320   1.323  -1.374  0.00  0.00    +0.146 A 
ATOM     11  N   UNL     1       3.809   2.087  -0.437  0.00  0.00    -0.253 NA
ENDROOT
BRANCH   9  12
ATOM     12  N   UNL     1       4.773  -0.885  -2.426  0.00  0.00    +0.060 N 
ATOM     13  O   UNL     1       5.296  -0.353  -3.378  0.00  0.00    -0.126 OA
ATOM     14  O   UNL     1       4.734  -2.091  -2.353  0.00  0.00    -0.126 OA
ENDBRANCH   9  12
BRANCH   8  15
ATOM     15  N   UNL     1       3.326  -2.037  -0.263  0.00  0.00    -0.338 N 
ATOM     16  H   UNL     1       4.059  -2.598   0.035  0.00  0.00    +0.146 HD
BRANCH  15  17
ATOM     17  C   UNL     1       2.053  -2.644  -0.659  0.00  0.00    +0.074 C 
ATOM     18  C   UNL     1       1.529  -3.802   0.193  0.00  0.00    -0.005 C 
ATOM     19  C   UNL     1       2.095  -4.068  -1.217  0.00  0.00    -0.005 C 
ATOM     20  C   UNL     1       0.889  -4.560  -2.046  0.00  0.00    -0.077 C 
ATOM     21  N   UNL     1      -0.059  -5.106  -1.041  0.00  0.00    +0.380 N 
ATOM     22  C   UNL     1       0.023  -4.133   0.125  0.00  0.00    -0.077 C 
ATOM     23  H   UNL     1      -0.997  -5.124  -1.414  0.00  0.00    -0.086 HD
ATOM     24  H   UNL     1       0.226  -6.030  -0.753  0.00  0.00    -0.086 HD
ENDBRANCH  15  17
ENDBRANCH   8  15
TORSDOF 3
