REMARK  Name = ZINC52888496
REMARK  4 active torsions:
REMARK  status: ('A' for Active; 'I' for Inactive)
REMARK    1  A    between atoms: C_3  and  C_22
REMARK    2  A    between atoms: C_6  and  C_7
REMARK    3  A    between atoms: C_9  and  C_12
REMARK    4  A    between atoms: C_12  and  N_13
REMARK                            x       y       z     vdW  Elec       q    Type
REMARK                         _______ _______ _______ _____ _____    ______ ____
ROOT
ATOM      1  C   UNL     1      -1.267  -0.760   0.011  0.00  0.00    +0.109 A 
ATOM      2  N   UNL     1      -1.466  -2.071   0.011  0.00  0.00    -0.242 NA
ATOM      3  C   UNL     1      -2.675  -2.577   0.019  0.00  0.00    +0.071 A 
ATOM      4  C   UNL     1      -3.756  -1.750   0.028  0.00  0.00    +0.072 A 
ATOM      5  S   UNL     1      -2.949  -0.153   0.031  0.00  0.00    -0.075 S 
ENDROOT
BRANCH   1  11
ATOM      6  C   UNL     1      -0.017   1.393   0.010  0.00  0.00    +0.011 A 
ATOM      7  C   UNL     1       1.165   2.097   0.002  0.00  0.00    +0.014 A 
ATOM      8  C   UNL     1       2.385   1.415  -0.013  0.00  0.00    +0.037 A 
ATOM      9  C   UNL     1       2.404   0.018  -0.021  0.00  0.00    +0.014 A 
ATOM     10  C   UNL     1       1.221  -0.686  -0.013  0.00  0.00    +0.011 A 
ATOM     11  C   UNL     1       0.002  -0.004   0.002  0.00  0.00    +0.007 A 
BRANCH   8  12
ATOM     12  C   UNL     1       3.654   2.171  -0.022  0.00  0.00    +0.242 C 
ATOM     13  O   UNL     1       3.637   3.386  -0.015  0.00  0.00    -0.270 OA
ATOM     14  N   UNL     1       4.830   1.513  -0.036  0.00  0.00    -0.325 N 
ATOM     15  H   UNL     1       4.843   0.543  -0.042  0.00  0.00    +0.145 HD
ATOM     16  H   UNL     1       5.663   2.009  -0.042  0.00  0.00    +0.145 HD
ENDBRANCH   8  12
ENDBRANCH   1  11
BRANCH   3  17
ATOM     17  C   UNL     1      -2.868  -4.072   0.019  0.00  0.00    +0.203 C 
BRANCH  17  18
ATOM     18  N   UNL     1      -2.821  -4.570  -1.358  0.00  0.00    -0.222 N 
ATOM     19  C   UNL     1      -1.638  -4.948  -1.878  0.00  0.00    +0.287 A 
ATOM     20  O   UNL     1      -0.619  -4.877  -1.210  0.00  0.00    -0.265 OA
ATOM     21  C   UNL     1      -1.589  -5.429  -3.204  0.00  0.00    +0.126 A 
ATOM     22  C   UNL     1      -2.762  -5.488  -3.906  0.00  0.00    +0.084 A 
ATOM     23  C   UNL     1      -3.942  -5.067  -3.266  0.00  0.00    +0.154 A 
ATOM     24  N   UNL     1      -3.909  -4.639  -2.035  0.00  0.00    -0.175 NA
ATOM     25 CL   UNL     1      -2.794  -6.066  -5.542  0.00  0.00    -0.080 Cl
ATOM     26 CL   UNL     1      -0.089  -5.929  -3.922  0.00  0.00    -0.076 Cl
ENDBRANCH  17  18
ENDBRANCH   3  17
TORSDOF 4
