REMARK  Name = ZINC30560511
REMARK  3 active torsions:
REMARK  status: ('A' for Active; 'I' for Inactive)
REMARK    1  A    between atoms: C_1  and  C_2
REMARK    2  A    between atoms: C_2  and  N_3
REMARK    3  A    between atoms: C_12  and  C_14
REMARK                            x       y       z     vdW  Elec       q    Type
REMARK                         _______ _______ _______ _____ _____    ______ ____
ROOT
ATOM      1  N   UNL     1       0.713  -0.491   1.192  0.00  0.00    -0.297 NA
ATOM      2  C   UNL     1       0.954  -1.938   1.106  0.00  0.00    +0.091 C 
ATOM      3  C   UNL     1       2.000  -2.365   2.140  0.00  0.00    +0.071 C 
ATOM      4  C   UNL     1       1.567  -1.831   3.499  0.00  0.00    +0.056 A 
ATOM      5  C   UNL     1       0.646  -0.834   3.567  0.00  0.00    +0.028 A 
ATOM      6  S   UNL     1       0.485  -0.577   5.311  0.00  0.00    -0.055 S 
ATOM      7  C   UNL     1       1.593  -1.746   5.808  0.00  0.00    +0.165 A 
ATOM      8  N   UNL     1       2.018  -2.259   4.673  0.00  0.00    -0.229 NA
ATOM      9  N   UNL     1       1.967  -2.087   7.103  0.00  0.00    -0.262 N 
ATOM     10  C   UNL     1       2.878  -3.058   7.307  0.00  0.00    +0.250 C 
ATOM     11  O   UNL     1       3.372  -3.636   6.362  0.00  0.00    -0.272 OA
ATOM     12  C   UNL     1      -0.029  -0.156   2.425  0.00  0.00    +0.128 C 
ATOM     13  H   UNL     1       1.572  -1.625   7.859  0.00  0.00    +0.157 HD
ENDROOT
BRANCH  10  14
ATOM     14  C   UNL     1       3.284  -3.427   8.711  0.00  0.00    +0.229 C 
ATOM     15  C   UNL     1       4.001  -2.242   9.364  0.00  0.00    +0.201 C 
ATOM     16  O   UNL     1       4.481  -2.637  10.653  0.00  0.00    -0.374 OA
ATOM     17  C   UNL     1       5.367  -3.759  10.616  0.00  0.00    +0.188 C 
ATOM     18  C   UNL     1       4.650  -4.944   9.962  0.00  0.00    +0.189 C 
ATOM     19  O   UNL     1       4.169  -4.551   8.673  0.00  0.00    -0.363 OA
ENDBRANCH  10  14
BRANCH   1  21
ATOM     20  C   UNL     1      -0.019   1.526   0.010  0.00  0.00    +0.020 C 
ATOM     21  C   UNL     1       0.002  -0.004   0.002  0.00  0.00    +0.081 C 
ENDBRANCH   1  21
TORSDOF 2
