REMARK  Name = ZINC64430068
REMARK  2 active torsions:
REMARK  status: ('A' for Active; 'I' for Inactive)
REMARK    1  A    between atoms: N_15  and  C_16
REMARK    2  A    between atoms: C_16  and  C_17
REMARK                            x       y       z     vdW  Elec       q    Type
REMARK                         _______ _______ _______ _____ _____    ______ ____
ROOT
ATOM      1  C   UNL     1      -0.015   1.320   0.004  0.00  0.00    +0.120 A 
ATOM      2  C   UNL     1       1.185   1.948   0.006  0.00  0.00    +0.068 A 
ATOM      3  S   UNL     1       2.294   0.550  -0.008  0.00  0.00    -0.061 S 
ATOM      4  C   UNL     1       1.133  -0.669  -0.015  0.00  0.00    +0.161 A 
ATOM      5  N   UNL     1      -0.001  -0.002  -0.006  0.00  0.00    -0.233 NA
ATOM      6  N   UNL     1       1.325  -2.041  -0.026  0.00  0.00    -0.308 N 
ATOM      7  C   UNL     1       0.141  -2.913  -0.035  0.00  0.00    +0.108 C 
ATOM      8  C   UNL     1       0.281  -4.085  -1.010  0.00  0.00    +0.038 C 
ATOM      9  C   UNL     1       0.927  -3.624  -2.301  0.00  0.00    +0.111 C 
ATOM     10  N   UNL     1       2.378  -3.694  -2.131  0.00  0.00    -0.284 N 
ATOM     11  C   UNL     1       3.165  -2.693  -1.499  0.00  0.00    +0.128 C 
ATOM     12  C   UNL     1       2.687  -2.548  -0.034  0.00  0.00    +0.126 C 
ATOM     13  C   UNL     1       3.013  -4.784  -2.606  0.00  0.00    +0.302 C 
ATOM     14  O   UNL     1       4.227  -4.842  -2.576  0.00  0.00    -0.253 OA
ATOM     15  N   UNL     1       2.302  -5.810  -3.115  0.00  0.00    -0.297 N 
ATOM     16  H   UNL     1       1.339  -5.735  -3.205  0.00  0.00    +0.150 HD
ENDROOT
BRANCH  15  17
ATOM     17  C   UNL     1       2.984  -7.038  -3.532  0.00  0.00    +0.137 C 
BRANCH  17  18
ATOM     18  C   UNL     1       1.955  -8.035  -4.069  0.00  0.00    +0.135 C 
ATOM     19  C   UNL     1       2.648  -9.373  -4.404  0.00  0.00    +0.035 C 
ATOM     20  C   UNL     1       1.930  -9.798  -5.714  0.00  0.00    +0.031 C 
ATOM     21  C   UNL     1       1.676  -8.418  -6.370  0.00  0.00    +0.160 C 
ATOM     22  O   UNL     1       1.377  -7.532  -5.279  0.00  0.00    -0.375 OA
ENDBRANCH  17  18
ENDBRANCH  15  17
TORSDOF 2
