REMARK  Name = ZINC20424716
REMARK  12 active torsions:
REMARK  status: ('A' for Active; 'I' for Inactive)
REMARK    1  A    between atoms: C_1  and  C_2
REMARK    2  A    between atoms: C_2  and  C_3
REMARK    3  A    between atoms: C_9  and  C_11
REMARK    4  A    between atoms: C_11  and  S_12
REMARK    5  A    between atoms: S_12  and  C_13
REMARK    6  A    between atoms: N_18  and  N_19
REMARK    7  A    between atoms: C_20  and  C_21
REMARK    8  A    between atoms: C_24  and  O_26
REMARK    9  A    between atoms: O_26  and  C_27
REMARK   10  A    between atoms: C_27  and  C_28
REMARK   11  A    between atoms: C_31  and  O_34
REMARK   12  A    between atoms: O_34  and  C_35
REMARK                            x       y       z     vdW  Elec       q    Type
REMARK                         _______ _______ _______ _____ _____    ______ ____
ROOT
ATOM      1  C   UNL     1      -0.017   1.362   0.009  0.00  0.00    +0.211 A 
ATOM      2  N   UNL     1       0.002  -0.004   0.002  0.00  0.00    -0.186 NA
ATOM      3  C   UNL     1       1.308  -0.409  -0.013  0.00  0.00    +0.232 A 
ATOM      4  N   UNL     1       2.064   0.663  -0.014  0.00  0.00    -0.245 N 
ATOM      5  N   UNL     1       1.225   1.784  -0.000  0.00  0.00    -0.144 NA
ATOM      6  N   UNL     1       1.755  -1.722  -0.024  0.00  0.00    -0.205 N 
ATOM      7  H   UNL     1       1.030  -2.549  -0.021  0.00  0.00    +0.177 HD
ATOM      8  H   UNL     1       3.160   0.563  -0.025  0.00  0.00    +0.192 HD
ENDROOT
BRANCH   6   9
ATOM      9  N   UNL     1       3.129  -1.994  -0.038  0.00  0.00    -0.184 NA
ATOM     10  C   UNL     1       3.548  -3.227  -0.049  0.00  0.00    +0.176 C 
BRANCH  10  11
ATOM     11  C   UNL     1       4.985  -3.511  -0.064  0.00  0.00    +0.151 A 
ATOM     12  C   UNL     1       5.555  -4.751  -0.076  0.00  0.00    +0.055 A 
ATOM     13  C   UNL     1       6.949  -4.557  -0.089  0.00  0.00    +0.091 A 
ATOM     14  C   UNL     1       7.163  -3.219  -0.084  0.00  0.00    +0.287 A 
ATOM     15  O   UNL     1       5.974  -2.593  -0.075  0.00  0.00    -0.424 OA
BRANCH  14  16
ATOM     16  O   UNL     1       8.377  -2.612  -0.091  0.00  0.00    -0.459 OA
BRANCH  16  17
ATOM     17  C   UNL     1       8.388  -1.183  -0.084  0.00  0.00    +0.267 C 
BRANCH  17  18
ATOM     18  C   UNL     1       9.812  -0.692  -0.094  0.00  0.00    -0.010 A 
ATOM     19  C   UNL     1      10.474  -0.468   1.099  0.00  0.00    +0.010 A 
ATOM     20  C   UNL     1      11.781  -0.022   1.092  0.00  0.00    +0.046 A 
ATOM     21  C   UNL     1      12.427   0.211  -0.114  0.00  0.00    +0.120 A 
ATOM     22  C   UNL     1      11.759  -0.010  -1.310  0.00  0.00    +0.046 A 
ATOM     23  C   UNL     1      10.454  -0.460  -1.297  0.00  0.00    +0.010 A 
BRANCH  21  24
ATOM     24  O   UNL     1      13.712   0.653  -0.123  0.00  0.00    -0.495 OA
ATOM     25  C   UNL     1      14.337   0.858   1.146  0.00  0.00    +0.277 C 
ENDBRANCH  21  24
ENDBRANCH  17  18
ENDBRANCH  16  17
ENDBRANCH  14  16
ENDBRANCH  10  11
ENDBRANCH   6   9
BRANCH   1  26
ATOM     26  S   UNL     1      -1.456   2.378   0.022  0.00  0.00    -0.075 S 
BRANCH  26  27
ATOM     27  C   UNL     1      -0.799   4.069   0.028  0.00  0.00    +0.173 C 
BRANCH  27  34
ATOM     28  C   UNL     1      -4.486   9.258   0.074  0.00  0.00    +0.103 A 
ATOM     29  N   UNL     1      -4.888   8.003   0.070  0.00  0.00    -0.145 NA
ATOM     30  N   UNL     1      -4.050   7.059   0.061  0.00  0.00    -0.126 NA
ATOM     31  C   UNL     1      -2.747   7.283   0.055  0.00  0.00    +0.188 A 
ATOM     32  S   UNL     1      -2.713   9.021   0.071  0.00  0.00    -0.035 S 
ATOM     33  N   UNL     1      -1.692   6.376   0.045  0.00  0.00    -0.263 N 
ATOM     34  C   UNL     1      -1.942   5.052   0.039  0.00  0.00    +0.229 C 
ATOM     35  O   UNL     1      -3.087   4.651   0.043  0.00  0.00    -0.275 OA
ATOM     36  H   UNL     1      -0.654   6.740   0.042  0.00  0.00    +0.157 HD
BRANCH  28  38
ATOM     37  C   UNL     1      -5.557  10.956   1.531  0.00  0.00    +0.011 C 
ATOM     38  C   UNL     1      -5.292  10.532   0.085  0.00  0.00    +0.061 C 
ENDBRANCH  28  38
ENDBRANCH  27  34
ENDBRANCH  26  27
ENDBRANCH   1  26
TORSDOF 10
