REMARK  Name = ZINC14468569
REMARK  11 active torsions:
REMARK  status: ('A' for Active; 'I' for Inactive)
REMARK    1  A    between atoms: C_1  and  C_2
REMARK    2  A    between atoms: C_4  and  C_40
REMARK    3  A    between atoms: C_6  and  N_8
REMARK    4  A    between atoms: N_8  and  S_9
REMARK    5  A    between atoms: S_9  and  C_12
REMARK    6  A    between atoms: C_25  and  C_28
REMARK    7  A    between atoms: C_31  and  O_36
REMARK    8  A    between atoms: C_32  and  O_34
REMARK    9  A    between atoms: O_34  and  C_35
REMARK   10  A    between atoms: O_36  and  C_37
REMARK   11  A    between atoms: C_37  and  C_39
REMARK                            x       y       z     vdW  Elec       q    Type
REMARK                         _______ _______ _______ _____ _____    ______ ____
ROOT
ATOM      1  C   UNL     1      -0.391  -4.732  -0.003  0.00  0.00    +0.109 A 
ATOM      2  C   UNL     1      -0.933  -4.485   1.246  0.00  0.00    +0.030 A 
ATOM      3  C   UNL     1      -1.546  -3.277   1.509  0.00  0.00    +0.025 A 
ATOM      4  C   UNL     1      -1.625  -2.301   0.523  0.00  0.00    +0.031 A 
ATOM      5  C   UNL     1      -1.063  -2.553  -0.734  0.00  0.00    -0.018 A 
ATOM      6  C   UNL     1      -0.458  -3.765  -0.988  0.00  0.00    +0.034 A 
ATOM      7  C   UNL     1      -1.147  -1.479  -1.746  0.00  0.00    +0.049 C 
ATOM      8  C   UNL     1      -1.134  -1.785  -3.199  0.00  0.00    -0.023 C 
ATOM      9  C   UNL     1      -1.861  -0.873  -3.832  0.00  0.00    -0.030 C 
ATOM     10  C   UNL     1      -2.455   0.113  -2.824  0.00  0.00    +0.033 C 
ATOM     11  C   UNL     1      -2.505  -0.740  -1.550  0.00  0.00    +0.029 C 
ATOM     12  C   UNL     1      -2.381  -0.011  -0.224  0.00  0.00    +0.105 C 
ATOM     13  N   UNL     1      -2.268  -1.068   0.804  0.00  0.00    -0.336 N 
ATOM     14  H   UNL     1      -2.659  -0.924   1.680  0.00  0.00    +0.147 HD
ENDROOT
BRANCH  12  15
ATOM     15  C   UNL     1      -1.146   0.853  -0.219  0.00  0.00    -0.023 A 
ATOM     16  C   UNL     1       0.049   0.345   0.256  0.00  0.00    +0.009 A 
ATOM     17  C   UNL     1       1.186   1.132   0.258  0.00  0.00    +0.050 A 
ATOM     18  C   UNL     1       1.128   2.434  -0.213  0.00  0.00    +0.173 A 
ATOM     19  C   UNL     1      -0.076   2.947  -0.685  0.00  0.00    +0.163 A 
ATOM     20  C   UNL     1      -1.212   2.153  -0.684  0.00  0.00    +0.055 A 
BRANCH  19  21
ATOM     21  O   UNL     1      -0.138   4.224  -1.148  0.00  0.00    -0.491 OA
ATOM     22  C   UNL     1      -1.407   4.683  -1.618  0.00  0.00    +0.277 C 
ENDBRANCH  19  21
BRANCH  18  23
ATOM     23  O   UNL     1       2.245   3.210  -0.212  0.00  0.00    -0.422 OA
BRANCH  23  24
ATOM     24  C   UNL     1       2.425   4.019   0.844  0.00  0.00    +0.309 C 
ATOM     25  O   UNL     1       1.645   3.989   1.767  0.00  0.00    -0.251 OA
ATOM     26  C   UNL     1       3.598   4.964   0.878  0.00  0.00    +0.136 C 
ENDBRANCH  23  24
ENDBRANCH  18  23
ENDBRANCH  12  15
BRANCH   1  27
ATOM     27  S   UNL     1       0.384  -6.279  -0.337  0.00  0.00    +0.072 S 
ATOM     28  O   UNL     1      -0.224  -7.232   0.524  0.00  0.00    -0.150 OA
ATOM     29  O   UNL     1       0.399  -6.428  -1.750  0.00  0.00    -0.150 OA
BRANCH  27  30
ATOM     30  N   UNL     1       1.964  -6.148   0.142  0.00  0.00    -0.216 N 
ATOM     31  H   UNL     1       2.675  -6.191  -0.516  0.00  0.00    +0.174 HD
BRANCH  30  37
ATOM     32  C   UNL     1       3.453  -3.231   3.805  0.00  0.00    +0.044 C 
ATOM     33  C   UNL     1       2.997  -4.574   3.298  0.00  0.00    -0.048 A 
ATOM     34  C   UNL     1       2.884  -5.640   4.171  0.00  0.00    +0.006 A 
ATOM     35  C   UNL     1       2.465  -6.875   3.709  0.00  0.00    -0.048 A 
ATOM     36  C   UNL     1       2.159  -7.047   2.374  0.00  0.00    +0.028 A 
ATOM     37  C   UNL     1       2.272  -5.978   1.494  0.00  0.00    +0.049 A 
ATOM     38  C   UNL     1       2.698  -4.740   1.960  0.00  0.00    +0.028 A 
ATOM     39  C   UNL     1       2.343  -8.034   4.665  0.00  0.00    +0.044 C 
ENDBRANCH  30  37
ENDBRANCH  27  30
ENDBRANCH   1  27
TORSDOF 7
