REMARK  Name = ZINC36383209
REMARK  13 active torsions:
REMARK  status: ('A' for Active; 'I' for Inactive)
REMARK    1  A    between atoms: C_1  and  O_2
REMARK    2  A    between atoms: O_2  and  C_3
REMARK    3  A    between atoms: C_3  and  C_5
REMARK    4  A    between atoms: C_7  and  C_31
REMARK    5  A    between atoms: C_9  and  C_27
REMARK    6  A    between atoms: C_9  and  C_29
REMARK    7  A    between atoms: C_10  and  C_19
REMARK    8  A    between atoms: C_12  and  C_15
REMARK    9  A    between atoms: C_15  and  O_17
REMARK   10  A    between atoms: O_17  and  C_18
REMARK   11  A    between atoms: C_22  and  S_25
REMARK   12  A    between atoms: S_25  and  C_26
REMARK   13  A    between atoms: C_34  and  N_37
REMARK                            x       y       z     vdW  Elec       q    Type
REMARK                         _______ _______ _______ _____ _____    ______ ____
ROOT
ATOM      1  C   UNL     1      -0.517  -2.366  -0.645  0.00  0.00    +0.174 C 
ATOM      2  C   UNL     1       0.502  -2.256  -1.783  0.00  0.00    +0.075 C 
ATOM      3  C   UNL     1       1.001  -3.653  -2.156  0.00  0.00    +0.159 C 
ATOM      4  C   UNL     1      -0.160  -4.491  -2.695  0.00  0.00    +0.075 C 
ATOM      5  C   UNL     1      -1.204  -4.685  -1.591  0.00  0.00    +0.174 C 
ATOM      6  C   UNL     1      -1.608  -3.325  -1.067  0.00  0.00    +0.162 C 
ATOM      7  O   UNL     1      -2.772  -3.013  -0.987  0.00  0.00    -0.296 OA
ENDROOT
BRANCH   4   8
ATOM      8  C   UNL     1      -0.791  -3.781  -3.865  0.00  0.00    -0.041 A 
ATOM      9  C   UNL     1      -1.505  -2.615  -3.661  0.00  0.00    +0.005 A 
ATOM     10  C   UNL     1      -2.085  -1.962  -4.730  0.00  0.00    +0.015 A 
ATOM     11  C   UNL     1      -1.950  -2.478  -6.013  0.00  0.00    +0.008 A 
ATOM     12  C   UNL     1      -1.231  -3.650  -6.215  0.00  0.00    +0.015 A 
ATOM     13  C   UNL     1      -0.649  -4.295  -5.141  0.00  0.00    +0.005 A 
BRANCH  11  14
ATOM     14  S   UNL     1      -2.689  -1.649  -7.381  0.00  0.00    -0.129 S 
ATOM     15  C   UNL     1      -2.248  -2.678  -8.809  0.00  0.00    +0.090 C 
ENDBRANCH  11  14
ENDBRANCH   4   8
BRANCH   2  16
ATOM     16  C   UNL     1       1.666  -1.409  -1.336  0.00  0.00    -0.040 A 
ATOM     17  C   UNL     1       2.427  -1.798  -0.250  0.00  0.00    +0.006 A 
ATOM     18  C   UNL     1       3.494  -1.022   0.161  0.00  0.00    +0.033 A 
ATOM     19  C   UNL     1       3.801   0.144  -0.516  0.00  0.00    +0.126 A 
ATOM     20  C   UNL     1       3.041   0.533  -1.603  0.00  0.00    +0.033 A 
ATOM     21  C   UNL     1       1.976  -0.246  -2.016  0.00  0.00    +0.006 A 
BRANCH  19  22
ATOM     22  N   UNL     1       4.944   0.976  -0.076  0.00  0.00    +0.056 N 
ATOM     23  O   UNL     1       5.608   0.636   0.875  0.00  0.00    -0.126 OA
ATOM     24  O   UNL     1       5.212   1.996  -0.667  0.00  0.00    -0.126 OA
ENDBRANCH  19  22
ENDBRANCH   2  16
BRANCH   1  25
ATOM     25  C   UNL     1      -1.115  -1.010  -0.367  0.00  0.00    +0.318 C 
ATOM     26  O   UNL     1      -0.750  -0.048  -1.002  0.00  0.00    -0.250 OA
BRANCH  25  28
ATOM     27  C   UNL     1      -2.574   0.442   0.793  0.00  0.00    +0.280 C 
ATOM     28  O   UNL     1      -2.051  -0.871   0.584  0.00  0.00    -0.467 OA
ENDBRANCH  25  28
ENDBRANCH   1  25
BRANCH   5  29
ATOM     29  C   UNL     1      -2.411  -5.390  -2.154  0.00  0.00    +0.318 C 
ATOM     30  O   UNL     1      -2.437  -5.706  -3.320  0.00  0.00    -0.250 OA
BRANCH  29  31
ATOM     31  O   UNL     1      -3.458  -5.666  -1.360  0.00  0.00    -0.467 OA
ATOM     32  C   UNL     1      -4.568  -6.336  -1.961  0.00  0.00    +0.280 C 
ENDBRANCH  29  31
ENDBRANCH   5  29
BRANCH   3  33
ATOM     33  C   UNL     1       1.563  -4.306  -0.962  0.00  0.00    +0.086 C 
ATOM     34  N   UNL     1       1.996  -4.810  -0.041  0.00  0.00    -0.195 NA
ENDBRANCH   3  33
BRANCH   3  35
ATOM     35  C   UNL     1       2.045  -3.541  -3.188  0.00  0.00    +0.086 C 
ATOM     36  N   UNL     1       2.850  -3.455  -3.984  0.00  0.00    -0.195 NA
ENDBRANCH   3  35
TORSDOF 10
