REMARK  Name = ZINC44929038
REMARK  3 active torsions:
REMARK  status: ('A' for Active; 'I' for Inactive)
REMARK    1  A    between atoms: C_7  and  N_12
REMARK    2  A    between atoms: N_12  and  C_13
REMARK    3  A    between atoms: C_13  and  C_14
REMARK                            x       y       z     vdW  Elec       q    Type
REMARK                         _______ _______ _______ _____ _____    ______ ____
ROOT
ATOM      1  C   UNL     1      -0.244   1.616   0.123  0.00  0.00    +0.025 A 
ATOM      2  C   UNL     1       0.885   2.411   0.188  0.00  0.00    +0.043 A 
ATOM      3  C   UNL     1       2.126   1.833   0.386  0.00  0.00    +0.043 A 
ATOM      4  C   UNL     1       2.235   0.463   0.517  0.00  0.00    +0.084 A 
ATOM      5  C   UNL     1       1.100  -0.340   0.451  0.00  0.00    +0.140 A 
ATOM      6  C   UNL     1      -0.140   0.242   0.256  0.00  0.00    -0.017 A 
ATOM      7  C   UNL     1      -1.396  -0.590   0.190  0.00  0.00    -0.033 C 
ATOM      8  C   UNL     1      -1.033  -2.052  -0.081  0.00  0.00    +0.030 C 
ATOM      9  C   UNL     1       0.087  -2.458   0.885  0.00  0.00    +0.228 C 
ATOM     10  O   UNL     1       1.248  -1.684   0.579  0.00  0.00    -0.490 OA
ATOM     11 CL   UNL     1       3.794  -0.261   0.764  0.00  0.00    -0.080 Cl
ATOM     12 CL   UNL     1       0.745   4.133   0.021  0.00  0.00    -0.083 Cl
ENDROOT
BRANCH   7  13
ATOM     13  N   UNL     1      -2.256  -0.092  -0.892  0.00  0.00    +0.389 N 
ATOM     14  H   UNL     1      -2.425   0.893  -0.760  0.00  0.00    -0.084 HD
ATOM     15  H   UNL     1      -1.798  -0.239  -1.780  0.00  0.00    -0.084 HD
BRANCH  13  16
ATOM     16  C   UNL     1      -3.534  -0.816  -0.874  0.00  0.00    -0.000 C 
BRANCH  16  17
ATOM     17  C   UNL     1      -4.463  -0.220  -1.900  0.00  0.00    +0.160 A 
ATOM     18  N   UNL     1      -5.319   0.774  -1.708  0.00  0.00    -0.113 NA
ATOM     19  N   UNL     1      -5.925   0.988  -2.826  0.00  0.00    -0.021 NA
ATOM     20  N   UNL     1      -5.478   0.164  -3.709  0.00  0.00    -0.021 NA
ATOM     21  N   UNL     1      -4.577  -0.584  -3.169  0.00  0.00    -0.113 NA
ENDBRANCH  16  17
ENDBRANCH  13  16
ENDBRANCH   7  13
TORSDOF 3
