REMARK  Name = ZINC00149402
REMARK  4 active torsions:
REMARK  status: ('A' for Active; 'I' for Inactive)
REMARK    1  A    between atoms: C_4  and  O_23
REMARK    2  A    between atoms: C_5  and  N_7
REMARK    3  A    between atoms: N_7  and  C_8
REMARK    4  A    between atoms: N_12  and  C_15
REMARK                            x       y       z     vdW  Elec       q    Type
REMARK                         _______ _______ _______ _____ _____    ______ ____
ROOT
ATOM      1  C   UNL     1      -4.292   0.072   0.859  0.00  0.00    +0.119 C 
ATOM      2  C   UNL     1      -4.126   0.198  -0.484  0.00  0.00    +0.130 C 
ATOM      3  C   UNL     1      -2.966   1.072  -0.688  0.00  0.00    +0.271 C 
ATOM      4  O   UNL     1      -2.520   1.415  -1.765  0.00  0.00    -0.268 OA
ATOM      5  N   UNL     1      -2.475   1.429   0.511  0.00  0.00    -0.198 N 
ATOM      6  C   UNL     1      -3.213   0.876   1.491  0.00  0.00    +0.273 C 
ATOM      7  O   UNL     1      -3.030   1.010   2.683  0.00  0.00    -0.268 OA
ATOM      8 CL   UNL     1      -5.104  -0.530  -1.721  0.00  0.00    -0.076 Cl
ENDROOT
BRANCH   5   9
ATOM      9  C   UNL     1      -1.363   2.259   0.712  0.00  0.00    +0.080 A 
ATOM     10  C   UNL     1      -0.092   1.708   0.809  0.00  0.00    +0.027 A 
ATOM     11  C   UNL     1       1.002   2.529   1.001  0.00  0.00    +0.002 A 
ATOM     12  C   UNL     1       0.834   3.898   1.101  0.00  0.00    +0.003 A 
ATOM     13  C   UNL     1      -0.430   4.450   1.011  0.00  0.00    +0.040 A 
ATOM     14  C   UNL     1      -1.530   3.635   0.819  0.00  0.00    +0.145 A 
ATOM     15  F   UNL     1      -2.766   4.175   0.731  0.00  0.00    -0.204 F 
ENDBRANCH   5   9
BRANCH   1  16
ATOM     16  N   UNL     1      -5.266  -0.658   1.506  0.00  0.00    -0.306 N 
ATOM     17  H   UNL     1      -6.203  -0.469   1.341  0.00  0.00    +0.152 HD
BRANCH  16  22
ATOM     18  C   UNL     1      -3.215  -3.027   3.427  0.00  0.00    +0.002 A 
ATOM     19  C   UNL     1      -4.184  -3.673   4.172  0.00  0.00    +0.004 A 
ATOM     20  C   UNL     1      -5.515  -3.322   4.036  0.00  0.00    +0.047 A 
ATOM     21  C   UNL     1      -5.880  -2.317   3.155  0.00  0.00    +0.138 A 
ATOM     22  C   UNL     1      -4.904  -1.669   2.400  0.00  0.00    +0.073 A 
ATOM     23  C   UNL     1      -3.570  -2.027   2.543  0.00  0.00    +0.027 A 
BRANCH  21  24
ATOM     24  O   UNL     1      -7.187  -1.967   3.025  0.00  0.00    -0.505 OA
ATOM     25  H   UNL     1      -7.662  -2.466   2.347  0.00  0.00    +0.292 HD
ENDBRANCH  21  24
ENDBRANCH  16  22
ENDBRANCH   1  16
TORSDOF 4
