REMARK  Name = ZINC08768815
REMARK  7 active torsions:
REMARK  status: ('A' for Active; 'I' for Inactive)
REMARK    1  A    between atoms: C_1  and  O_2
REMARK    2  A    between atoms: O_2  and  C_3
REMARK    3  A    between atoms: C_6  and  C_9
REMARK    4  A    between atoms: C_9  and  C_10
REMARK    5  A    between atoms: C_10  and  N_11
REMARK    6  A    between atoms: C_31  and  C_33
REMARK    7  A    between atoms: C_37  and  N_39
REMARK                            x       y       z     vdW  Elec       q    Type
REMARK                         _______ _______ _______ _____ _____    ______ ____
ROOT
ATOM      1  N   UNL     1      -1.921  -2.531   2.398  0.00  0.00    -0.291 N 
ATOM      2  C   UNL     1      -2.773  -1.491   2.950  0.00  0.00    +0.203 C 
ATOM      3  C   UNL     1      -2.918  -0.331   2.019  0.00  0.00    +0.234 C 
ATOM      4  O   UNL     1      -3.589   0.609   2.388  0.00  0.00    -0.274 OA
ATOM      5  N   UNL     1      -2.359  -0.260   0.809  0.00  0.00    -0.276 N 
ATOM      6  C   UNL     1      -1.595  -1.357   0.216  0.00  0.00    +0.167 C 
ATOM      7  C   UNL     1      -1.387  -2.481   1.179  0.00  0.00    +0.237 C 
ATOM      8  O   UNL     1      -0.686  -3.407   0.828  0.00  0.00    -0.274 OA
ATOM      9  C   UNL     1      -2.336  -1.873  -1.026  0.00  0.00    +0.069 C 
ATOM     10  C   UNL     1      -2.789  -0.694  -1.848  0.00  0.00    -0.015 A 
ATOM     11  C   UNL     1      -3.211  -0.675  -3.234  0.00  0.00    +0.003 A 
ATOM     12  C   UNL     1      -3.326  -1.676  -4.204  0.00  0.00    +0.010 A 
ATOM     13  C   UNL     1      -3.771  -1.290  -5.444  0.00  0.00    +0.001 A 
ATOM     14  C   UNL     1      -4.093   0.026  -5.734  0.00  0.00    +0.002 A 
ATOM     15  C   UNL     1      -3.987   1.037  -4.794  0.00  0.00    +0.026 A 
ATOM     16  C   UNL     1      -3.538   0.674  -3.525  0.00  0.00    +0.047 A 
ATOM     17  N   UNL     1      -3.322   1.400  -2.389  0.00  0.00    -0.356 N 
ATOM     18  H   UNL     1      -3.465   2.355  -2.301  0.00  0.00    +0.166 HD
ATOM     19  C   UNL     1      -2.873   0.575  -1.392  0.00  0.00    +0.046 A 
ATOM     20  C   UNL     1      -2.514   0.980   0.019  0.00  0.00    +0.154 C 
ENDROOT
BRANCH  20  21
ATOM     21  C   UNL     1      -1.219   1.751   0.017  0.00  0.00    -0.019 A 
ATOM     22  C   UNL     1      -0.100   1.221  -0.597  0.00  0.00    +0.006 A 
ATOM     23  C   UNL     1       1.086   1.930  -0.604  0.00  0.00    +0.003 A 
ATOM     24  C   UNL     1       1.155   3.168   0.009  0.00  0.00    +0.033 A 
ATOM     25  C   UNL     1       0.037   3.696   0.627  0.00  0.00    +0.127 A 
ATOM     26  C   UNL     1      -1.150   2.986   0.633  0.00  0.00    +0.038 A 
BRANCH  25  27
ATOM     27  N   UNL     1       0.110   5.021   1.282  0.00  0.00    +0.056 N 
ATOM     28  O   UNL     1       1.155   5.646   1.277  0.00  0.00    -0.126 OA
ATOM     29  O   UNL     1      -0.875   5.486   1.827  0.00  0.00    -0.126 OA
ENDBRANCH  25  27
ENDBRANCH  20  21
BRANCH   1  30
ATOM     30  C   UNL     1      -1.632  -3.701   3.231  0.00  0.00    +0.113 C 
BRANCH  30  31
ATOM     31  C   UNL     1      -2.692  -4.776   2.985  0.00  0.00    +0.054 C 
BRANCH  31  35
ATOM     32  C   UNL     1      -1.849  -8.189   5.415  0.00  0.00    +0.120 A 
ATOM     33  C   UNL     1      -2.658  -7.172   5.902  0.00  0.00    +0.046 A 
ATOM     34  C   UNL     1      -2.929  -6.070   5.114  0.00  0.00    +0.007 A 
ATOM     35  C   UNL     1      -2.395  -5.979   3.842  0.00  0.00    -0.046 A 
ATOM     36  C   UNL     1      -1.593  -6.994   3.353  0.00  0.00    +0.007 A 
ATOM     37  C   UNL     1      -1.314  -8.096   4.139  0.00  0.00    +0.046 A 
BRANCH  32  39
ATOM     38  C   UNL     1      -0.740 -10.281   5.622  0.00  0.00    +0.277 C 
ATOM     39  O   UNL     1      -1.581  -9.274   6.188  0.00  0.00    -0.495 OA
ENDBRANCH  32  39
ENDBRANCH  31  35
ENDBRANCH  30  31
ENDBRANCH   1  30
TORSDOF 6
