REMARK  Name = ZINC62062157
REMARK  9 active torsions:
REMARK  status: ('A' for Active; 'I' for Inactive)
REMARK    1  A    between atoms: C_1  and  C_2
REMARK    2  A    between atoms: C_2  and  N_3
REMARK    3  A    between atoms: N_3  and  C_4
REMARK    4  A    between atoms: C_4  and  C_5
REMARK    5  A    between atoms: C_9  and  C_12
REMARK    6  A    between atoms: C_12  and  N_13
REMARK    7  A    between atoms: C_14  and  C_16
REMARK    8  A    between atoms: N_18  and  C_19
REMARK    9  A    between atoms: C_22  and  C_26
REMARK                            x       y       z     vdW  Elec       q    Type
REMARK                         _______ _______ _______ _____ _____    ______ ____
ROOT
ATOM      1  N   UNL     1      -2.153  -0.242  -6.777  0.00  0.00    -0.303 N 
ATOM      2  C   UNL     1      -2.762  -0.249  -7.980  0.00  0.00    +0.300 C 
ATOM      3  O   UNL     1      -3.283  -1.265  -8.391  0.00  0.00    -0.265 OA
ATOM      4  H   UNL     1      -1.737   0.570  -6.448  0.00  0.00    +0.149 HD
ENDROOT
BRANCH   2   5
ATOM      5  C   UNL     1      -2.795   0.995  -8.806  0.00  0.00    +0.303 C 
ATOM      6  O   UNL     1      -2.274   2.011  -8.395  0.00  0.00    -0.265 OA
ATOM      7  N   UNL     1      -3.403   0.989 -10.009  0.00  0.00    -0.276 N 
ATOM      8  H   UNL     1      -3.762   0.162 -10.367  0.00  0.00    +0.155 HD
BRANCH   7   9
ATOM      9  C   UNL     1      -3.517   2.174 -10.741  0.00  0.00    +0.052 A 
ATOM     10  C   UNL     1      -2.504   3.124 -10.689  0.00  0.00    +0.025 A 
ATOM     11  C   UNL     1      -2.620   4.294 -11.413  0.00  0.00    +0.005 A 
ATOM     12  C   UNL     1      -3.741   4.522 -12.190  0.00  0.00    -0.049 A 
ATOM     13  C   UNL     1      -4.751   3.579 -12.244  0.00  0.00    +0.025 A 
ATOM     14  C   UNL     1      -4.640   2.403 -11.527  0.00  0.00    +0.062 A 
ATOM     15 CL   UNL     1      -5.905   1.216 -11.602  0.00  0.00    -0.082 Cl
ATOM     16  C   UNL     1      -3.863   5.800 -12.979  0.00  0.00    +0.044 C 
ENDBRANCH   7   9
ENDBRANCH   2   5
BRANCH   1  17
ATOM     17  C   UNL     1      -2.121  -1.462  -5.966  0.00  0.00    +0.141 C 
BRANCH  17  22
ATOM     18  N   UNL     1       0.734  -0.486  -1.227  0.00  0.00    -0.317 N 
ATOM     19  C   UNL     1       0.007  -0.721  -2.388  0.00  0.00    +0.099 A 
ATOM     20  C   UNL     1      -1.367  -0.507  -2.396  0.00  0.00    +0.042 A 
ATOM     21  C   UNL     1      -2.078  -0.745  -3.559  0.00  0.00    +0.010 A 
ATOM     22  C   UNL     1      -1.387  -1.190  -4.678  0.00  0.00    -0.014 A 
ATOM     23  C   UNL     1      -0.023  -1.381  -4.599  0.00  0.00    +0.089 A 
ATOM     24  N   UNL     1       0.630  -1.141  -3.478  0.00  0.00    -0.349 N 
ATOM     25  H   UNL     1       1.590  -1.279  -3.451  0.00  0.00    +0.167 HD
BRANCH  18  27
ATOM     26  C   UNL     1       0.023   1.508  -0.003  0.00  0.00    +0.024 C 
ATOM     27  C   UNL     1       0.051  -0.022  -0.017  0.00  0.00    +0.103 C 
ENDBRANCH  18  27
BRANCH  18  28
ATOM     28  C   UNL     1       2.183  -0.704  -1.212  0.00  0.00    +0.103 C 
ATOM     29  C   UNL     1       2.478  -2.147  -0.800  0.00  0.00    +0.024 C 
ENDBRANCH  18  28
ENDBRANCH  17  22
ENDBRANCH   1  17
TORSDOF 6
