REMARK  Name = ZINC63666770
REMARK  9 active torsions:
REMARK  status: ('A' for Active; 'I' for Inactive)
REMARK    1  A    between atoms: C_1  and  C_2
REMARK    2  A    between atoms: C_8  and  C_11
REMARK    3  A    between atoms: C_11  and  C_12
REMARK    4  A    between atoms: C_12  and  N_13
REMARK    5  A    between atoms: C_14  and  C_16
REMARK    6  A    between atoms: C_16  and  C_17
REMARK    7  A    between atoms: C_17  and  C_18
REMARK    8  A    between atoms: C_28  and  C_38
REMARK    9  A    between atoms: N_31  and  C_32
REMARK                            x       y       z     vdW  Elec       q    Type
REMARK                         _______ _______ _______ _____ _____    ______ ____
ROOT
ATOM      1  C   UNL     1      -2.604  -3.939   8.835  0.00  0.00    +0.105 C 
ENDROOT
BRANCH   1   2
ATOM      2  C   UNL     1      -3.051  -3.231  10.088  0.00  0.00    +0.216 C 
ATOM      3  O   UNL     1      -2.231  -2.718  10.820  0.00  0.00    -0.276 OA
ATOM      4  N   UNL     1      -4.355  -3.169  10.394  0.00  0.00    -0.293 N 
ATOM      5  C   UNL     1      -5.245  -3.844   9.427  0.00  0.00    +0.119 C 
ATOM      6  C   UNL     1      -5.678  -5.169  10.074  0.00  0.00    +0.090 C 
ATOM      7  S   UNL     1      -6.593  -4.759  11.588  0.00  0.00    -0.134 S 
ATOM      8  C   UNL     1      -5.514  -3.643  12.493  0.00  0.00    +0.170 C 
ATOM      9  C   UNL     1      -4.917  -2.532  11.570  0.00  0.00    +0.126 C 
ATOM     10  C   UNL     1      -3.855  -2.075  12.602  0.00  0.00    +0.093 C 
ATOM     11  N   UNL     1      -3.276  -3.375  13.027  0.00  0.00    -0.234 NA
ATOM     12  N   UNL     1      -4.313  -4.292  13.029  0.00  0.00    -0.252 N 
ATOM     13  C   UNL     1      -2.847  -1.050  12.138  0.00  0.00    +0.027 C 
ATOM     14  H   UNL     1      -2.877  -3.303  13.951  0.00  0.00    +0.145 HD
BRANCH  12  15
ATOM     15  C   UNL     1      -4.219  -5.612  13.475  0.00  0.00    +0.046 A 
ATOM     16  C   UNL     1      -5.371  -6.330  13.772  0.00  0.00    +0.024 A 
ATOM     17  C   UNL     1      -5.274  -7.635  14.212  0.00  0.00    +0.002 A 
ATOM     18  C   UNL     1      -4.034  -8.227  14.359  0.00  0.00    +0.000 A 
ATOM     19  C   UNL     1      -2.885  -7.516  14.064  0.00  0.00    +0.002 A 
ATOM     20  C   UNL     1      -2.974  -6.212  13.618  0.00  0.00    +0.024 A 
ENDBRANCH  12  15
ENDBRANCH   1   2
BRANCH   1  21
ATOM     21  C   UNL     1      -1.080  -3.865   8.723  0.00  0.00    +0.105 C 
BRANCH  21  23
ATOM     22  N   UNL     1       0.677  -4.636   7.163  0.00  0.00    -0.315 N 
ATOM     23  C   UNL     1      -0.633  -4.573   7.470  0.00  0.00    +0.213 C 
ATOM     24  O   UNL     1      -1.453  -5.086   6.738  0.00  0.00    -0.276 OA
ATOM     25  H   UNL     1       1.333  -4.226   7.748  0.00  0.00    +0.149 HD
BRANCH  22  26
ATOM     26  C   UNL     1       1.112  -5.324   5.944  0.00  0.00    +0.108 C 
BRANCH  26  27
ATOM     27  C   UNL     1       2.636  -5.250   5.833  0.00  0.00    +0.052 C 
BRANCH  27  35
ATOM     28  C   UNL     1       3.494  -2.341   1.091  0.00  0.00    +0.044 C 
ATOM     29  C   UNL     1       3.568  -3.759   1.595  0.00  0.00    -0.050 A 
ATOM     30  C   UNL     1       3.958  -4.777   0.714  0.00  0.00    +0.005 A 
ATOM     31  C   UNL     1       4.049  -6.071   1.089  0.00  0.00    +0.026 A 
ATOM     32  C   UNL     1       3.743  -6.455   2.423  0.00  0.00    +0.043 A 
ATOM     33  N   UNL     1       3.754  -7.623   3.019  0.00  0.00    -0.380 N 
ATOM     34  C   UNL     1       3.346  -7.439   4.416  0.00  0.00    +0.144 C 
ATOM     35  C   UNL     1       3.083  -5.958   4.580  0.00  0.00    -0.040 C 
ATOM     36  C   UNL     1       3.328  -5.399   3.373  0.00  0.00    -0.001 A 
ATOM     37  C   UNL     1       3.261  -4.016   2.886  0.00  0.00    +0.013 A 
ATOM     38  H   UNL     1       3.992  -8.467   2.605  0.00  0.00    +0.160 HD
ENDBRANCH  27  35
ENDBRANCH  26  27
ENDBRANCH  22  26
ENDBRANCH  21  23
ENDBRANCH   1  21
TORSDOF 7
