REMARK  Name = ZINC06132432
REMARK  11 active torsions:
REMARK  status: ('A' for Active; 'I' for Inactive)
REMARK    1  A    between atoms: C_1  and  C_2
REMARK    2  A    between atoms: C_2  and  N_3
REMARK    3  A    between atoms: N_3  and  C_4
REMARK    4  A    between atoms: N_3  and  S_6
REMARK    5  A    between atoms: C_4  and  C_5
REMARK    6  A    between atoms: S_6  and  C_9
REMARK    7  A    between atoms: C_12  and  S_15
REMARK    8  A    between atoms: S_15  and  N_18
REMARK    9  A    between atoms: C_23  and  C_24
REMARK   10  A    between atoms: C_23  and  C_30
REMARK   11  A    between atoms: C_23  and  N_69
REMARK                            x       y       z     vdW  Elec       q    Type
REMARK                         _______ _______ _______ _____ _____    ______ ____
ROOT
ATOM      1  N   UNL     1      -2.240  -1.834   3.042  0.00  0.00    -0.180 NA
ATOM      2  C   UNL     1      -2.265  -2.472   1.716  0.00  0.00    +0.091 C 
ATOM      3  C   UNL     1      -1.054  -1.982   0.917  0.00  0.00    -0.060 C 
ATOM      4  C   UNL     1      -0.888   0.035   2.254  0.00  0.00    -0.060 C 
ATOM      5  C   UNL     1      -2.093  -0.372   3.108  0.00  0.00    +0.091 C 
ATOM      6  N   UNL     1      -1.070  -0.503   0.888  0.00  0.00    +0.389 N 
ATOM      7  H   UNL     1      -1.977  -0.187   0.524  0.00  0.00    -0.080 HD
ENDROOT
BRANCH   1   8
ATOM      8  S   UNL     1      -2.372  -2.739   4.423  0.00  0.00    +0.061 S 
ATOM      9  O   UNL     1      -2.867  -1.869   5.432  0.00  0.00    -0.153 OA
ATOM     10  O   UNL     1      -3.037  -3.940   4.059  0.00  0.00    -0.153 OA
BRANCH   8  14
ATOM     11  C   UNL     1       1.821  -3.906   5.665  0.00  0.00    +0.106 A 
ATOM     12  C   UNL     1       1.263  -2.732   6.135  0.00  0.00    +0.030 A 
ATOM     13  C   UNL     1      -0.018  -2.376   5.756  0.00  0.00    +0.030 A 
ATOM     14  C   UNL     1      -0.740  -3.193   4.906  0.00  0.00    +0.106 A 
ATOM     15  C   UNL     1      -0.183  -4.370   4.441  0.00  0.00    +0.030 A 
ATOM     16  C   UNL     1       1.099  -4.724   4.817  0.00  0.00    +0.030 A 
BRANCH  11  17
ATOM     17  S   UNL     1       3.454  -4.360   6.148  0.00  0.00    +0.061 S 
ATOM     18  O   UNL     1       3.949  -5.230   5.139  0.00  0.00    -0.153 OA
ATOM     19  O   UNL     1       4.119  -3.158   6.511  0.00  0.00    -0.153 OA
BRANCH  17  20
ATOM     20  N   UNL     1       3.323  -5.263   7.530  0.00  0.00    -0.177 NA
BRANCH  20  22
ATOM     21  C   UNL     1       4.552  -7.377   7.578  0.00  0.00    +0.022 C 
ATOM     22  C   UNL     1       3.178  -6.719   7.442  0.00  0.00    +0.106 C 
ENDBRANCH  20  22
BRANCH  20  23
ATOM     23  C   UNL     1       3.352  -4.607   8.839  0.00  0.00    +0.106 C 
ATOM     24  C   UNL     1       1.920  -4.346   9.310  0.00  0.00    +0.022 C 
ENDBRANCH  20  23
ENDBRANCH  17  20
ENDBRANCH  11  17
ENDBRANCH   8  14
ENDBRANCH   1   8
BRANCH   6  25
ATOM     25  C   UNL     1       0.002  -0.004   0.002  0.00  0.00    -0.007 C 
BRANCH  25  26
ATOM     26  C   UNL     1      -0.018   1.503   0.010  0.00  0.00    -0.057 A 
ATOM     27  C   UNL     1      -1.225   2.178   0.020  0.00  0.00    +0.002 A 
ATOM     28  C   UNL     1      -1.244   3.560   0.032  0.00  0.00    +0.000 A 
ATOM     29  C   UNL     1      -0.056   4.267   0.025  0.00  0.00    +0.000 A 
ATOM     30  C   UNL     1       1.151   3.592   0.010  0.00  0.00    +0.000 A 
ATOM     31  C   UNL     1       1.169   2.210   0.003  0.00  0.00    +0.002 A 
ENDBRANCH  25  26
BRANCH  25  32
ATOM     32  C   UNL     1      -0.251  -0.502  -1.398  0.00  0.00    -0.057 A 
ATOM     33  C   UNL     1      -1.542  -0.557  -1.889  0.00  0.00    +0.002 A 
ATOM     34  C   UNL     1      -1.774  -1.009  -3.174  0.00  0.00    +0.000 A 
ATOM     35  C   UNL     1      -0.716  -1.416  -3.965  0.00  0.00    +0.000 A 
ATOM     36  C   UNL     1       0.575  -1.367  -3.472  0.00  0.00    +0.000 A 
ATOM     37  C   UNL     1       0.807  -0.910  -2.188  0.00  0.00    +0.002 A 
ENDBRANCH  25  32
ENDBRANCH   6  25
TORSDOF 9
