REMARK  Name = ZINC33960745
REMARK  8 active torsions:
REMARK  status: ('A' for Active; 'I' for Inactive)
REMARK    1  A    between atoms: C_1  and  C_2
REMARK    2  A    between atoms: C_5  and  C_23
REMARK    3  A    between atoms: C_6  and  C_7
REMARK    4  A    between atoms: C_6  and  C_8
REMARK    5  A    between atoms: N_12  and  N_13
REMARK    6  A    between atoms: N_13  and  C_14
REMARK    7  A    between atoms: C_17  and  N_20
REMARK    8  A    between atoms: N_25  and  C_26
REMARK                            x       y       z     vdW  Elec       q    Type
REMARK                         _______ _______ _______ _____ _____    ______ ____
ROOT
ATOM      1  C   UNL     1      -0.052   1.526   0.031  0.00  0.00    +0.018 C 
ATOM      2  C   UNL     1      -0.024  -0.003   0.018  0.00  0.00    +0.022 C 
ATOM      3  C   UNL     1       0.710  -0.667  -1.188  0.00  0.00    +0.015 C 
ATOM      4  C   UNL     1       0.988  -2.113  -0.711  0.00  0.00    +0.026 C 
ATOM      5  C   UNL     1       0.390  -2.158   0.730  0.00  0.00    +0.117 C 
ATOM      6  C   UNL     1       0.709  -0.700   1.220  0.00  0.00    -0.003 C 
ATOM      7  C   UNL     1       0.064  -0.367   2.567  0.00  0.00    +0.013 C 
ATOM      8  C   UNL     1       2.214  -0.424   1.222  0.00  0.00    +0.013 C 
ATOM      9  C   UNL     1      -1.125  -2.046   0.514  0.00  0.00    +0.195 C 
ATOM     10  O   UNL     1      -1.948  -2.923   0.685  0.00  0.00    -0.290 OA
ATOM     11  C   UNL     1      -1.387  -0.705   0.089  0.00  0.00    +0.109 C 
ATOM     12  N   UNL     1      -2.549  -0.182  -0.203  0.00  0.00    -0.183 NA
ENDROOT
BRANCH   5  13
ATOM     13  C   UNL     1       0.868  -3.283   1.611  0.00  0.00    +0.232 C 
ATOM     14  O   UNL     1       1.452  -3.037   2.646  0.00  0.00    -0.274 OA
ATOM     15  N   UNL     1       0.648  -4.563   1.251  0.00  0.00    -0.284 N 
ATOM     16  H   UNL     1       0.124  -4.760   0.458  0.00  0.00    +0.155 HD
BRANCH  15  17
ATOM     17  C   UNL     1       1.173  -5.605   2.018  0.00  0.00    +0.041 A 
ATOM     18  C   UNL     1       1.265  -5.481   3.387  0.00  0.00    +0.024 A 
ATOM     19  C   UNL     1       1.787  -6.514   4.161  0.00  0.00    +0.002 A 
ATOM     20  C   UNL     1       2.218  -7.672   3.589  0.00  0.00    +0.008 A 
ATOM     21  C   UNL     1       2.140  -7.838   2.196  0.00  0.00    -0.016 A 
ATOM     22  C   UNL     1       1.607  -6.795   1.398  0.00  0.00    +0.003 A 
ATOM     23  C   UNL     1       1.526  -6.965   0.007  0.00  0.00    +0.010 A 
ATOM     24  C   UNL     1       1.955  -8.127  -0.557  0.00  0.00    +0.001 A 
ATOM     25  C   UNL     1       2.475  -9.155   0.228  0.00  0.00    +0.001 A 
ATOM     26  C   UNL     1       2.579  -9.022   1.578  0.00  0.00    +0.008 A 
ENDBRANCH  15  17
ENDBRANCH   5  13
BRANCH  12  27
ATOM     27  N   UNL     1      -3.621  -0.891  -0.097  0.00  0.00    -0.237 N 
ATOM     28  H   UNL     1      -3.565  -1.813   0.199  0.00  0.00    +0.174 HD
BRANCH  27  29
ATOM     29  C   UNL     1      -4.862  -0.333  -0.409  0.00  0.00    +0.048 A 
ATOM     30  C   UNL     1      -4.943   0.986  -0.840  0.00  0.00    +0.027 A 
ATOM     31  C   UNL     1      -6.172   1.535  -1.148  0.00  0.00    +0.034 A 
ATOM     32  C   UNL     1      -7.321   0.774  -1.029  0.00  0.00    +0.126 A 
ATOM     33  C   UNL     1      -7.244  -0.539  -0.600  0.00  0.00    +0.034 A 
ATOM     34  C   UNL     1      -6.018  -1.096  -0.296  0.00  0.00    +0.027 A 
BRANCH  32  35
ATOM     35  N   UNL     1      -8.636   1.366  -1.360  0.00  0.00    +0.056 N 
ATOM     36  O   UNL     1      -8.706   2.514  -1.734  0.00  0.00    -0.126 OA
ATOM     37  O   UNL     1      -9.642   0.703  -1.256  0.00  0.00    -0.126 OA
ENDBRANCH  32  35
ENDBRANCH  27  29
ENDBRANCH  12  27
TORSDOF 5
