REMARK  Name = ZINC12856396
REMARK  9 active torsions:
REMARK  status: ('A' for Active; 'I' for Inactive)
REMARK    1  A    between atoms: C_1  and  C_2
REMARK    2  A    between atoms: C_2  and  C_3
REMARK    3  A    between atoms: C_2  and  O_4
REMARK    4  A    between atoms: O_4  and  N_5
REMARK    5  A    between atoms: C_6  and  C_7
REMARK    6  A    between atoms: C_7  and  C_8
REMARK    7  A    between atoms: C_7  and  C_19
REMARK    8  A    between atoms: N_10  and  C_11
REMARK    9  A    between atoms: N_21  and  C_22
REMARK                            x       y       z     vdW  Elec       q    Type
REMARK                         _______ _______ _______ _____ _____    ______ ____
ROOT
ATOM      1  C   UNL     1       3.745  -0.966   0.160  0.00  0.00    +0.205 C 
ENDROOT
BRANCH   1   2
ATOM      2  C   UNL     1       2.428  -0.240   0.061  0.00  0.00    +0.235 C 
ATOM      3  O   UNL     1       1.388  -0.865   0.076  0.00  0.00    -0.274 OA
ATOM      4  N   UNL     1       2.405   1.103  -0.045  0.00  0.00    -0.283 N 
ATOM      5  H   UNL     1       3.236   1.598  -0.126  0.00  0.00    +0.155 HD
BRANCH   4   6
ATOM      6  C   UNL     1       1.183   1.786  -0.036  0.00  0.00    +0.052 A 
ATOM      7  C   UNL     1       0.062   1.213  -0.623  0.00  0.00    +0.026 A 
ATOM      8  C   UNL     1      -1.141   1.891  -0.619  0.00  0.00    +0.022 A 
ATOM      9  C   UNL     1      -1.234   3.135  -0.021  0.00  0.00    +0.042 A 
ATOM     10  C   UNL     1      -0.120   3.709   0.566  0.00  0.00    +0.041 A 
ATOM     11  C   UNL     1       1.088   3.038   0.559  0.00  0.00    +0.064 A 
ATOM     12 CL   UNL     1       2.486   3.758   1.294  0.00  0.00    -0.082 Cl
ATOM     13 CL   UNL     1      -2.751   3.981  -0.011  0.00  0.00    -0.083 Cl
ENDBRANCH   4   6
ENDBRANCH   1   2
BRANCH   1  14
ATOM     14  C   UNL     1       3.494  -2.448   0.267  0.00  0.00    +0.235 C 
ATOM     15  O   UNL     1       2.358  -2.873   0.263  0.00  0.00    -0.274 OA
ATOM     16  N   UNL     1       4.533  -3.301   0.367  0.00  0.00    -0.283 N 
ATOM     17  H   UNL     1       5.436  -2.958   0.451  0.00  0.00    +0.155 HD
BRANCH  16  18
ATOM     18  C   UNL     1       4.308  -4.683   0.349  0.00  0.00    +0.052 A 
ATOM     19  C   UNL     1       3.172  -5.195  -0.263  0.00  0.00    +0.026 A 
ATOM     20  C   UNL     1       2.952  -6.559  -0.280  0.00  0.00    +0.022 A 
ATOM     21  C   UNL     1       3.863  -7.415   0.312  0.00  0.00    +0.042 A 
ATOM     22  C   UNL     1       4.997  -6.909   0.923  0.00  0.00    +0.041 A 
ATOM     23  C   UNL     1       5.224  -5.545   0.939  0.00  0.00    +0.064 A 
ATOM     24 CL   UNL     1       6.649  -4.911   1.700  0.00  0.00    -0.082 Cl
ATOM     25 CL   UNL     1       3.584  -9.129   0.289  0.00  0.00    -0.083 Cl
ENDBRANCH  16  18
ENDBRANCH   1  14
BRANCH   1  27
ATOM     26  N   UNL     1       5.640   0.052   1.259  0.00  0.00    -0.096 NA
ATOM     27  C   UNL     1       4.489  -0.492   1.382  0.00  0.00    +0.148 C 
BRANCH  26  28
ATOM     28  O   UNL     1       6.339   0.497   2.407  0.00  0.00    -0.391 OA
BRANCH  28  30
ATOM     29  C   UNL     1       7.423   2.563   1.778  0.00  0.00    +0.054 C 
ATOM     30  C   UNL     1       7.610   1.085   2.122  0.00  0.00    +0.198 C 
ATOM     31  C   UNL     1       8.517   0.958   3.348  0.00  0.00    +0.054 C 
ENDBRANCH  28  30
ENDBRANCH  26  28
ENDBRANCH   1  27
TORSDOF 7
