REMARK  Name = ZINC44918125
REMARK  5 active torsions:
REMARK  status: ('A' for Active; 'I' for Inactive)
REMARK    1  A    between atoms: C_1  and  C_2
REMARK    2  A    between atoms: C_9  and  C_11
REMARK    3  A    between atoms: C_14  and  S_16
REMARK    4  A    between atoms: S_16  and  N_19
REMARK    5  A    between atoms: N_19  and  C_20
REMARK                            x       y       z     vdW  Elec       q    Type
REMARK                         _______ _______ _______ _____ _____    ______ ____
ROOT
ATOM      1  C   UNL     1       2.207  -0.120   3.091  0.00  0.00    +0.192 A 
ATOM      2  C   UNL     1       2.688   0.614   4.138  0.00  0.00    +0.057 A 
ATOM      3  C   UNL     1       3.509  -0.243   4.887  0.00  0.00    +0.072 A 
ATOM      4  C   UNL     1       3.494  -1.446   4.273  0.00  0.00    +0.258 A 
ATOM      5  O   UNL     1       2.705  -1.369   3.193  0.00  0.00    -0.432 OA
ENDROOT
BRANCH   1  13
ATOM      6  C   UNL     1       0.046   1.515  -0.036  0.00  0.00    +0.028 C 
ATOM      7  C   UNL     1      -0.005  -0.013   0.008  0.00  0.00    +0.073 C 
ATOM      8  C   UNL     1       0.587  -0.585  -1.284  0.00  0.00    +0.022 C 
ATOM      9  C   UNL     1       0.661  -2.109  -1.175  0.00  0.00    +0.003 C 
ATOM     10  C   UNL     1       1.577  -2.496  -0.012  0.00  0.00    +0.019 C 
ATOM     11  C   UNL     1       0.996  -1.946   1.294  0.00  0.00    +0.108 C 
ATOM     12  N   UNL     1       0.783  -0.499   1.149  0.00  0.00    -0.292 N 
ATOM     13  C   UNL     1       1.304   0.365   2.042  0.00  0.00    +0.282 C 
ATOM     14  O   UNL     1       1.025   1.548   1.978  0.00  0.00    -0.267 OA
ENDBRANCH   1  13
BRANCH   4  15
ATOM     15  S   UNL     1       4.365  -2.882   4.806  0.00  0.00    +0.091 S 
ATOM     16  O   UNL     1       4.542  -3.700   3.658  0.00  0.00    -0.150 OA
ATOM     17  O   UNL     1       5.458  -2.425   5.592  0.00  0.00    -0.150 OA
BRANCH  15  18
ATOM     18  N   UNL     1       3.361  -3.712   5.829  0.00  0.00    -0.190 NA
ATOM     19  C   UNL     1       2.117  -4.294   5.321  0.00  0.00    +0.128 C 
ATOM     20  H   UNL     1       3.598  -3.813   6.764  0.00  0.00    +0.148 HD
ENDBRANCH  15  18
ENDBRANCH   4  15
TORSDOF 3
