REMARK  Name = ZINC31862809
REMARK  7 active torsions:
REMARK  status: ('A' for Active; 'I' for Inactive)
REMARK    1  A    between atoms: C_1  and  C_2
REMARK    2  A    between atoms: C_3  and  C_8
REMARK    3  A    between atoms: C_4  and  C_7
REMARK    4  A    between atoms: C_8  and  O_9
REMARK    5  A    between atoms: O_9  and  C_10
REMARK    6  A    between atoms: C_13  and  C_16
REMARK    7  A    between atoms: C_24  and  N_25
REMARK                            x       y       z     vdW  Elec       q    Type
REMARK                         _______ _______ _______ _____ _____    ______ ____
ROOT
ATOM      1  C   UNL     1      -2.609  -2.082  -1.510  0.00  0.00    +0.121 A 
ATOM      2  C   UNL     1      -3.251  -2.623  -0.404  0.00  0.00    +0.046 A 
ATOM      3  C   UNL     1      -4.322  -3.474  -0.574  0.00  0.00    +0.015 A 
ATOM      4  C   UNL     1      -4.753  -3.801  -1.861  0.00  0.00    +0.020 A 
ATOM      5  C   UNL     1      -4.101  -3.260  -2.971  0.00  0.00    +0.015 A 
ATOM      6  C   UNL     1      -3.034  -2.405  -2.791  0.00  0.00    +0.046 A 
ENDROOT
BRANCH   4   7
ATOM      7  C   UNL     1      -5.896  -4.718  -2.049  0.00  0.00    +0.169 A 
ATOM      8  N   UNL     1      -6.363  -5.577  -1.165  0.00  0.00    -0.128 NA
ATOM      9  N   UNL     1      -7.368  -6.214  -1.654  0.00  0.00    -0.127 NA
ATOM     10  C   UNL     1      -7.598  -5.803  -2.891  0.00  0.00    +0.182 A 
ATOM     11  N   UNL     1      -6.665  -4.838  -3.175  0.00  0.00    -0.281 N 
ATOM     12  C   UNL     1      -6.652  -4.222  -4.393  0.00  0.00    +0.095 A 
ATOM     13  C   UNL     1      -7.556  -4.551  -5.340  0.00  0.00    +0.020 A 
ATOM     14  C   UNL     1      -8.525  -5.535  -5.086  0.00  0.00    +0.028 A 
ATOM     15  C   UNL     1      -8.552  -6.161  -3.871  0.00  0.00    +0.070 A 
BRANCH  15  16
ATOM     16  N   UNL     1      -9.509  -7.140  -3.601  0.00  0.00    -0.355 N 
ATOM     17  H   UNL     1     -10.248  -7.413  -4.369  0.00  0.00    +0.142 HD
ATOM     18  H   UNL     1      -9.524  -7.640  -2.621  0.00  0.00    +0.142 HD
ENDBRANCH  15  16
ENDBRANCH   4   7
BRANCH   1  19
ATOM     19  O   UNL     1      -1.557  -1.239  -1.337  0.00  0.00    -0.487 OA
BRANCH  19  20
ATOM     20  C   UNL     1      -1.171  -0.950   0.008  0.00  0.00    +0.269 C 
BRANCH  20  23
ATOM     21  C   UNL     1       1.983  -1.709  -0.031  0.00  0.00    +0.069 C 
ATOM     22  C   UNL     1       1.379  -0.328  -0.015  0.00  0.00    +0.087 A 
ATOM     23  C   UNL     1       0.003  -0.005   0.002  0.00  0.00    +0.054 A 
ATOM     24  C   UNL     1      -0.015   1.349   0.011  0.00  0.00    +0.141 A 
ATOM     25  O   UNL     1       1.265   1.746   0.000  0.00  0.00    -0.359 OA
ATOM     26  N   UNL     1       2.022   0.804  -0.014  0.00  0.00    -0.083 NA
ATOM     27  C   UNL     1      -1.235   2.235   0.024  0.00  0.00    +0.089 C 
ENDBRANCH  20  23
ENDBRANCH  19  20
ENDBRANCH   1  19
TORSDOF 5
