REMARK  Name = ZINC09187419
REMARK  7 active torsions:
REMARK  status: ('A' for Active; 'I' for Inactive)
REMARK    1  A    between atoms: C_9  and  C_11
REMARK    2  A    between atoms: C_11  and  C_32
REMARK    3  A    between atoms: C_12  and  C_13
REMARK    4  A    between atoms: C_16  and  O_19
REMARK    5  A    between atoms: O_19  and  C_20
REMARK    6  A    between atoms: C_20  and  C_21
REMARK    7  A    between atoms: N_23  and  C_24
REMARK                            x       y       z     vdW  Elec       q    Type
REMARK                         _______ _______ _______ _____ _____    ______ ____
ROOT
ATOM      1  C   UNL     1       2.398   1.361   0.145  0.00  0.00    -0.023 A 
ATOM      2  C   UNL     1       2.373  -0.040   0.124  0.00  0.00    +0.011 A 
ATOM      3  C   UNL     1       3.551  -0.748   0.186  0.00  0.00    +0.046 A 
ATOM      4  C   UNL     1       4.765  -0.075   0.279  0.00  0.00    +0.121 A 
ATOM      5  C   UNL     1       4.796   1.315   0.306  0.00  0.00    +0.046 A 
ATOM      6  C   UNL     1       3.624   2.033   0.239  0.00  0.00    +0.011 A 
ENDROOT
BRANCH   1   8
ATOM      7  C   UNL     1       0.056   1.584  -0.550  0.00  0.00    +0.094 C 
ATOM      8  C   UNL     1       1.146   2.120   0.074  0.00  0.00    +0.030 C 
BRANCH   7  17
ATOM      9  C   UNL     1      -5.473   3.915  -0.593  0.00  0.00    +0.002 A 
ATOM     10  C   UNL     1      -4.868   4.894   0.183  0.00  0.00    +0.002 A 
ATOM     11  C   UNL     1      -3.540   4.814   0.494  0.00  0.00    +0.030 A 
ATOM     12  C   UNL     1      -2.778   3.738   0.027  0.00  0.00    +0.089 A 
ATOM     13  C   UNL     1      -3.392   2.746  -0.758  0.00  0.00    +0.066 A 
ATOM     14  C   UNL     1      -4.742   2.844  -1.063  0.00  0.00    +0.028 A 
ATOM     15  N   UNL     1      -2.404   1.829  -1.063  0.00  0.00    -0.337 N 
ATOM     16  H   UNL     1      -2.513   0.999  -1.611  0.00  0.00    +0.167 HD
ATOM     17  C   UNL     1      -1.247   2.269  -0.475  0.00  0.00    +0.150 A 
ATOM     18  N   UNL     1      -1.476   3.389   0.169  0.00  0.00    -0.227 NA
ENDBRANCH   7  17
BRANCH   7  19
ATOM     19  C   UNL     1       0.181   0.359  -1.281  0.00  0.00    +0.103 C 
ATOM     20  N   UNL     1       0.280  -0.613  -1.861  0.00  0.00    -0.191 NA
ENDBRANCH   7  19
ENDBRANCH   1   8
BRANCH   4  21
ATOM     21  O   UNL     1       5.924  -0.778   0.345  0.00  0.00    -0.483 OA
BRANCH  21  22
ATOM     22  C   UNL     1       5.821  -2.203   0.312  0.00  0.00    +0.324 C 
BRANCH  22  23
ATOM     23  C   UNL     1       7.199  -2.808   0.395  0.00  0.00    +0.255 C 
ATOM     24  O   UNL     1       8.173  -2.090   0.473  0.00  0.00    -0.272 OA
ATOM     25  N   UNL     1       7.349  -4.148   0.381  0.00  0.00    -0.280 N 
ATOM     26  H   UNL     1       6.579  -4.720   0.239  0.00  0.00    +0.155 HD
BRANCH  25  27
ATOM     27  C   UNL     1       8.616  -4.713   0.571  0.00  0.00    +0.069 A 
ATOM     28  C   UNL     1       9.597  -4.007   1.254  0.00  0.00    +0.027 A 
ATOM     29  C   UNL     1      10.846  -4.566   1.440  0.00  0.00    +0.017 A 
ATOM     30  C   UNL     1      11.121  -5.829   0.947  0.00  0.00    +0.021 A 
ATOM     31  C   UNL     1      10.147  -6.537   0.266  0.00  0.00    +0.055 A 
ATOM     32  C   UNL     1       8.893  -5.984   0.081  0.00  0.00    +0.146 A 
ATOM     33  F   UNL     1       7.939  -6.677  -0.579  0.00  0.00    -0.204 F 
ATOM     34 BR   UNL     1      12.833  -6.590   1.205  0.00  0.00    -0.050 Br
ENDBRANCH  25  27
ENDBRANCH  22  23
ENDBRANCH  21  22
ENDBRANCH   4  21
TORSDOF 7
