REMARK  Name = ZINC09510344
REMARK  8 active torsions:
REMARK  status: ('A' for Active; 'I' for Inactive)
REMARK    1  A    between atoms: C_7  and  C_15
REMARK    2  A    between atoms: N_9  and  C_10
REMARK    3  A    between atoms: C_10  and  C_11
REMARK    4  A    between atoms: C_11  and  C_12
REMARK    5  A    between atoms: N_16  and  N_17
REMARK    6  A    between atoms: C_18  and  C_20
REMARK    7  A    between atoms: C_20  and  N_21
REMARK    8  A    between atoms: N_21  and  C_22
REMARK                            x       y       z     vdW  Elec       q    Type
REMARK                         _______ _______ _______ _____ _____    ______ ____
ROOT
ATOM      1  C   UNL     1       6.234  -3.904  -0.077  0.00  0.00    +0.001 A 
ATOM      2  C   UNL     1       7.546  -4.358  -0.092  0.00  0.00    +0.002 A 
ATOM      3  C   UNL     1       8.597  -3.467  -0.098  0.00  0.00    +0.026 A 
ATOM      4  C   UNL     1       8.347  -2.099  -0.088  0.00  0.00    +0.050 A 
ATOM      5  C   UNL     1       7.020  -1.640  -0.068  0.00  0.00    +0.008 A 
ATOM      6  C   UNL     1       5.966  -2.553  -0.068  0.00  0.00    +0.010 A 
ATOM      7  C   UNL     1       7.098  -0.169  -0.067  0.00  0.00    +0.020 A 
ATOM      8  C   UNL     1       8.420   0.150  -0.077  0.00  0.00    +0.096 A 
ATOM      9  N   UNL     1       9.167  -0.990  -0.090  0.00  0.00    -0.346 N 
ENDROOT
BRANCH   7  10
ATOM     10  C   UNL     1       5.966   0.772  -0.051  0.00  0.00    +0.140 C 
ATOM     11  N   UNL     1       4.748   0.323  -0.042  0.00  0.00    -0.188 NA
BRANCH  11  12
ATOM     12  N   UNL     1       3.671   1.218  -0.026  0.00  0.00    -0.206 N 
ATOM     13  C   UNL     1       2.406   0.752  -0.017  0.00  0.00    +0.249 C 
ATOM     14  O   UNL     1       2.201  -0.444  -0.021  0.00  0.00    -0.272 OA
ATOM     15  H   UNL     1       3.835   2.174  -0.023  0.00  0.00    +0.177 HD
BRANCH  13  16
ATOM     16  C   UNL     1       1.248   1.716  -0.001  0.00  0.00    +0.199 C 
BRANCH  16  17
ATOM     17  N   UNL     1      -0.011   0.966   0.007  0.00  0.00    -0.335 N 
ATOM     18  H   UNL     1       0.002  -0.004   0.002  0.00  0.00    +0.147 HD
BRANCH  17  19
ATOM     19  C   UNL     1      -1.230   1.648   0.017  0.00  0.00    +0.028 A 
ATOM     20  C   UNL     1      -1.251   3.037   0.030  0.00  0.00    +0.024 A 
ATOM     21  C   UNL     1      -2.458   3.708   0.035  0.00  0.00    +0.017 A 
ATOM     22  C   UNL     1      -3.646   2.999   0.037  0.00  0.00    +0.018 A 
ATOM     23  C   UNL     1      -3.628   1.615   0.029  0.00  0.00    +0.017 A 
ATOM     24  C   UNL     1      -2.425   0.939   0.019  0.00  0.00    +0.024 A 
ATOM     25 BR   UNL     1      -5.296   3.922   0.050  0.00  0.00    -0.050 Br
ENDBRANCH  17  19
ENDBRANCH  16  17
ENDBRANCH  13  16
ENDBRANCH  11  12
ENDBRANCH   7  10
BRANCH   9  26
ATOM     26  C   UNL     1      10.632  -1.032  -0.103  0.00  0.00    +0.131 C 
BRANCH  26  27
ATOM     27  C   UNL     1      11.125  -1.165  -1.545  0.00  0.00    +0.117 C 
BRANCH  27  28
ATOM     28  C   UNL     1      12.632  -1.207  -1.558  0.00  0.00    +0.212 C 
ATOM     29  O   UNL     1      13.249  -1.139  -0.517  0.00  0.00    -0.276 OA
ATOM     30  N   UNL     1      13.292  -1.322  -2.727  0.00  0.00    -0.329 N 
ATOM     31  H   UNL     1      12.798  -1.377  -3.560  0.00  0.00    +0.145 HD
ATOM     32  H   UNL     1      14.262  -1.350  -2.736  0.00  0.00    +0.145 HD
ENDBRANCH  27  28
ENDBRANCH  26  27
ENDBRANCH   9  26
TORSDOF 8
