REMARK  Name = ZINC14775971
REMARK  4 active torsions:
REMARK  status: ('A' for Active; 'I' for Inactive)
REMARK    1  A    between atoms: N_9  and  C_10
REMARK    2  A    between atoms: C_10  and  C_11
REMARK    3  A    between atoms: N_13  and  N_14
REMARK    4  A    between atoms: C_15  and  C_17
REMARK                            x       y       z     vdW  Elec       q    Type
REMARK                         _______ _______ _______ _____ _____    ______ ____
ROOT
ATOM      1  C   UNL     1       0.002  -0.004   0.002  0.00  0.00    +0.249 C 
ATOM      2  O   UNL     1      -0.506  -0.622   0.913  0.00  0.00    -0.272 OA
ATOM      3  N   UNL     1       0.585  -0.664  -1.018  0.00  0.00    -0.233 N 
ATOM      4  H   UNL     1       0.992  -0.170  -1.747  0.00  0.00    +0.173 HD
ENDROOT
BRANCH   3   5
ATOM      5  N   UNL     1       0.604  -2.065  -1.026  0.00  0.00    -0.228 N 
ATOM      6  C   UNL     1       1.187  -2.726  -2.046  0.00  0.00    +0.295 C 
ATOM      7  O   UNL     1       1.697  -2.105  -2.960  0.00  0.00    -0.265 OA
ATOM      8  H   UNL     1       0.198  -2.560  -0.297  0.00  0.00    +0.173 HD
BRANCH   6   9
ATOM      9  C   UNL     1       1.207  -4.191  -2.054  0.00  0.00    +0.192 A 
ATOM     10  C   UNL     1       1.756  -4.981  -3.023  0.00  0.00    +0.056 A 
ATOM     11  C   UNL     1       1.552  -6.311  -2.625  0.00  0.00    +0.058 A 
ATOM     12  C   UNL     1       0.886  -6.276  -1.448  0.00  0.00    +0.171 A 
ATOM     13  O   UNL     1       0.680  -4.997  -1.107  0.00  0.00    -0.444 OA
ATOM     14 BR   UNL     1       0.337  -7.784  -0.448  0.00  0.00    -0.008 Br
ENDBRANCH   6   9
ENDBRANCH   3   5
BRANCH   1  15
ATOM     15  C   UNL     1      -0.018   1.503   0.010  0.00  0.00    +0.219 C 
BRANCH  15  24
ATOM     16  C   UNL     1       0.486   2.683   5.105  0.00  0.00    +0.001 A 
ATOM     17  C   UNL     1       1.472   2.225   4.242  0.00  0.00    +0.002 A 
ATOM     18  C   UNL     1       1.182   1.958   2.922  0.00  0.00    +0.026 A 
ATOM     19  C   UNL     1      -0.112   2.148   2.446  0.00  0.00    +0.049 A 
ATOM     20  C   UNL     1      -1.107   2.612   3.325  0.00  0.00    -0.000 A 
ATOM     21  C   UNL     1      -0.791   2.877   4.659  0.00  0.00    +0.010 A 
ATOM     22  C   UNL     1      -2.336   2.704   2.532  0.00  0.00    +0.027 A 
ATOM     23  C   UNL     1      -2.027   2.317   1.284  0.00  0.00    +0.087 A 
ATOM     24  N   UNL     1      -0.704   1.975   1.216  0.00  0.00    -0.338 N 
ENDBRANCH  15  24
ENDBRANCH   1  15
TORSDOF 4
