REMARK  Name = ZINC21673270
REMARK  10 active torsions:
REMARK  status: ('A' for Active; 'I' for Inactive)
REMARK    1  A    between atoms: C_1  and  C_2
REMARK    2  A    between atoms: C_2  and  C_4
REMARK    3  A    between atoms: C_2  and  N_15
REMARK    4  A    between atoms: N_6  and  C_7
REMARK    5  A    between atoms: C_8  and  C_12
REMARK    6  A    between atoms: N_18  and  S_21
REMARK    7  A    between atoms: S_21  and  C_24
REMARK    8  A    between atoms: C_27  and  O_33
REMARK    9  A    between atoms: C_28  and  N_30
REMARK   10  A    between atoms: O_33  and  C_34
REMARK                            x       y       z     vdW  Elec       q    Type
REMARK                         _______ _______ _______ _____ _____    ______ ____
ROOT
ATOM      1  N   UNL     1      -2.433   0.975   0.019  0.00  0.00    +0.389 N 
ATOM      2  C   UNL     1      -2.391   0.129  -1.182  0.00  0.00    -0.060 C 
ATOM      3  C   UNL     1      -3.441  -0.980  -1.058  0.00  0.00    +0.091 C 
ATOM      4  N   UNL     1      -4.745  -0.360  -0.779  0.00  0.00    -0.180 NA
ATOM      5  C   UNL     1      -4.834   0.606   0.326  0.00  0.00    +0.091 C 
ATOM      6  C   UNL     1      -3.730   1.653   0.148  0.00  0.00    -0.060 C 
ATOM      7  H   UNL     1      -2.310   0.319   0.894  0.00  0.00    -0.081 HD
ENDROOT
BRANCH   4   8
ATOM      8  S   UNL     1      -6.078  -0.740  -1.686  0.00  0.00    +0.061 S 
ATOM      9  O   UNL     1      -5.838  -2.025  -2.243  0.00  0.00    -0.153 OA
ATOM     10  O   UNL     1      -7.213  -0.461  -0.877  0.00  0.00    -0.153 OA
BRANCH   8  11
ATOM     11  C   UNL     1      -6.131   0.393  -3.035  0.00  0.00    +0.108 A 
ATOM     12  C   UNL     1      -6.817   1.586  -2.908  0.00  0.00    +0.032 A 
ATOM     13  C   UNL     1      -6.855   2.478  -3.962  0.00  0.00    +0.050 A 
ATOM     14  C   UNL     1      -6.213   2.170  -5.153  0.00  0.00    +0.150 A 
ATOM     15  C   UNL     1      -5.530   0.970  -5.280  0.00  0.00    +0.169 A 
ATOM     16  C   UNL     1      -5.490   0.084  -4.220  0.00  0.00    +0.065 A 
BRANCH  15  17
ATOM     17  N   UNL     1      -4.843   0.639  -6.548  0.00  0.00    +0.060 N 
ATOM     18  O   UNL     1      -4.243  -0.415  -6.659  0.00  0.00    -0.126 OA
ATOM     19  O   UNL     1      -4.878   1.421  -7.482  0.00  0.00    -0.126 OA
ENDBRANCH  15  17
BRANCH  14  20
ATOM     20  O   UNL     1      -6.253   3.044  -6.193  0.00  0.00    -0.493 OA
ATOM     21  C   UNL     1      -6.975   4.260  -5.991  0.00  0.00    +0.277 C 
ENDBRANCH  14  20
ENDBRANCH   8  11
ENDBRANCH   4   8
BRANCH   1  23
ATOM     22  C   UNL     1      -1.429   2.829  -1.225  0.00  0.00    -0.004 C 
ATOM     23  C   UNL     1      -1.330   1.944   0.019  0.00  0.00    +0.017 C 
BRANCH  23  24
ATOM     24  C   UNL     1      -0.014   1.209   0.009  0.00  0.00    +0.204 C 
ATOM     25  O   UNL     1       0.002  -0.004   0.002  0.00  0.00    -0.277 OA
ATOM     26  N   UNL     1       1.143   1.898   0.001  0.00  0.00    -0.281 N 
ATOM     27  H   UNL     1       1.129   2.998   0.007  0.00  0.00    +0.155 HD
BRANCH  26  28
ATOM     28  C   UNL     1       2.354   1.221  -0.014  0.00  0.00    +0.084 A 
ATOM     29  C   UNL     1       3.639   1.750  -0.029  0.00  0.00    +0.065 A 
ATOM     30  C   UNL     1       4.730   0.805  -0.039  0.00  0.00    +0.022 A 
ATOM     31  C   UNL     1       4.410  -0.501  -0.044  0.00  0.00    +0.048 A 
ATOM     32  S   UNL     1       2.630  -0.488  -0.026  0.00  0.00    -0.081 S 
BRANCH  29  33
ATOM     33  C   UNL     1       3.875   3.198  -0.031  0.00  0.00    +0.244 C 
ATOM     34  O   UNL     1       2.932   3.968  -0.019  0.00  0.00    -0.270 OA
ATOM     35  N   UNL     1       5.135   3.675  -0.045  0.00  0.00    -0.325 N 
ATOM     36  H   UNL     1       5.312   4.761  -0.047  0.00  0.00    +0.145 HD
ATOM     37  H   UNL     1       5.987   2.979  -0.057  0.00  0.00    +0.145 HD
ENDBRANCH  29  33
ENDBRANCH  26  28
ENDBRANCH  23  24
ENDBRANCH   1  23
TORSDOF 8
