REMARK  Name = ZINC59804469
REMARK  10 active torsions:
REMARK  status: ('A' for Active; 'I' for Inactive)
REMARK    1  A    between atoms: C_6  and  C_7
REMARK    2  A    between atoms: C_10  and  S_13
REMARK    3  A    between atoms: N_11  and  N_12
REMARK    4  A    between atoms: S_13  and  C_14
REMARK    5  A    between atoms: C_14  and  C_15
REMARK    6  A    between atoms: C_15  and  C_16
REMARK    7  A    between atoms: N_18  and  C_19
REMARK    8  A    between atoms: C_22  and  S_25
REMARK    9  A    between atoms: S_25  and  N_28
REMARK   10  A    between atoms: N_28  and  C_29
REMARK                            x       y       z     vdW  Elec       q    Type
REMARK                         _______ _______ _______ _____ _____    ______ ____
ROOT
ATOM      1  C   UNL     1      -8.153  -6.492  -0.927  0.00  0.00    +0.218 C 
ATOM      2  O   UNL     1      -9.017  -7.122  -1.500  0.00  0.00    -0.275 OA
ATOM      3  N   UNL     1      -8.491  -5.528  -0.049  0.00  0.00    -0.285 N 
ATOM      4  H   UNL     1      -7.803  -5.071   0.459  0.00  0.00    +0.155 HD
ENDROOT
BRANCH   3   5
ATOM      5  C   UNL     1      -9.836  -5.186   0.130  0.00  0.00    +0.033 A 
ATOM      6  C   UNL     1     -10.191  -3.867   0.382  0.00  0.00    +0.025 A 
ATOM      7  C   UNL     1     -11.520  -3.533   0.558  0.00  0.00    +0.030 A 
ATOM      8  C   UNL     1     -12.496  -4.510   0.485  0.00  0.00    +0.105 A 
ATOM      9  C   UNL     1     -12.145  -5.824   0.236  0.00  0.00    +0.030 A 
ATOM     10  C   UNL     1     -10.819  -6.164   0.052  0.00  0.00    +0.025 A 
BRANCH   8  11
ATOM     11  S   UNL     1     -14.189  -4.080   0.711  0.00  0.00    +0.059 S 
ATOM     12  O   UNL     1     -14.855  -5.261   1.137  0.00  0.00    -0.153 OA
ATOM     13  O   UNL     1     -14.205  -2.880   1.472  0.00  0.00    -0.153 OA
BRANCH  11  14
ATOM     14  N   UNL     1     -14.802  -3.702  -0.780  0.00  0.00    -0.187 NA
ATOM     15  H   UNL     1     -15.099  -2.798  -0.968  0.00  0.00    +0.148 HD
BRANCH  14  16
ATOM     16  C   UNL     1     -14.895  -4.734  -1.816  0.00  0.00    +0.077 C 
ATOM     17  C   UNL     1     -13.656  -4.669  -2.713  0.00  0.00    +0.020 C 
ATOM     18  C   UNL     1     -13.754  -5.747  -3.795  0.00  0.00    +0.002 C 
ATOM     19  C   UNL     1     -15.007  -5.510  -4.639  0.00  0.00    +0.000 C 
ATOM     20  C   UNL     1     -16.245  -5.574  -3.743  0.00  0.00    +0.002 C 
ATOM     21  C   UNL     1     -16.148  -4.497  -2.661  0.00  0.00    +0.020 C 
ENDBRANCH  14  16
ENDBRANCH  11  14
ENDBRANCH   8  11
ENDBRANCH   3   5
BRANCH   1  22
ATOM     22  C   UNL     1      -6.700  -6.789  -1.198  0.00  0.00    +0.107 C 
BRANCH  22  23
ATOM     23  C   UNL     1      -6.593  -7.918  -2.225  0.00  0.00    +0.086 C 
BRANCH  23  24
ATOM     24  S   UNL     1      -4.844  -8.275  -2.551  0.00  0.00    -0.084 S 
BRANCH  24  28
ATOM     25  C   UNL     1      -4.329 -11.139  -5.158  0.00  0.00    +0.182 A 
ATOM     26  N   UNL     1      -5.636 -11.052  -5.080  0.00  0.00    -0.127 NA
ATOM     27  N   UNL     1      -5.966 -10.133  -4.244  0.00  0.00    -0.121 NA
ATOM     28  C   UNL     1      -4.889  -9.577  -3.737  0.00  0.00    +0.209 A 
ATOM     29  N   UNL     1      -3.810 -10.200  -4.297  0.00  0.00    -0.224 N 
BRANCH  25  35
ATOM     30  C   UNL     1      -4.193 -13.171  -6.593  0.00  0.00    +0.014 A 
ATOM     31  C   UNL     1      -3.470 -14.039  -7.384  0.00  0.00    +0.039 A 
ATOM     32  C   UNL     1      -2.119 -13.822  -7.600  0.00  0.00    +0.123 A 
ATOM     33  C   UNL     1      -1.485 -12.734  -7.021  0.00  0.00    +0.039 A 
ATOM     34  C   UNL     1      -2.198 -11.860  -6.228  0.00  0.00    +0.014 A 
ATOM     35  C   UNL     1      -3.560 -12.073  -6.008  0.00  0.00    +0.021 A 
ATOM     36  F   UNL     1      -1.416 -14.676  -8.376  0.00  0.00    -0.205 F 
ENDBRANCH  25  35
BRANCH  29  37
ATOM     37  N   UNL     1      -2.490  -9.944  -4.053  0.00  0.00    -0.295 N 
ATOM     38  H   UNL     1      -2.136  -9.240  -4.684  0.00  0.00    +0.163 HD
ATOM     39  H   UNL     1      -2.346  -9.673  -3.092  0.00  0.00    +0.163 HD
ENDBRANCH  29  37
ENDBRANCH  24  28
ENDBRANCH  23  24
ENDBRANCH  22  23
ENDBRANCH   1  22
TORSDOF 10
