REMARK  Name = ZINC07981041
REMARK  11 active torsions:
REMARK  status: ('A' for Active; 'I' for Inactive)
REMARK    1  A    between atoms: C_1  and  C_2
REMARK    2  A    between atoms: C_2  and  C_3
REMARK    3  A    between atoms: C_3  and  C_4
REMARK    4  A    between atoms: C_4  and  N_5
REMARK    5  A    between atoms: C_6  and  N_32
REMARK    6  A    between atoms: C_7  and  N_14
REMARK    7  A    between atoms: N_14  and  C_15
REMARK    8  A    between atoms: C_16  and  C_18
REMARK    9  A    between atoms: C_21  and  O_24
REMARK   10  A    between atoms: O_24  and  C_25
REMARK   11  A    between atoms: C_25  and  C_26
REMARK                            x       y       z     vdW  Elec       q    Type
REMARK                         _______ _______ _______ _____ _____    ______ ____
ROOT
ATOM      1  N   UNL     1       0.397  -2.600  -6.157  0.00  0.00    -0.263 N 
ATOM      2  C   UNL     1      -1.011  -2.216  -6.025  0.00  0.00    +0.139 C 
ATOM      3  C   UNL     1       0.782  -3.417  -7.157  0.00  0.00    +0.251 C 
ATOM      4  O   UNL     1      -0.049  -3.898  -7.904  0.00  0.00    -0.270 OA
ENDROOT
BRANCH   1   7
ATOM      5  N   UNL     1       2.218  -1.966  -3.029  0.00  0.00    -0.280 N 
ATOM      6  C   UNL     1       1.274  -2.456  -3.902  0.00  0.00    +0.127 A 
ATOM      7  C   UNL     1       1.349  -2.113  -5.237  0.00  0.00    +0.140 A 
ATOM      8  C   UNL     1       2.392  -1.271  -5.665  0.00  0.00    +0.277 A 
ATOM      9  O   UNL     1       2.482  -0.952  -6.838  0.00  0.00    -0.266 OA
ATOM     10  N   UNL     1       3.291  -0.818  -4.768  0.00  0.00    -0.273 N 
ATOM     11  H   UNL     1       4.010  -0.238  -5.062  0.00  0.00    +0.173 HD
ATOM     12  C   UNL     1       3.199  -1.158  -3.470  0.00  0.00    +0.331 A 
ATOM     13  O   UNL     1       4.021  -0.732  -2.682  0.00  0.00    -0.246 OA
BRANCH   6  14
ATOM     14  N   UNL     1       0.269  -3.277  -3.450  0.00  0.00    -0.343 N 
ATOM     15  H   UNL     1       0.156  -3.427  -2.499  0.00  0.00    +0.144 HD
ATOM     16  H   UNL     1      -0.328  -3.706  -4.083  0.00  0.00    +0.144 HD
ENDBRANCH   6  14
BRANCH   5  17
ATOM     17  C   UNL     1       2.150  -2.322  -1.610  0.00  0.00    +0.128 C 
BRANCH  17  18
ATOM     18  C   UNL     1       1.292  -1.296  -0.867  0.00  0.00    +0.021 C 
BRANCH  18  20
ATOM     19  C   UNL     1       0.363  -0.641   1.358  0.00  0.00    +0.004 C 
ATOM     20  C   UNL     1       1.222  -1.667   0.615  0.00  0.00    -0.002 C 
ENDBRANCH  18  20
ENDBRANCH  17  18
ENDBRANCH   5  17
ENDBRANCH   1   7
BRANCH   3  21
ATOM     21  C   UNL     1       2.212  -3.727  -7.347  0.00  0.00    +0.037 A 
ATOM     22  C   UNL     1       3.079  -3.732  -6.251  0.00  0.00    +0.016 A 
ATOM     23  C   UNL     1       4.413  -4.023  -6.432  0.00  0.00    +0.046 A 
ATOM     24  C   UNL     1       4.897  -4.312  -7.702  0.00  0.00    +0.121 A 
ATOM     25  C   UNL     1       4.038  -4.308  -8.795  0.00  0.00    +0.046 A 
ATOM     26  C   UNL     1       2.702  -4.024  -8.621  0.00  0.00    +0.016 A 
BRANCH  24  27
ATOM     27  O   UNL     1       6.213  -4.597  -7.876  0.00  0.00    -0.489 OA
BRANCH  27  28
ATOM     28  C   UNL     1       6.643  -4.885  -9.208  0.00  0.00    +0.260 C 
BRANCH  28  29
ATOM     29  C   UNL     1       8.144  -5.181  -9.206  0.00  0.00    +0.156 C 
ATOM     30  C   UNL     1       8.642  -5.374 -10.655  0.00  0.00    +0.037 C 
ATOM     31  C   UNL     1       9.655  -6.542 -10.503  0.00  0.00    +0.031 C 
ATOM     32  C   UNL     1       8.982  -7.369  -9.378  0.00  0.00    +0.160 C 
ATOM     33  O   UNL     1       8.399  -6.397  -8.493  0.00  0.00    -0.373 OA
ENDBRANCH  28  29
ENDBRANCH  27  28
ENDBRANCH  24  27
ENDBRANCH   3  21
TORSDOF 9
