REMARK  Name = ZINC25001859
REMARK  8 active torsions:
REMARK  status: ('A' for Active; 'I' for Inactive)
REMARK    1  A    between atoms: C_1  and  C_2
REMARK    2  A    between atoms: C_2  and  C_4
REMARK    3  A    between atoms: C_2  and  N_13
REMARK    4  A    between atoms: C_7  and  O_11
REMARK    5  A    between atoms: O_11  and  C_12
REMARK    6  A    between atoms: C_14  and  C_16
REMARK    7  A    between atoms: N_21  and  S_23
REMARK    8  A    between atoms: S_23  and  C_26
REMARK                            x       y       z     vdW  Elec       q    Type
REMARK                         _______ _______ _______ _____ _____    ______ ____
ROOT
ATOM      1  C   UNL     1      -1.330   1.944   0.019  0.00  0.00    +0.091 C 
ATOM      2  C   UNL     1      -1.419   2.813   1.276  0.00  0.00    +0.015 C 
ATOM      3  C   UNL     1      -2.740   3.586   1.270  0.00  0.00    +0.018 C 
ATOM      4  C   UNL     1      -3.907   2.594   1.285  0.00  0.00    +0.109 C 
ATOM      5  N   UNL     1      -3.749   1.662   0.160  0.00  0.00    -0.176 NA
ATOM      6  C   UNL     1      -2.481   0.934   0.019  0.00  0.00    +0.122 C 
ENDROOT
BRANCH   1   8
ATOM      7  N   UNL     1       1.143   1.898   0.001  0.00  0.00    -0.308 N 
ATOM      8  C   UNL     1      -0.014   1.209   0.009  0.00  0.00    +0.218 C 
ATOM      9  O   UNL     1       0.002  -0.004   0.002  0.00  0.00    -0.275 OA
ATOM     10  H   UNL     1       1.129   2.998   0.007  0.00  0.00    +0.149 HD
BRANCH   7  12
ATOM     11  C   UNL     1       2.792   0.832  -1.457  0.00  0.00    +0.033 C 
ATOM     12  C   UNL     1       2.422   1.183  -0.015  0.00  0.00    +0.100 C 
BRANCH  12  13
ATOM     13  C   UNL     1       3.495   2.058   0.580  0.00  0.00    -0.025 A 
ATOM     14  C   UNL     1       3.523   3.410   0.289  0.00  0.00    +0.009 A 
ATOM     15  C   UNL     1       4.502   4.216   0.837  0.00  0.00    +0.049 A 
ATOM     16  C   UNL     1       5.465   3.668   1.671  0.00  0.00    +0.155 A 
ATOM     17  C   UNL     1       5.438   2.309   1.959  0.00  0.00    +0.165 A 
ATOM     18  C   UNL     1       4.452   1.508   1.412  0.00  0.00    +0.047 A 
ATOM     19  F   UNL     1       6.374   1.772   2.771  0.00  0.00    -0.202 F 
BRANCH  16  20
ATOM     20  O   UNL     1       6.432   4.459   2.206  0.00  0.00    -0.492 OA
ATOM     21  C   UNL     1       6.397   5.847   1.867  0.00  0.00    +0.277 C 
ENDBRANCH  16  20
ENDBRANCH  12  13
ENDBRANCH   7  12
ENDBRANCH   1   8
BRANCH   5  22
ATOM     22  S   UNL     1      -4.978   1.435  -0.927  0.00  0.00    +0.061 S 
ATOM     23  O   UNL     1      -5.781   2.606  -0.881  0.00  0.00    -0.153 OA
ATOM     24  O   UNL     1      -4.376   0.970  -2.128  0.00  0.00    -0.153 OA
BRANCH  22  25
ATOM     25  C   UNL     1      -5.975   0.116  -0.320  0.00  0.00    +0.106 A 
ATOM     26  C   UNL     1      -5.694  -1.188  -0.685  0.00  0.00    +0.029 A 
ATOM     27  C   UNL     1      -6.473  -2.223  -0.205  0.00  0.00    +0.017 A 
ATOM     28  C   UNL     1      -7.540  -1.955   0.633  0.00  0.00    +0.018 A 
ATOM     29  C   UNL     1      -7.824  -0.650   0.995  0.00  0.00    +0.017 A 
ATOM     30  C   UNL     1      -7.041   0.385   0.518  0.00  0.00    +0.029 A 
ATOM     31 BR   UNL     1      -8.610  -3.371   1.285  0.00  0.00    -0.050 Br
ENDBRANCH  22  25
ENDBRANCH   5  22
TORSDOF 6
