REMARK  Name = ZINC14751072
REMARK  7 active torsions:
REMARK  status: ('A' for Active; 'I' for Inactive)
REMARK    1  A    between atoms: C_1  and  N_2
REMARK    2  A    between atoms: C_5  and  C_7
REMARK    3  A    between atoms: N_9  and  C_10
REMARK    4  A    between atoms: N_9  and  C_11
REMARK    5  A    between atoms: C_11  and  C_12
REMARK    6  A    between atoms: C_18  and  N_57
REMARK    7  A    between atoms: C_22  and  N_57
REMARK                            x       y       z     vdW  Elec       q    Type
REMARK                         _______ _______ _______ _____ _____    ______ ____
ROOT
ATOM      1  C   UNL     1      -4.641  -0.175   6.320  0.00  0.00    +0.172 C 
ATOM      2  N   UNL     1      -4.564   0.896   5.324  0.00  0.00    -0.270 N 
ATOM      3  C   UNL     1      -5.072   2.130   5.479  0.00  0.00    +0.043 A 
ATOM      4  C   UNL     1      -4.795   2.823   4.348  0.00  0.00    +0.004 A 
ATOM      5  C   UNL     1      -4.102   1.933   3.510  0.00  0.00    +0.151 A 
ATOM      6  N   UNL     1      -3.999   0.793   4.171  0.00  0.00    -0.166 NA
ATOM      7  C   UNL     1      -5.200   4.249   4.099  0.00  0.00    +0.023 C 
ATOM      8  C   UNL     1      -6.278   4.631   5.123  0.00  0.00    -0.067 C 
ATOM      9  C   UNL     1      -5.812   4.235   6.527  0.00  0.00    -0.009 C 
ATOM     10  C   UNL     1      -5.812   2.707   6.658  0.00  0.00    +0.054 C 
ENDROOT
BRANCH   5  11
ATOM     11  C   UNL     1      -3.583   2.219   2.157  0.00  0.00    +0.267 C 
ATOM     12  O   UNL     1      -3.650   3.345   1.705  0.00  0.00    -0.268 OA
ATOM     13  N   UNL     1      -3.034   1.230   1.423  0.00  0.00    -0.292 N 
ATOM     14  C   UNL     1      -2.871  -0.106   2.000  0.00  0.00    +0.133 C 
BRANCH  13  15
ATOM     15  C   UNL     1      -2.601   1.492   0.048  0.00  0.00    +0.182 C 
BRANCH  15  16
ATOM     16  C   UNL     1      -1.163   1.944   0.052  0.00  0.00    +0.122 A 
ATOM     17  C   UNL     1      -0.086   1.144  -0.040  0.00  0.00    +0.046 A 
ATOM     18  C   UNL     1       1.052   1.982  -0.002  0.00  0.00    +0.041 A 
ATOM     19  C   UNL     1       0.602   3.244   0.116  0.00  0.00    +0.195 A 
ATOM     20  O   UNL     1      -0.740   3.215   0.152  0.00  0.00    -0.466 OA
ENDBRANCH  15  16
ENDBRANCH  13  15
ENDBRANCH   5  11
BRANCH   8  21
ATOM     21  N   UNL     1      -6.501   6.088   5.071  0.00  0.00    +0.383 N 
ATOM     22  H   UNL     1      -6.395   6.413   4.102  0.00  0.00    -0.085 HD
ATOM     23  H   UNL     1      -5.809   6.558   5.667  0.00  0.00    -0.085 HD
BRANCH  21  24
ATOM     24  C   UNL     1      -7.857   6.416   5.548  0.00  0.00    -0.063 C 
ATOM     25  C   UNL     1      -8.855   6.466   4.372  0.00  0.00    +0.020 C 
ATOM     26  C   UNL     1      -9.822   7.578   4.719  0.00  0.00    -0.046 A 
ATOM     27  C   UNL     1     -11.079   7.865   4.213  0.00  0.00    +0.004 A 
ATOM     28  C   UNL     1     -11.789   8.950   4.690  0.00  0.00    +0.000 A 
ATOM     29  C   UNL     1     -11.243   9.753   5.675  0.00  0.00    +0.000 A 
ATOM     30  C   UNL     1      -9.990   9.468   6.180  0.00  0.00    +0.004 A 
ATOM     31  C   UNL     1      -9.277   8.380   5.704  0.00  0.00    -0.046 A 
ATOM     32  C   UNL     1      -7.907   7.862   6.086  0.00  0.00    +0.020 C 
ENDBRANCH  21  24
ENDBRANCH   8  21
TORSDOF 5
