REMARK  Name = ZINC21322558
REMARK  9 active torsions:
REMARK  status: ('A' for Active; 'I' for Inactive)
REMARK    1  A    between atoms: C_1  and  C_2
REMARK    2  A    between atoms: C_2  and  C_3
REMARK    3  A    between atoms: C_3  and  C_23
REMARK    4  A    between atoms: N_4  and  N_5
REMARK    5  A    between atoms: C_9  and  S_12
REMARK    6  A    between atoms: N_10  and  N_11
REMARK    7  A    between atoms: S_12  and  C_13
REMARK    8  A    between atoms: C_13  and  C_14
REMARK    9  A    between atoms: C_14  and  C_16
REMARK                            x       y       z     vdW  Elec       q    Type
REMARK                         _______ _______ _______ _____ _____    ______ ____
ROOT
ATOM      1  N   UNL     1       0.556  -1.961   1.002  0.00  0.00    -0.204 N 
ATOM      2  C   UNL     1       1.258  -2.626   1.997  0.00  0.00    +0.254 A 
ATOM      3  N   UNL     1       2.089  -2.079   2.850  0.00  0.00    -0.109 NA
ATOM      4  N   UNL     1       2.583  -3.091   3.683  0.00  0.00    -0.119 NA
ATOM      5  C   UNL     1       2.037  -4.224   3.312  0.00  0.00    +0.210 A 
ATOM      6  N   UNL     1       1.200  -3.966   2.264  0.00  0.00    -0.211 N 
ATOM      7  H   UNL     1      -0.119  -2.521   0.337  0.00  0.00    +0.178 HD
ENDROOT
BRANCH   6   8
ATOM      8  N   UNL     1       0.441  -4.885   1.597  0.00  0.00    -0.294 N 
ATOM      9  H   UNL     1       0.469  -5.943   1.896  0.00  0.00    +0.163 HD
ATOM     10  H   UNL     1      -0.200  -4.567   0.761  0.00  0.00    +0.163 HD
ENDBRANCH   6   8
BRANCH   1  12
ATOM     11  C   UNL     1      -0.030   0.061  -0.015  0.00  0.00    +0.066 C 
ATOM     12  N   UNL     1       0.707  -0.578   0.843  0.00  0.00    -0.184 NA
BRANCH  11  13
ATOM     13  C   UNL     1      -1.131  -0.635  -0.705  0.00  0.00    -0.002 A 
ATOM     14  C   UNL     1      -1.390  -0.376  -2.053  0.00  0.00    +0.010 A 
ATOM     15  C   UNL     1      -2.419  -1.035  -2.693  0.00  0.00    +0.001 A 
ATOM     16  C   UNL     1      -3.200  -1.944  -2.001  0.00  0.00    +0.000 A 
ATOM     17  C   UNL     1      -2.952  -2.202  -0.664  0.00  0.00    +0.001 A 
ATOM     18  C   UNL     1      -1.924  -1.554  -0.012  0.00  0.00    +0.010 A 
ENDBRANCH  11  13
BRANCH  11  20
ATOM     19  C   UNL     1      -0.473   2.383   0.735  0.00  0.00    +0.010 C 
ATOM     20  C   UNL     1       0.240   1.516  -0.304  0.00  0.00    +0.054 C 
ENDBRANCH  11  20
ENDBRANCH   1  12
BRANCH   5  21
ATOM     21  S   UNL     1       2.328  -5.802   4.040  0.00  0.00    -0.076 S 
BRANCH  21  22
ATOM     22  C   UNL     1       3.516  -5.460   5.368  0.00  0.00    +0.157 C 
BRANCH  22  23
ATOM     23  C   UNL     1       3.854  -6.743   6.082  0.00  0.00    +0.173 C 
ATOM     24  O   UNL     1       3.344  -7.786   5.730  0.00  0.00    -0.291 OA
BRANCH  23  25
ATOM     25  C   UNL     1       4.803  -6.731   7.206  0.00  0.00    +0.018 A 
ATOM     26  C   UNL     1       5.398  -5.532   7.611  0.00  0.00    +0.012 A 
ATOM     27  C   UNL     1       6.281  -5.527   8.669  0.00  0.00    +0.016 A 
ATOM     28  C   UNL     1       6.590  -6.709   9.323  0.00  0.00    +0.018 A 
ATOM     29  C   UNL     1       6.010  -7.902   8.923  0.00  0.00    +0.016 A 
ATOM     30  C   UNL     1       5.120  -7.921   7.871  0.00  0.00    +0.012 A 
ATOM     31 BR   UNL     1       7.809  -6.694  10.768  0.00  0.00    -0.050 Br
ENDBRANCH  23  25
ENDBRANCH  22  23
ENDBRANCH  21  22
ENDBRANCH   5  21
TORSDOF 8
