REMARK  Name = ZINC00703892
REMARK  7 active torsions:
REMARK  status: ('A' for Active; 'I' for Inactive)
REMARK    1  A    between atoms: C_1  and  O_2
REMARK    2  A    between atoms: O_2  and  C_3
REMARK    3  A    between atoms: C_6  and  N_9
REMARK    4  A    between atoms: C_10  and  C_20
REMARK    5  A    between atoms: C_15  and  C_18
REMARK    6  A    between atoms: C_16  and  S_17
REMARK    7  A    between atoms: C_23  and  C_25
REMARK                            x       y       z     vdW  Elec       q    Type
REMARK                         _______ _______ _______ _____ _____    ______ ____
ROOT
ATOM      1  N   UNL     1       0.002  -0.004   0.002  0.00  0.00    -0.268 N 
ATOM      2  C   UNL     1      -1.244  -0.768   0.120  0.00  0.00    +0.234 C 
ATOM      3  N   UNL     1      -1.264  -1.839  -0.878  0.00  0.00    -0.286 N 
ATOM      4  C   UNL     1      -0.117  -2.416  -1.288  0.00  0.00    +0.258 C 
ATOM      5  O   UNL     1      -0.145  -3.336  -2.086  0.00  0.00    -0.269 OA
ATOM      6  C   UNL     1       1.163  -1.930  -0.769  0.00  0.00    +0.141 C 
ATOM      7  C   UNL     1       1.187  -0.686  -0.122  0.00  0.00    +0.090 C 
ATOM      8  H   UNL     1      -2.111  -2.138  -1.246  0.00  0.00    +0.151 HD
ENDROOT
BRANCH   1  12
ATOM      9  C   UNL     1      -0.055   4.165   0.025  0.00  0.00    +0.120 A 
ATOM     10  C   UNL     1       0.316   3.482  -1.125  0.00  0.00    +0.047 A 
ATOM     11  C   UNL     1       0.336   2.102  -1.133  0.00  0.00    +0.027 A 
ATOM     12  C   UNL     1      -0.017   1.396   0.010  0.00  0.00    +0.037 A 
ATOM     13  C   UNL     1      -0.394   2.079   1.158  0.00  0.00    +0.027 A 
ATOM     14  C   UNL     1      -0.407   3.460   1.167  0.00  0.00    +0.047 A 
BRANCH   9  16
ATOM     15  C   UNL     1      -0.467   6.161   1.250  0.00  0.00    +0.277 C 
ATOM     16  O   UNL     1      -0.074   5.524   0.032  0.00  0.00    -0.495 OA
ENDBRANCH   9  16
ENDBRANCH   1  12
BRANCH   2  17
ATOM     17  C   UNL     1      -1.337  -1.366   1.500  0.00  0.00    +0.144 A 
ATOM     18  C   UNL     1      -1.965  -2.515   1.818  0.00  0.00    +0.049 A 
ATOM     19  C   UNL     1      -1.807  -2.702   3.205  0.00  0.00    +0.050 A 
ATOM     20  C   UNL     1      -1.090  -1.642   3.664  0.00  0.00    +0.137 A 
ATOM     21  O   UNL     1      -0.812  -0.840   2.619  0.00  0.00    -0.456 OA
BRANCH  20  22
ATOM     22  C   UNL     1      -0.686  -1.410   5.067  0.00  0.00    +0.036 A 
ATOM     23  C   UNL     1       0.642  -1.107   5.373  0.00  0.00    +0.013 A 
ATOM     24  C   UNL     1       1.012  -0.891   6.684  0.00  0.00    +0.001 A 
ATOM     25  C   UNL     1       0.071  -0.974   7.695  0.00  0.00    +0.001 A 
ATOM     26  C   UNL     1      -1.246  -1.274   7.400  0.00  0.00    +0.021 A 
ATOM     27  C   UNL     1      -1.632  -1.487   6.091  0.00  0.00    +0.052 A 
ATOM     28 CL   UNL     1      -3.288  -1.855   5.721  0.00  0.00    -0.083 Cl
ENDBRANCH  20  22
ENDBRANCH   2  17
BRANCH   7  29
ATOM     29  S   UNL     1       2.690  -0.024   0.516  0.00  0.00    -0.126 S 
ATOM     30  H   UNL     1       3.583  -1.052   0.155  0.00  0.00    +0.108 HD
ENDBRANCH   7  29
BRANCH   6  31
ATOM     31  C   UNL     1       2.360  -2.703  -0.922  0.00  0.00    +0.107 C 
ATOM     32  N   UNL     1       3.308  -3.315  -1.044  0.00  0.00    -0.191 NA
ENDBRANCH   6  31
TORSDOF 6
