REMARK  Name = ZINC43585829
REMARK  5 active torsions:
REMARK  status: ('A' for Active; 'I' for Inactive)
REMARK    1  A    between atoms: C_1  and  C_2
REMARK    2  A    between atoms: C_9  and  C_28
REMARK    3  A    between atoms: C_11  and  C_19
REMARK    4  A    between atoms: C_22  and  N_25
REMARK    5  A    between atoms: C_28  and  C_30
REMARK                            x       y       z     vdW  Elec       q    Type
REMARK                         _______ _______ _______ _____ _____    ______ ____
ROOT
ATOM      1  C   UNL     1      -0.249   1.604   0.190  0.00  0.00    +0.044 C 
ATOM      2  C   UNL     1      -0.254   0.098   0.156  0.00  0.00    -0.050 A 
ATOM      3  C   UNL     1      -0.356  -0.569  -1.052  0.00  0.00    +0.005 A 
ATOM      4  C   UNL     1      -0.361  -1.948  -1.088  0.00  0.00    +0.024 A 
ATOM      5  C   UNL     1      -0.264  -2.680   0.093  0.00  0.00    +0.039 A 
ATOM      6  C   UNL     1      -0.161  -1.999   1.301  0.00  0.00    +0.004 A 
ATOM      7  C   UNL     1      -0.151  -0.623   1.333  0.00  0.00    +0.011 A 
ATOM      8  C   UNL     1      -0.073  -3.057   2.369  0.00  0.00    +0.137 C 
ATOM      9  C   UNL     1       1.240  -2.943   3.148  0.00  0.00    +0.104 C 
ATOM     10  C   UNL     1       0.829  -2.762   4.623  0.00  0.00    +0.050 C 
ATOM     11  C   UNL     1      -0.655  -2.355   4.562  0.00  0.00    +0.077 C 
ATOM     12  N   UNL     1      -1.187  -2.943   3.321  0.00  0.00    -0.271 NA
ATOM     13  C   UNL     1      -2.307  -2.200   2.698  0.00  0.00    +0.155 C 
ATOM     14  S   UNL     1      -2.399  -0.656   3.701  0.00  0.00    -0.144 S 
ATOM     15  C   UNL     1      -0.744  -0.803   4.528  0.00  0.00    +0.090 C 
ATOM     16  C   UNL     1      -0.138  -4.364   1.619  0.00  0.00    +0.243 C 
ATOM     17  O   UNL     1      -0.100  -5.476   2.100  0.00  0.00    -0.273 OA
ATOM     18  N   UNL     1      -0.247  -4.058   0.313  0.00  0.00    -0.283 N 
ATOM     19  H   UNL     1      -0.307  -4.720  -0.394  0.00  0.00    +0.155 HD
ENDROOT
BRANCH  10  20
ATOM     20  C   UNL     1       1.649  -1.675   5.268  0.00  0.00    -0.042 A 
ATOM     21  C   UNL     1       1.978  -1.761   6.608  0.00  0.00    +0.006 A 
ATOM     22  C   UNL     1       2.731  -0.763   7.200  0.00  0.00    +0.033 A 
ATOM     23  C   UNL     1       3.154   0.320   6.452  0.00  0.00    +0.126 A 
ATOM     24  C   UNL     1       2.825   0.405   5.112  0.00  0.00    +0.033 A 
ATOM     25  C   UNL     1       2.076  -0.595   4.519  0.00  0.00    +0.006 A 
BRANCH  23  26
ATOM     26  N   UNL     1       3.958   1.388   7.086  0.00  0.00    +0.056 N 
ATOM     27  O   UNL     1       4.245   1.313   8.258  0.00  0.00    -0.126 OA
ATOM     28  O   UNL     1       4.328   2.335   6.432  0.00  0.00    -0.126 OA
ENDBRANCH  23  26
ENDBRANCH  10  20
BRANCH   9  29
ATOM     29  C   UNL     1       2.056  -4.200   2.982  0.00  0.00    +0.187 C 
ATOM     30  O   UNL     1       1.952  -5.100   3.787  0.00  0.00    -0.290 OA
BRANCH  29  31
ATOM     31  C   UNL     1       2.980  -4.334   1.840  0.00  0.00    +0.106 A 
ATOM     32  C   UNL     1       3.728  -5.502   1.688  0.00  0.00    +0.031 A 
ATOM     33  C   UNL     1       4.592  -5.613   0.610  0.00  0.00    +0.004 A 
ATOM     34  C   UNL     1       4.679  -4.553  -0.279  0.00  0.00    +0.020 A 
ATOM     35  C   UNL     1       3.906  -3.422  -0.067  0.00  0.00    +0.111 A 
ATOM     36  N   UNL     1       3.090  -3.344   0.960  0.00  0.00    -0.252 NA
ENDBRANCH  29  31
ENDBRANCH   9  29
TORSDOF 4
