REMARK  Name = ZINC39914285
REMARK  16 active torsions:
REMARK  status: ('A' for Active; 'I' for Inactive)
REMARK    1  A    between atoms: C_1  and  C_2
REMARK    2  A    between atoms: C_2  and  C_3
REMARK    3  A    between atoms: C_3  and  N_4
REMARK    4  A    between atoms: C_5  and  C_24
REMARK    5  A    between atoms: C_8  and  C_15
REMARK    6  A    between atoms: C_18  and  C_22
REMARK    7  A    between atoms: C_20  and  O_21
REMARK    8  A    between atoms: C_27  and  O_33
REMARK    9  A    between atoms: C_28  and  O_30
REMARK   10  A    between atoms: O_30  and  C_31
REMARK   11  A    between atoms: C_31  and  C_32
REMARK   12  A    between atoms: O_33  and  C_34
REMARK   13  A    between atoms: C_34  and  C_35
REMARK   14  A    between atoms: C_35  and  C_36
REMARK   15  A    between atoms: C_36  and  C_37
REMARK   16  A    between atoms: C_36  and  C_38
REMARK                            x       y       z     vdW  Elec       q    Type
REMARK                         _______ _______ _______ _____ _____    ______ ____
ROOT
ATOM      1  N   UNL     1       0.246  -2.274  -0.354  0.00  0.00    -0.285 N 
ATOM      2  C   UNL     1       1.524  -2.945  -0.079  0.00  0.00    +0.141 C 
ATOM      3  C   UNL     1       1.392  -4.336  -0.634  0.00  0.00    +0.035 A 
ATOM      4  C   UNL     1       1.989  -5.584  -0.844  0.00  0.00    +0.102 A 
ATOM      5  N   UNL     1       1.111  -6.341  -1.472  0.00  0.00    -0.173 NA
ATOM      6  N   UNL     1       0.019  -5.695  -1.681  0.00  0.00    -0.272 N 
ATOM      7  H   UNL     1      -0.764  -6.053  -2.126  0.00  0.00    +0.189 HD
ATOM      8  C   UNL     1       0.126  -4.428  -1.180  0.00  0.00    +0.126 A 
ATOM      9  C   UNL     1      -0.560  -3.145  -0.988  0.00  0.00    +0.265 C 
ATOM     10  O   UNL     1      -1.694  -2.903  -1.352  0.00  0.00    -0.268 OA
ENDROOT
BRANCH   4  11
ATOM     11  C   UNL     1       3.358  -5.983  -0.434  0.00  0.00    +0.045 A 
ATOM     12  C   UNL     1       4.224  -5.043   0.119  0.00  0.00    +0.034 A 
ATOM     13  C   UNL     1       5.497  -5.418   0.500  0.00  0.00    +0.045 A 
ATOM     14  C   UNL     1       5.917  -6.728   0.333  0.00  0.00    -0.029 A 
ATOM     15  C   UNL     1       5.064  -7.668  -0.215  0.00  0.00    +0.050 A 
ATOM     16  C   UNL     1       3.782  -7.304  -0.596  0.00  0.00    +0.126 A 
ATOM     17  C   UNL     1       7.308  -7.129   0.749  0.00  0.00    +0.045 C 
ATOM     18 CL   UNL     1       6.576  -4.246   1.189  0.00  0.00    -0.083 Cl
BRANCH  16  19
ATOM     19  O   UNL     1       2.942  -8.229  -1.129  0.00  0.00    -0.506 OA
ATOM     20  H   UNL     1       2.997  -8.302  -2.092  0.00  0.00    +0.292 HD
ENDBRANCH  16  19
ENDBRANCH   4  11
BRANCH   2  21
ATOM     21  C   UNL     1       1.771  -2.999   1.407  0.00  0.00    -0.019 A 
ATOM     22  C   UNL     1       3.004  -2.632   1.914  0.00  0.00    +0.009 A 
ATOM     23  C   UNL     1       3.236  -2.681   3.276  0.00  0.00    +0.050 A 
ATOM     24  C   UNL     1       2.233  -3.097   4.136  0.00  0.00    +0.162 A 
ATOM     25  C   UNL     1       0.992  -3.466   3.625  0.00  0.00    +0.162 A 
ATOM     26  C   UNL     1       0.764  -3.411   2.260  0.00  0.00    +0.055 A 
BRANCH  25  27
ATOM     27  O   UNL     1       0.004  -3.876   4.465  0.00  0.00    -0.489 OA
BRANCH  27  28
ATOM     28  C   UNL     1      -1.202  -4.352   3.864  0.00  0.00    +0.226 C 
ATOM     29  C   UNL     1      -2.145  -4.868   4.953  0.00  0.00    +0.048 C 
ENDBRANCH  27  28
ENDBRANCH  25  27
BRANCH  24  30
ATOM     30  O   UNL     1       2.460  -3.146   5.476  0.00  0.00    -0.488 OA
BRANCH  30  31
ATOM     31  C   UNL     1       3.757  -2.753   5.929  0.00  0.00    +0.229 C 
BRANCH  31  32
ATOM     32  C   UNL     1       3.823  -2.873   7.453  0.00  0.00    +0.044 C 
BRANCH  32  33
ATOM     33  C   UNL     1       5.212  -2.452   7.937  0.00  0.00    -0.014 C 
ATOM     34  C   UNL     1       5.428  -0.967   7.638  0.00  0.00    +0.007 C 
ATOM     35  C   UNL     1       5.319  -2.690   9.445  0.00  0.00    +0.007 C 
ENDBRANCH  32  33
ENDBRANCH  31  32
ENDBRANCH  30  31
ENDBRANCH  24  30
ENDBRANCH   2  21
BRANCH   1  36
ATOM     36  C   UNL     1      -0.095  -0.896   0.006  0.00  0.00    +0.109 C 
BRANCH  36  38
ATOM     37  C   UNL     1      -1.076   0.567   1.778  0.00  0.00    +0.005 C 
ATOM     38  C   UNL     1      -0.720  -0.873   1.403  0.00  0.00    +0.016 C 
ENDBRANCH  36  38
ENDBRANCH   1  36
TORSDOF 11
