REMARK  Name = ZINC36637470
REMARK  11 active torsions:
REMARK  status: ('A' for Active; 'I' for Inactive)
REMARK    1  A    between atoms: C_1  and  N_2
REMARK    2  A    between atoms: N_2  and  C_3
REMARK    3  A    between atoms: N_2  and  C_4
REMARK    4  A    between atoms: C_4  and  C_5
REMARK    5  A    between atoms: C_5  and  N_6
REMARK    6  A    between atoms: C_17  and  C_19
REMARK    7  A    between atoms: C_22  and  S_25
REMARK    8  A    between atoms: S_25  and  N_28
REMARK    9  A    between atoms: N_28  and  C_29
REMARK   10  A    between atoms: N_28  and  C_30
REMARK   11  A    between atoms: C_30  and  C_31
REMARK                            x       y       z     vdW  Elec       q    Type
REMARK                         _______ _______ _______ _____ _____    ______ ____
ROOT
ATOM      1  N   UNL     1      -1.667  -2.854  -0.133  0.00  0.00    -0.248 N 
ATOM      2  C   UNL     1      -2.420  -3.014  -1.284  0.00  0.00    +0.168 A 
ATOM      3  N   UNL     1      -2.084  -3.588  -2.415  0.00  0.00    -0.221 NA
ATOM      4  C   UNL     1      -2.929  -3.673  -3.465  0.00  0.00    +0.115 A 
ATOM      5  C   UNL     1      -2.694  -4.261  -4.731  0.00  0.00    +0.150 A 
ATOM      6  C   UNL     1      -3.670  -4.262  -5.696  0.00  0.00    +0.040 A 
ATOM      7  C   UNL     1      -4.913  -3.690  -5.468  0.00  0.00    +0.004 A 
ATOM      8  C   UNL     1      -5.177  -3.107  -4.243  0.00  0.00    +0.017 A 
ATOM      9  C   UNL     1      -4.207  -3.102  -3.271  0.00  0.00    +0.044 A 
ATOM     10  S   UNL     1      -4.101  -2.496  -1.604  0.00  0.00    -0.052 S 
ATOM     11  F   UNL     1      -1.495  -4.828  -4.993  0.00  0.00    -0.203 F 
ATOM     12  C   UNL     1      -2.198  -2.235   0.940  0.00  0.00    +0.252 C 
ATOM     13  O   UNL     1      -3.360  -1.880   0.923  0.00  0.00    -0.270 OA
ENDROOT
BRANCH  12  14
ATOM     14  C   UNL     1      -1.367  -1.986   2.136  0.00  0.00    +0.037 A 
ATOM     15  C   UNL     1      -0.085  -1.450   2.001  0.00  0.00    +0.015 A 
ATOM     16  C   UNL     1       0.686  -1.221   3.122  0.00  0.00    +0.029 A 
ATOM     17  C   UNL     1       0.191  -1.521   4.378  0.00  0.00    +0.106 A 
ATOM     18  C   UNL     1      -1.079  -2.053   4.520  0.00  0.00    +0.029 A 
ATOM     19  C   UNL     1      -1.862  -2.281   3.408  0.00  0.00    +0.015 A 
BRANCH  17  20
ATOM     20  S   UNL     1       1.183  -1.226   5.805  0.00  0.00    +0.061 S 
ATOM     21  O   UNL     1       2.021  -0.122   5.495  0.00  0.00    -0.153 OA
ATOM     22  O   UNL     1       0.301  -1.225   6.919  0.00  0.00    -0.153 OA
BRANCH  20  23
ATOM     23  N   UNL     1       2.177  -2.538   5.990  0.00  0.00    -0.175 NA
ATOM     24  C   UNL     1       3.491  -2.558   5.342  0.00  0.00    +0.132 C 
BRANCH  23  25
ATOM     25  C   UNL     1       1.742  -3.678   6.801  0.00  0.00    +0.144 C 
BRANCH  25  26
ATOM     26  C   UNL     1       1.287  -4.793   5.896  0.00  0.00    -0.032 A 
ATOM     27  C   UNL     1      -0.044  -4.890   5.533  0.00  0.00    +0.005 A 
ATOM     28  C   UNL     1      -0.462  -5.913   4.703  0.00  0.00    +0.000 A 
ATOM     29  C   UNL     1       0.451  -6.840   4.235  0.00  0.00    +0.000 A 
ATOM     30  C   UNL     1       1.782  -6.743   4.597  0.00  0.00    +0.000 A 
ATOM     31  C   UNL     1       2.200  -5.717   5.423  0.00  0.00    +0.005 A 
ENDBRANCH  25  26
ENDBRANCH  23  25
ENDBRANCH  20  23
ENDBRANCH  17  20
ENDBRANCH  12  14
BRANCH   1  32
ATOM     32  C   UNL     1      -0.292  -3.359  -0.081  0.00  0.00    +0.097 C 
BRANCH  32  33
ATOM     33  C   UNL     1       0.609  -2.474  -0.945  0.00  0.00    -0.060 C 
BRANCH  33  35
ATOM     34  C   UNL     1       2.812  -2.238  -1.863  0.00  0.00    -0.097 C 
ATOM     35  N   UNL     1       1.977  -3.009  -0.932  0.00  0.00    +0.377 N 
ATOM     36  C   UNL     1       2.531  -2.906   0.424  0.00  0.00    -0.097 C 
ATOM     37  H   UNL     1       1.962  -3.977  -1.217  0.00  0.00    -0.083 HD
ENDBRANCH  33  35
ENDBRANCH  32  33
ENDBRANCH   1  32
TORSDOF 8
