REMARK  Name = ZINC12799171
REMARK  5 active torsions:
REMARK  status: ('A' for Active; 'I' for Inactive)
REMARK    1  A    between atoms: C_1  and  C_2
REMARK    2  A    between atoms: C_2  and  C_26
REMARK    3  A    between atoms: N_5  and  C_9
REMARK    4  A    between atoms: C_9  and  N_10
REMARK    5  A    between atoms: C_14  and  C_17
REMARK                            x       y       z     vdW  Elec       q    Type
REMARK                         _______ _______ _______ _____ _____    ______ ____
ROOT
ATOM      1  C   UNL     1       0.593   1.631   5.626  0.00  0.00    +0.047 C 
ATOM      2  C   UNL     1       1.897   0.842   5.490  0.00  0.00    +0.135 C 
ATOM      3  C   UNL     1       1.792  -0.174   4.371  0.00  0.00    +0.252 C 
ATOM      4  O   UNL     1       1.017  -1.103   4.295  0.00  0.00    -0.272 OA
ATOM      5  N   UNL     1       2.739   0.171   3.476  0.00  0.00    -0.210 N 
ATOM      6  C   UNL     1       3.424   1.250   3.873  0.00  0.00    +0.311 C 
ATOM      7  O   UNL     1       4.330   1.747   3.234  0.00  0.00    -0.252 OA
ATOM      8  N   UNL     1       2.994   1.725   5.056  0.00  0.00    -0.281 N 
ATOM      9  H   UNL     1       3.297   2.575   5.684  0.00  0.00    +0.152 HD
ENDROOT
BRANCH   2  10
ATOM     10  C   UNL     1       2.246   0.165   6.791  0.00  0.00    -0.015 A 
ATOM     11  C   UNL     1       1.823  -1.144   7.017  0.00  0.00    +0.007 A 
ATOM     12  C   UNL     1       2.126  -1.787   8.178  0.00  0.00    +0.009 A 
ATOM     13  C   UNL     1       2.865  -1.120   9.170  0.00  0.00    -0.018 A 
ATOM     14  C   UNL     1       3.191  -1.749  10.384  0.00  0.00    +0.008 A 
ATOM     15  C   UNL     1       3.909  -1.072  11.321  0.00  0.00    +0.001 A 
ATOM     16  C   UNL     1       4.327   0.239  11.097  0.00  0.00    +0.001 A 
ATOM     17  C   UNL     1       4.030   0.879   9.933  0.00  0.00    +0.008 A 
ATOM     18  C   UNL     1       3.290   0.213   8.942  0.00  0.00    -0.018 A 
ATOM     19  C   UNL     1       2.963   0.842   7.728  0.00  0.00    +0.014 A 
ENDBRANCH   2  10
BRANCH   5  20
ATOM     20  C   UNL     1       2.991  -0.550   2.226  0.00  0.00    +0.205 C 
BRANCH  20  21
ATOM     21  N   UNL     1       2.163   0.021   1.155  0.00  0.00    -0.286 NA
ATOM     22  C   UNL     1       0.793  -0.505   1.212  0.00  0.00    +0.086 C 
ATOM     23  C   UNL     1       0.002  -0.004   0.002  0.00  0.00    +0.016 C 
ATOM     24  C   UNL     1      -0.019   1.527   0.010  0.00  0.00    +0.013 C 
ATOM     25  C   UNL     1       1.421   2.049  -0.001  0.00  0.00    +0.059 C 
ATOM     26  C   UNL     1       2.171   1.488   1.210  0.00  0.00    +0.096 C 
BRANCH  25  27
ATOM     27  C   UNL     1       1.410   3.555   0.067  0.00  0.00    +0.084 A 
ATOM     28  N   UNL     1       0.910   4.319   0.997  0.00  0.00    -0.244 NA
ATOM     29  C   UNL     1       0.970   5.665   0.939  0.00  0.00    +0.078 A 
ATOM     30  C   UNL     1       0.483   6.619   1.860  0.00  0.00    +0.029 A 
ATOM     31  C   UNL     1       0.634   7.950   1.626  0.00  0.00    +0.002 A 
ATOM     32  C   UNL     1       1.266   8.422   0.484  0.00  0.00    +0.001 A 
ATOM     33  C   UNL     1       1.756   7.521  -0.442  0.00  0.00    +0.017 A 
ATOM     34  C   UNL     1       1.609   6.174  -0.215  0.00  0.00    +0.039 A 
ATOM     35  S   UNL     1       2.055   4.689  -1.078  0.00  0.00    -0.072 S 
ENDBRANCH  25  27
ENDBRANCH  20  21
ENDBRANCH   5  20
TORSDOF 4
