REMARK  Name = ZINC14159203
REMARK  11 active torsions:
REMARK  status: ('A' for Active; 'I' for Inactive)
REMARK    1  A    between atoms: C_1  and  C_2
REMARK    2  A    between atoms: C_4  and  C_34
REMARK    3  A    between atoms: N_10  and  C_11
REMARK    4  A    between atoms: C_11  and  N_13
REMARK    5  A    between atoms: N_13  and  C_14
REMARK    6  A    between atoms: N_22  and  C_23
REMARK    7  A    between atoms: C_23  and  C_24
REMARK    8  A    between atoms: C_24  and  S_25
REMARK    9  A    between atoms: S_25  and  C_26
REMARK   10  A    between atoms: C_26  and  C_27
REMARK   11  A    between atoms: C_28  and  C_33
REMARK                            x       y       z     vdW  Elec       q    Type
REMARK                         _______ _______ _______ _____ _____    ______ ____
ROOT
ATOM      1  C   UNL     1       2.587  -3.078   0.311  0.00  0.00    +0.066 C 
ATOM      2  C   UNL     1       1.254  -2.383   0.192  0.00  0.00    +0.044 A 
ATOM      3  C   UNL     1       0.083  -3.120   0.122  0.00  0.00    +0.046 A 
ATOM      4  C   UNL     1      -1.121  -2.442   0.013  0.00  0.00    +0.044 A 
ATOM      5  N   UNL     1      -1.115  -1.119  -0.021  0.00  0.00    -0.217 NA
ATOM      6  C   UNL     1       0.023  -0.445   0.048  0.00  0.00    +0.231 A 
ATOM      7  N   UNL     1       1.190  -1.063   0.147  0.00  0.00    -0.217 NA
ATOM      8  N   UNL     1      -0.008   0.942   0.009  0.00  0.00    -0.297 N 
ATOM      9  C   UNL     1       1.161   1.653  -0.019  0.00  0.00    +0.195 C 
ATOM     10  N   UNL     1       2.319   1.024   0.091  0.00  0.00    -0.159 NA
ATOM     11  N   UNL     1       1.133   3.010  -0.162  0.00  0.00    -0.357 N 
ATOM     12  C   UNL     1      -2.421  -3.201  -0.065  0.00  0.00    +0.066 C 
ATOM     13  H   UNL     1      -0.973   1.471   0.001  0.00  0.00    +0.171 HD
ATOM     14  H   UNL     1       2.072   3.572  -0.268  0.00  0.00    +0.162 HD
ENDROOT
BRANCH  10  15
ATOM     15  C   UNL     1       3.467   1.706  -0.034  0.00  0.00    +0.162 C 
ATOM     16  S   UNL     1       3.879   2.906   1.115  0.00  0.00    -0.016 S 
BRANCH  15  17
ATOM     17  N   UNL     1       4.296   1.446  -1.064  0.00  0.00    -0.294 N 
ATOM     18  H   UNL     1       3.987   0.749  -1.857  0.00  0.00    +0.154 HD
BRANCH  17  19
ATOM     19  C   UNL     1       5.550   2.064  -1.126  0.00  0.00    +0.051 A 
ATOM     20  C   UNL     1       6.268   2.299   0.040  0.00  0.00    +0.026 A 
ATOM     21  C   UNL     1       7.506   2.909  -0.024  0.00  0.00    +0.022 A 
ATOM     22  C   UNL     1       8.031   3.286  -1.247  0.00  0.00    +0.042 A 
ATOM     23  C   UNL     1       7.319   3.054  -2.411  0.00  0.00    +0.041 A 
ATOM     24  C   UNL     1       6.082   2.440  -2.354  0.00  0.00    +0.063 A 
ATOM     25 CL   UNL     1       5.191   2.143  -3.814  0.00  0.00    -0.082 Cl
ATOM     26 CL   UNL     1       9.587   4.052  -1.323  0.00  0.00    -0.083 Cl
ENDBRANCH  17  19
ENDBRANCH  15  17
ENDBRANCH  10  15
BRANCH  11  27
ATOM     27  C   UNL     1      -0.150   3.718  -0.172  0.00  0.00    +0.126 C 
BRANCH  27  28
ATOM     28  C   UNL     1       0.089   5.200  -0.467  0.00  0.00    +0.090 C 
BRANCH  28  29
ATOM     29  S   UNL     1      -1.479   6.103  -0.335  0.00  0.00    -0.153 S 
BRANCH  29  30
ATOM     30  C   UNL     1      -1.030   7.820  -0.709  0.00  0.00    +0.126 C 
BRANCH  30  31
ATOM     31  C   UNL     1      -2.259   8.689  -0.632  0.00  0.00    +0.072 A 
ATOM     32  C   UNL     1      -2.711   9.325   0.465  0.00  0.00    +0.036 A 
ATOM     33  N   UNL     1      -3.845   9.997   0.094  0.00  0.00    -0.348 N 
ATOM     34  H   UNL     1      -4.396  10.596   0.834  0.00  0.00    +0.166 HD
ATOM     35  C   UNL     1      -4.045   9.748  -1.218  0.00  0.00    +0.197 A 
ATOM     36  N   UNL     1      -3.090   8.970  -1.647  0.00  0.00    -0.240 NA
ATOM     37  C   UNL     1      -2.090   9.302   1.838  0.00  0.00    +0.065 C 
ENDBRANCH  30  31
ENDBRANCH  29  30
ENDBRANCH  28  29
ENDBRANCH  27  28
ENDBRANCH  11  27
TORSDOF 8
