REMARK  Name = ZINC04776834
REMARK  6 active torsions:
REMARK  status: ('A' for Active; 'I' for Inactive)
REMARK    1  A    between atoms: C_1  and  C_2
REMARK    2  A    between atoms: C_5  and  C_11
REMARK    3  A    between atoms: C_6  and  N_8
REMARK    4  A    between atoms: C_14  and  C_16
REMARK    5  A    between atoms: N_18  and  C_19
REMARK    6  A    between atoms: C_20  and  C_27
REMARK                            x       y       z     vdW  Elec       q    Type
REMARK                         _______ _______ _______ _____ _____    ______ ____
ROOT
ATOM      1  C   UNL     1      -4.806   2.462   1.295  0.00  0.00    +0.284 C 
ATOM      2  O   UNL     1      -5.939   2.751   0.954  0.00  0.00    -0.266 OA
ATOM      3  N   UNL     1      -4.222   3.119   2.316  0.00  0.00    -0.273 N 
ATOM      4  H   UNL     1      -3.319   2.889   2.588  0.00  0.00    +0.156 HD
ENDROOT
BRANCH   3   5
ATOM      5  C   UNL     1      -4.909   4.123   2.978  0.00  0.00    +0.085 A 
ATOM      6  C   UNL     1      -4.484   4.900   4.043  0.00  0.00    +0.068 A 
ATOM      7  C   UNL     1      -5.412   5.904   4.561  0.00  0.00    -0.023 A 
ATOM      8  C   UNL     1      -6.603   5.957   3.938  0.00  0.00    -0.004 A 
ATOM      9  S   UNL     1      -6.511   4.706   2.679  0.00  0.00    -0.077 S 
ATOM     10  C   UNL     1      -7.502   7.010   4.527  0.00  0.00    +0.043 C 
ATOM     11  C   UNL     1      -6.555   7.920   5.339  0.00  0.00    +0.010 C 
ATOM     12  C   UNL     1      -5.400   6.955   5.672  0.00  0.00    +0.037 C 
BRANCH   6  13
ATOM     13  C   UNL     1      -3.151   4.724   4.626  0.00  0.00    +0.244 C 
ATOM     14  O   UNL     1      -2.209   5.363   4.195  0.00  0.00    -0.270 OA
ATOM     15  N   UNL     1      -2.968   3.856   5.641  0.00  0.00    -0.325 N 
ATOM     16  H   UNL     1      -3.719   3.347   5.984  0.00  0.00    +0.145 HD
ATOM     17  H   UNL     1      -2.086   3.740   6.027  0.00  0.00    +0.145 HD
ENDBRANCH   6  13
ENDBRANCH   3   5
BRANCH   1  21
ATOM     18  C   UNL     1      -2.488  -0.004   0.026  0.00  0.00    +0.138 A 
ATOM     19  C   UNL     1      -3.538  -0.238  -0.815  0.00  0.00    +0.051 A 
ATOM     20  C   UNL     1      -4.556   0.653  -0.460  0.00  0.00    +0.055 A 
ATOM     21  C   UNL     1      -4.079   1.401   0.595  0.00  0.00    +0.190 A 
ATOM     22  O   UNL     1      -2.827   0.981   0.875  0.00  0.00    -0.450 OA
BRANCH  18  27
ATOM     23  C   UNL     1       2.544  -2.793  -0.039  0.00  0.00    +0.044 C 
ATOM     24  C   UNL     1       1.226  -2.062  -0.022  0.00  0.00    -0.048 A 
ATOM     25  C   UNL     1       0.041  -2.779  -0.014  0.00  0.00    +0.004 A 
ATOM     26  C   UNL     1      -1.168  -2.117   0.001  0.00  0.00    +0.014 A 
ATOM     27  C   UNL     1      -1.196  -0.720   0.010  0.00  0.00    +0.047 A 
ATOM     28  C   UNL     1       0.002  -0.004   0.002  0.00  0.00    +0.137 A 
ATOM     29  C   UNL     1       1.205  -0.679  -0.019  0.00  0.00    +0.036 A 
BRANCH  28  30
ATOM     30  N   UNL     1      -0.018   1.476   0.010  0.00  0.00    +0.057 N 
ATOM     31  O   UNL     1       1.028   2.099   0.004  0.00  0.00    -0.126 OA
ATOM     32  O   UNL     1      -1.081   2.071   0.018  0.00  0.00    -0.126 OA
ENDBRANCH  28  30
ENDBRANCH  18  27
ENDBRANCH   1  21
TORSDOF 5
