REMARK  Name = ZINC10341557
REMARK  5 active torsions:
REMARK  status: ('A' for Active; 'I' for Inactive)
REMARK    1  A    between atoms: C_1  and  C_2
REMARK    2  A    between atoms: C_7  and  N_12
REMARK    3  A    between atoms: C_9  and  C_11
REMARK    4  A    between atoms: C_16  and  C_18
REMARK    5  A    between atoms: C_18  and  N_51
REMARK                            x       y       z     vdW  Elec       q    Type
REMARK                         _______ _______ _______ _____ _____    ______ ____
ROOT
ATOM      1  N   UNL     1       9.236  -0.716  -2.882  0.00  0.00    -0.296 N 
ATOM      2  C   UNL     1       7.931  -0.441  -2.686  0.00  0.00    +0.306 C 
ATOM      3  O   UNL     1       7.085  -0.998  -3.357  0.00  0.00    -0.252 OA
ATOM      4  N   UNL     1       7.565   0.451  -1.744  0.00  0.00    -0.242 N 
ATOM      5  C   UNL     1       6.260   0.726  -1.548  0.00  0.00    +0.204 C 
ATOM      6  O   UNL     1       5.416   0.170  -2.218  0.00  0.00    -0.277 OA
ATOM      7  H   UNL     1       9.912  -0.271  -2.346  0.00  0.00    +0.151 HD
ATOM      8  H   UNL     1       8.240   0.895  -1.208  0.00  0.00    +0.159 HD
ENDROOT
BRANCH   1  14
ATOM      9  C   UNL     1      10.525  -2.298  -6.628  0.00  0.00    +0.008 C 
ATOM     10  C   UNL     1      11.478  -2.395  -5.435  0.00  0.00    -0.009 C 
ATOM     11  C   UNL     1      11.420  -3.808  -4.850  0.00  0.00    +0.003 C 
ATOM     12  C   UNL     1       9.993  -4.110  -4.389  0.00  0.00    +0.002 C 
ATOM     13  C   UNL     1       9.577  -3.098  -3.320  0.00  0.00    +0.022 C 
ATOM     14  C   UNL     1       9.635  -1.685  -3.905  0.00  0.00    +0.078 C 
ATOM     15  C   UNL     1      11.062  -1.383  -4.366  0.00  0.00    +0.009 C 
ATOM     16  C   UNL     1      11.120   0.030  -4.952  0.00  0.00    +0.009 C 
ENDBRANCH   1  14
BRANCH   5  17
ATOM     17  C   UNL     1       5.850   1.723  -0.495  0.00  0.00    +0.019 C 
BRANCH  17  26
ATOM     18  C   UNL     1       3.961   2.991   0.336  0.00  0.00    -0.073 C 
ATOM     19  C   UNL     1       2.498   3.324  -0.003  0.00  0.00    +0.024 C 
ATOM     20  C   UNL     1       1.729   2.044  -0.004  0.00  0.00    -0.011 A 
ATOM     21  C   UNL     1       2.246   0.784  -0.017  0.00  0.00    -0.054 A 
ATOM     22  C   UNL     1       1.330  -0.265  -0.012  0.00  0.00    +0.009 A 
ATOM     23  C   UNL     1       0.002  -0.004   0.002  0.00  0.00    +0.045 A 
ATOM     24  S   UNL     1      -0.022   1.783   0.012  0.00  0.00    -0.101 S 
ATOM     25  C   UNL     1       3.760   0.591  -0.036  0.00  0.00    -0.042 C 
ATOM     26  N   UNL     1       4.380   1.850  -0.514  0.00  0.00    +0.388 N 
ATOM     27  H   UNL     1       4.073   2.025  -1.478  0.00  0.00    -0.081 HD
ENDBRANCH  17  26
ENDBRANCH   5  17
TORSDOF 3
