REMARK  Name = ZINC01667305
REMARK  9 active torsions:
REMARK  status: ('A' for Active; 'I' for Inactive)
REMARK    1  A    between atoms: C_1  and  C_2
REMARK    2  A    between atoms: C_2  and  C_3
REMARK    3  A    between atoms: C_3  and  C_4
REMARK    4  A    between atoms: C_4  and  N_48
REMARK    5  A    between atoms: C_5  and  C_7
REMARK    6  A    between atoms: C_5  and  C_16
REMARK    7  A    between atoms: C_5  and  N_48
REMARK    8  A    between atoms: C_16  and  C_18
REMARK    9  A    between atoms: C_16  and  O_27
REMARK                            x       y       z     vdW  Elec       q    Type
REMARK                         _______ _______ _______ _____ _____    ______ ____
ROOT
ATOM      1  C   UNL     1       1.252   4.116  -1.425  0.00  0.00    -0.007 C 
ENDROOT
BRANCH   1   2
ATOM      2  C   UNL     1       1.352   5.619  -1.409  0.00  0.00    -0.055 A 
ATOM      3  C   UNL     1       2.563   6.227  -1.131  0.00  0.00    +0.006 A 
ATOM      4  C   UNL     1       2.661   7.605  -1.120  0.00  0.00    +0.050 A 
ATOM      5  C   UNL     1       1.543   8.382  -1.377  0.00  0.00    +0.166 A 
ATOM      6  C   UNL     1       0.323   7.771  -1.651  0.00  0.00    +0.166 A 
ATOM      7  C   UNL     1       0.233   6.388  -1.666  0.00  0.00    +0.051 A 
ATOM      8  O   UNL     1      -0.613   8.741  -1.867  0.00  0.00    -0.453 OA
ATOM      9  C   UNL     1       0.134   9.944  -2.125  0.00  0.00    +0.466 C 
ATOM     10  O   UNL     1       1.372   9.736  -1.421  0.00  0.00    -0.453 OA
ENDBRANCH   1   2
BRANCH   1  11
ATOM     11  N   UNL     1       2.457   3.548  -2.059  0.00  0.00    +0.385 N 
ATOM     12  H   UNL     1       3.270   4.128  -1.820  0.00  0.00    -0.085 HD
ATOM     13  H   UNL     1       2.604   2.593  -1.712  0.00  0.00    -0.085 HD
BRANCH  11  14
ATOM     14  C   UNL     1       2.296   3.514  -3.525  0.00  0.00    -0.082 C 
BRANCH  14  15
ATOM     15  C   UNL     1       3.559   2.922  -4.154  0.00  0.00    -0.019 C 
BRANCH  15  17
ATOM     16  C   UNL     1       4.664   2.292  -6.304  0.00  0.00    +0.004 C 
ATOM     17  C   UNL     1       3.401   2.884  -5.675  0.00  0.00    -0.005 C 
ENDBRANCH  15  17
ENDBRANCH  14  15
ENDBRANCH  11  14
ENDBRANCH   1  11
BRANCH   1  18
ATOM     18  C   UNL     1       1.147   3.596   0.010  0.00  0.00    +0.135 C 
BRANCH  18  19
ATOM     19  C   UNL     1       1.171   2.089   0.002  0.00  0.00    -0.017 A 
ATOM     20  C   UNL     1       2.379   1.418  -0.013  0.00  0.00    +0.010 A 
ATOM     21  C   UNL     1       2.405   0.036  -0.020  0.00  0.00    +0.050 A 
ATOM     22  C   UNL     1       1.220  -0.680  -0.013  0.00  0.00    +0.166 A 
ATOM     23  C   UNL     1       0.002  -0.004   0.002  0.00  0.00    +0.167 A 
ATOM     24  C   UNL     1      -0.017   1.381   0.010  0.00  0.00    +0.055 A 
ATOM     25  O   UNL     1      -1.007  -0.923   0.006  0.00  0.00    -0.453 OA
ATOM     26  C   UNL     1      -0.396  -2.164   0.405  0.00  0.00    +0.466 C 
ATOM     27  O   UNL     1       0.973  -2.023  -0.019  0.00  0.00    -0.453 OA
ENDBRANCH  18  19
BRANCH  18  28
ATOM     28  O   UNL     1       2.251   4.085   0.775  0.00  0.00    -0.388 OA
ATOM     29  H   UNL     1       3.115   3.815   0.436  0.00  0.00    +0.210 HD
ENDBRANCH  18  28
ENDBRANCH   1  18
TORSDOF 8
