REMARK  Name = ZINC52723886
REMARK  10 active torsions:
REMARK  status: ('A' for Active; 'I' for Inactive)
REMARK    1  A    between atoms: C_1  and  C_2
REMARK    2  A    between atoms: C_2  and  C_4
REMARK    3  A    between atoms: C_2  and  N_9
REMARK    4  A    between atoms: C_4  and  C_5
REMARK    5  A    between atoms: C_5  and  C_6
REMARK    6  A    between atoms: C_6  and  C_7
REMARK    7  A    between atoms: C_6  and  C_8
REMARK    8  A    between atoms: C_10  and  C_12
REMARK    9  A    between atoms: C_12  and  N_13
REMARK   10  A    between atoms: C_16  and  N_19
REMARK                            x       y       z     vdW  Elec       q    Type
REMARK                         _______ _______ _______ _____ _____    ______ ____
ROOT
ATOM      1  N   UNL     1       4.185  -1.104  -2.214  0.00  0.00    +0.386 N 
ATOM      2  C   UNL     1       4.485  -2.094  -1.173  0.00  0.00    -0.076 C 
ATOM      3  C   UNL     1       5.983  -2.074  -0.860  0.00  0.00    +0.006 C 
ATOM      4  C   UNL     1       6.769  -2.412  -2.130  0.00  0.00    +0.089 C 
ATOM      5  C   UNL     1       6.392  -1.417  -3.232  0.00  0.00    +0.006 C 
ATOM      6  C   UNL     1       4.879  -1.462  -3.457  0.00  0.00    -0.076 C 
ATOM      7  H   UNL     1       4.494  -0.194  -1.908  0.00  0.00    -0.081 HD
ENDROOT
BRANCH   4   8
ATOM      8  N   UNL     1       8.205  -2.319  -1.857  0.00  0.00    -0.289 N 
ATOM      9  C   UNL     1       9.128  -3.354  -1.986  0.00  0.00    +0.070 A 
ATOM     10  C   UNL     1       9.021  -4.681  -2.374  0.00  0.00    +0.028 A 
ATOM     11  C   UNL     1      10.146  -5.482  -2.403  0.00  0.00    +0.002 A 
ATOM     12  C   UNL     1      11.380  -4.965  -2.046  0.00  0.00    +0.002 A 
ATOM     13  C   UNL     1      11.496  -3.645  -1.658  0.00  0.00    +0.028 A 
ATOM     14  C   UNL     1      10.372  -2.833  -1.626  0.00  0.00    +0.067 A 
ATOM     15  N   UNL     1      10.167  -1.497  -1.290  0.00  0.00    -0.306 N 
ATOM     16  H   UNL     1      10.851  -0.874  -0.998  0.00  0.00    +0.170 HD
ATOM     17  C   UNL     1       8.859  -1.217  -1.443  0.00  0.00    +0.328 A 
ATOM     18  O   UNL     1       8.345  -0.134  -1.237  0.00  0.00    -0.247 OA
ENDBRANCH   4   8
BRANCH   1  19
ATOM     19  C   UNL     1       2.736  -1.073  -2.455  0.00  0.00    +0.019 C 
BRANCH  19  21
ATOM     20  N   UNL     1       0.688  -0.476  -1.203  0.00  0.00    -0.314 N 
ATOM     21  C   UNL     1       2.031  -0.587  -1.215  0.00  0.00    +0.197 C 
ATOM     22  O   UNL     1       2.672  -0.295  -0.228  0.00  0.00    -0.278 OA
ATOM     23  H   UNL     1       0.175  -0.710  -1.993  0.00  0.00    +0.149 HD
BRANCH  20  25
ATOM     24  C   UNL     1      -0.019   1.526   0.010  0.00  0.00    +0.028 C 
ATOM     25  C   UNL     1       0.002  -0.004   0.002  0.00  0.00    +0.070 C 
BRANCH  25  26
ATOM     26  C   UNL     1      -1.433  -0.534   0.013  0.00  0.00    +0.022 C 
BRANCH  26  27
ATOM     27  C   UNL     1      -1.413  -2.059   0.130  0.00  0.00    +0.005 C 
BRANCH  27  28
ATOM     28  C   UNL     1      -2.849  -2.589   0.141  0.00  0.00    -0.017 C 
ATOM     29  C   UNL     1      -3.511  -2.295  -1.207  0.00  0.00    +0.007 C 
ATOM     30  C   UNL     1      -2.833  -4.099   0.383  0.00  0.00    +0.007 C 
ENDBRANCH  27  28
ENDBRANCH  26  27
ENDBRANCH  25  26
ENDBRANCH  20  25
ENDBRANCH  19  21
ENDBRANCH   1  19
TORSDOF 7
