REMARK  Name = ZINC59055994
REMARK  6 active torsions:
REMARK  status: ('A' for Active; 'I' for Inactive)
REMARK    1  A    between atoms: C_6  and  C_7
REMARK    2  A    between atoms: C_7  and  O_8
REMARK    3  A    between atoms: O_8  and  C_9
REMARK    4  A    between atoms: C_10  and  C_17
REMARK    5  A    between atoms: C_17  and  N_18
REMARK    6  A    between atoms: N_18  and  N_19
REMARK                            x       y       z     vdW  Elec       q    Type
REMARK                         _______ _______ _______ _____ _____    ______ ____
ROOT
ATOM      1  C   UNL     1      -2.965  -1.627  -1.346  0.00  0.00    +0.144 A 
ATOM      2  C   UNL     1      -3.024  -2.998  -1.546  0.00  0.00    +0.016 A 
ATOM      3  C   UNL     1      -4.226  -3.597  -1.870  0.00  0.00    +0.029 A 
ATOM      4  C   UNL     1      -5.371  -2.830  -1.994  0.00  0.00    +0.043 A 
ATOM      5  C   UNL     1      -5.315  -1.462  -1.795  0.00  0.00    +0.043 A 
ATOM      6  C   UNL     1      -4.115  -0.860  -1.466  0.00  0.00    +0.084 A 
ATOM      7 CL   UNL     1      -4.046   0.856  -1.208  0.00  0.00    -0.080 Cl
ATOM      8 CL   UNL     1      -6.880  -3.586  -2.401  0.00  0.00    -0.083 Cl
ENDROOT
BRANCH   1   9
ATOM      9  O   UNL     1      -1.783  -1.036  -1.028  0.00  0.00    -0.486 OA
BRANCH   9  10
ATOM     10  C   UNL     1      -1.014  -0.500  -2.107  0.00  0.00    +0.264 C 
BRANCH  10  16
ATOM     11  C   UNL     1       1.376  -0.478  -1.365  0.00  0.00    +0.008 A 
ATOM     12  C   UNL     1       2.485   0.175  -0.861  0.00  0.00    +0.020 A 
ATOM     13  C   UNL     1       2.412   1.522  -0.549  0.00  0.00    +0.041 A 
ATOM     14  C   UNL     1       1.229   2.213  -0.743  0.00  0.00    +0.020 A 
ATOM     15  C   UNL     1       0.121   1.558  -1.246  0.00  0.00    +0.008 A 
ATOM     16  C   UNL     1       0.194   0.213  -1.557  0.00  0.00    -0.010 A 
ATOM     17 CL   UNL     1       3.804   2.343   0.084  0.00  0.00    -0.084 Cl
ENDBRANCH  10  16
ENDBRANCH   9  10
ENDBRANCH   1   9
BRANCH   2  18
ATOM     18  C   UNL     1      -1.777  -3.834  -1.412  0.00  0.00    +0.161 C 
BRANCH  18  19
ATOM     19  N   UNL     1      -1.478  -4.042   0.011  0.00  0.00    -0.260 N 
ATOM     20  H   UNL     1      -1.308  -3.164   0.477  0.00  0.00    +0.168 HD
BRANCH  19  21
ATOM     21  N   UNL     1      -0.423  -4.894   0.170  0.00  0.00    -0.129 N 
ATOM     22  C   UNL     1       0.124  -5.317   1.334  0.00  0.00    +0.251 A 
ATOM     23  N   UNL     1       1.114  -6.125   1.025  0.00  0.00    -0.091 NA
ATOM     24  N   UNL     1       1.224  -6.236  -0.250  0.00  0.00    -0.020 NA
ATOM     25  N   UNL     1       0.325  -5.525  -0.840  0.00  0.00    -0.024 NA
ATOM     26  N   UNL     1      -0.282  -4.964   2.609  0.00  0.00    -0.325 N 
ATOM     27  H   UNL     1      -1.029  -4.356   2.729  0.00  0.00    +0.145 HD
ATOM     28  H   UNL     1       0.179  -5.324   3.382  0.00  0.00    +0.145 HD
ENDBRANCH  19  21
ENDBRANCH  18  19
ENDBRANCH   2  18
TORSDOF 6
