REMARK  Name = ZINC39670759
REMARK  8 active torsions:
REMARK  status: ('A' for Active; 'I' for Inactive)
REMARK    1  A    between atoms: C_1  and  C_2
REMARK    2  A    between atoms: C_2  and  C_3
REMARK    3  A    between atoms: C_3  and  C_5
REMARK    4  A    between atoms: C_3  and  C_11
REMARK    5  A    between atoms: C_15  and  C_24
REMARK    6  A    between atoms: N_26  and  C_27
REMARK    7  A    between atoms: C_27  and  C_28
REMARK    8  A    between atoms: C_31  and  C_37
REMARK                            x       y       z     vdW  Elec       q    Type
REMARK                         _______ _______ _______ _____ _____    ______ ____
ROOT
ATOM      1  C   UNL     1       1.926  -0.001  -1.266  0.00  0.00    +0.223 C 
ATOM      2  O   UNL     1       2.810  -0.797  -1.501  0.00  0.00    -0.275 OA
ATOM      3  N   UNL     1       2.219   1.306  -1.114  0.00  0.00    -0.300 N 
ATOM      4  C   UNL     1       1.276   2.431  -0.913  0.00  0.00    +0.121 C 
ATOM      5  C   UNL     1       1.971   3.344   0.122  0.00  0.00    +0.100 C 
ATOM      6  C   UNL     1       3.469   3.020  -0.013  0.00  0.00    -0.004 C 
ATOM      7  C   UNL     1       3.559   1.942  -1.103  0.00  0.00    +0.115 C 
ATOM      8  C   UNL     1       4.243   4.265  -0.435  0.00  0.00    -0.010 C 
ATOM      9  C   UNL     1       5.736   3.933  -0.506  0.00  0.00    -0.082 C 
ATOM     10  N   UNL     1       6.198   3.466   0.807  0.00  0.00    +0.379 N 
ATOM     11  C   UNL     1       5.515   2.217   1.164  0.00  0.00    -0.082 C 
ATOM     12  C   UNL     1       4.012   2.477   1.305  0.00  0.00    -0.010 C 
ATOM     13  H   UNL     1       7.194   3.306   0.774  0.00  0.00    -0.086 HD
ATOM     14  H   UNL     1       5.996   4.169   1.502  0.00  0.00    -0.086 HD
ENDROOT
BRANCH   5  15
ATOM     15  C   UNL     1       1.714   4.793  -0.201  0.00  0.00    +0.219 C 
ATOM     16  O   UNL     1       1.506   5.132  -1.346  0.00  0.00    -0.275 OA
ATOM     17  N   UNL     1       1.716   5.713   0.784  0.00  0.00    -0.309 N 
ATOM     18  H   UNL     1       1.883   5.442   1.701  0.00  0.00    +0.149 HD
BRANCH  17  19
ATOM     19  C   UNL     1       1.466   7.122   0.471  0.00  0.00    +0.159 C 
BRANCH  19  20
ATOM     20  C   UNL     1       1.523   7.937   1.738  0.00  0.00    +0.051 A 
ATOM     21  C   UNL     1       0.463   8.280   2.502  0.00  0.00    +0.115 A 
ATOM     22  N   UNL     1       0.943   9.013   3.553  0.00  0.00    -0.305 N 
ATOM     23  C   UNL     1       0.332   9.608   4.619  0.00  0.00    +0.022 A 
ATOM     24  C   UNL     1       1.055  10.287   5.534  0.00  0.00    +0.021 A 
ATOM     25  C   UNL     1       2.449  10.389   5.401  0.00  0.00    +0.005 A 
ATOM     26  C   UNL     1       3.071   9.801   4.344  0.00  0.00    +0.045 A 
ATOM     27  C   UNL     1       2.302   9.095   3.397  0.00  0.00    +0.116 A 
ATOM     28  N   UNL     1       2.629   8.434   2.296  0.00  0.00    -0.342 N 
ATOM     29  C   UNL     1      -1.164   9.507   4.774  0.00  0.00    +0.064 C 
ATOM     30  H   UNL     1       3.529   8.329   1.950  0.00  0.00    +0.167 HD
ENDBRANCH  19  20
ENDBRANCH  17  19
ENDBRANCH   5  15
BRANCH   1  31
ATOM     31  C   UNL     1       0.500  -0.472  -1.145  0.00  0.00    +0.105 C 
BRANCH  31  32
ATOM     32  C   UNL     1      -0.139  -0.495  -2.510  0.00  0.00    -0.036 A 
ATOM     33  C   UNL     1       0.389  -1.295  -3.506  0.00  0.00    +0.004 A 
ATOM     34  C   UNL     1      -0.197  -1.317  -4.758  0.00  0.00    +0.000 A 
ATOM     35  C   UNL     1      -1.311  -0.539  -5.013  0.00  0.00    +0.000 A 
ATOM     36  C   UNL     1      -1.839   0.260  -4.017  0.00  0.00    +0.000 A 
ATOM     37  C   UNL     1      -1.256   0.278  -2.764  0.00  0.00    +0.004 A 
ENDBRANCH  31  32
BRANCH  31  39
ATOM     38  C   UNL     1       0.995  -1.831   0.892  0.00  0.00    +0.005 C 
ATOM     39  C   UNL     1       0.477  -1.880  -0.547  0.00  0.00    +0.014 C 
ENDBRANCH  31  39
ENDBRANCH   1  31
TORSDOF 6
