REMARK  Name = ZINC36582848
REMARK  21 active torsions:
REMARK  status: ('A' for Active; 'I' for Inactive)
REMARK    1  A    between atoms: C_1  and  C_2
REMARK    2  A    between atoms: C_2  and  C_3
REMARK    3  A    between atoms: C_3  and  C_4
REMARK    4  A    between atoms: C_4  and  C_5
REMARK    5  A    between atoms: C_5  and  C_7
REMARK    6  A    between atoms: C_5  and  C_9
REMARK    7  A    between atoms: C_7  and  C_8
REMARK    8  A    between atoms: N_11  and  C_12
REMARK    9  A    between atoms: N_11  and  C_37
REMARK   10  A    between atoms: C_12  and  C_14
REMARK   11  A    between atoms: C_12  and  C_23
REMARK   12  A    between atoms: C_17  and  N_20
REMARK   13  A    between atoms: N_20  and  C_21
REMARK   14  A    between atoms: N_20  and  C_22
REMARK   15  A    between atoms: N_25  and  C_26
REMARK   16  A    between atoms: C_26  and  S_27
REMARK   17  A    between atoms: S_27  and  C_30
REMARK   18  A    between atoms: C_33  and  C_36
REMARK   19  A    between atoms: C_37  and  C_38
REMARK   20  A    between atoms: C_37  and  C_39
REMARK   21  A    between atoms: C_37  and  C_40
REMARK                            x       y       z     vdW  Elec       q    Type
REMARK                         _______ _______ _______ _____ _____    ______ ____
ROOT
ATOM      1  C   UNL     1       3.841  -6.104  -3.814  0.00  0.00    +0.193 C 
ENDROOT
BRANCH   1   2
ATOM      2  C   UNL     1       4.864  -5.758  -4.866  0.00  0.00    -0.018 A 
ATOM      3  C   UNL     1       4.620  -4.725  -5.752  0.00  0.00    +0.008 A 
ATOM      4  C   UNL     1       5.555  -4.405  -6.716  0.00  0.00    +0.023 A 
ATOM      5  C   UNL     1       6.742  -5.123  -6.796  0.00  0.00    +0.029 A 
ATOM      6  C   UNL     1       6.984  -6.160  -5.904  0.00  0.00    +0.023 A 
ATOM      7  C   UNL     1       6.047  -6.471  -4.938  0.00  0.00    +0.008 A 
BRANCH   5   8
ATOM      8  N   UNL     1       7.690  -4.802  -7.771  0.00  0.00    -0.336 N 
ATOM      9  C   UNL     1       7.433  -3.708  -8.710  0.00  0.00    +0.129 C 
ATOM     10  C   UNL     1       8.941  -5.560  -7.853  0.00  0.00    +0.129 C 
ENDBRANCH   5   8
ENDBRANCH   1   2
BRANCH   1  11
ATOM     11  C   UNL     1       2.813  -7.036  -4.402  0.00  0.00    +0.239 C 
ATOM     12  O   UNL     1       1.648  -6.700  -4.452  0.00  0.00    -0.273 OA
ATOM     13  N   UNL     1       3.187  -8.243  -4.872  0.00  0.00    -0.294 N 
ATOM     14  H   UNL     1       4.118  -8.511  -4.832  0.00  0.00    +0.150 HD
BRANCH  13  15
ATOM     15  C   UNL     1       2.187  -9.148  -5.443  0.00  0.00    +0.278 C 
BRANCH  15  16
ATOM     16  S   UNL     1       2.143  -8.942  -7.245  0.00  0.00    +0.013 S 
ATOM     17  O   UNL     1       1.222  -9.859  -7.820  0.00  0.00    -0.168 OA
ATOM     18  O   UNL     1       2.094  -7.561  -7.578  0.00  0.00    -0.168 OA
BRANCH  16  19
ATOM     19  C   UNL     1       3.724  -9.484  -7.801  0.00  0.00    +0.090 A 
ATOM     20  C   UNL     1       4.769  -8.584  -7.897  0.00  0.00    +0.027 A 
ATOM     21  C   UNL     1       6.010  -9.009  -8.333  0.00  0.00    +0.005 A 
ATOM     22  C   UNL     1       6.206 -10.334  -8.674  0.00  0.00    -0.050 A 
ATOM     23  C   UNL     1       5.161 -11.235  -8.577  0.00  0.00    +0.005 A 
ATOM     24  C   UNL     1       3.922 -10.810  -8.137  0.00  0.00    +0.027 A 
ATOM     25  C   UNL     1       7.558 -10.798  -9.151  0.00  0.00    +0.044 C 
ENDBRANCH  16  19
ENDBRANCH  15  16
ENDBRANCH  13  15
ENDBRANCH   1  11
BRANCH   1  28
ATOM     26  C   UNL     1       2.357  -4.206  -4.175  0.00  0.00    +0.220 C 
ATOM     27  O   UNL     1       2.105  -4.648  -5.276  0.00  0.00    -0.275 OA
ATOM     28  N   UNL     1       3.183  -4.880  -3.351  0.00  0.00    -0.281 N 
BRANCH  28  29
ATOM     29  C   UNL     1       3.424  -4.388  -1.992  0.00  0.00    +0.030 C 
ATOM     30  C   UNL     1       2.160  -3.706  -1.466  0.00  0.00    +0.031 C 
ATOM     31  C   UNL     1       3.787  -5.563  -1.082  0.00  0.00    +0.031 C 
ATOM     32  C   UNL     1       4.577  -3.382  -2.011  0.00  0.00    +0.031 C 
ENDBRANCH  28  29
BRANCH  26  33
ATOM     33  C   UNL     1       1.745  -2.904  -3.728  0.00  0.00    +0.075 C 
BRANCH  33  34
ATOM     34  C   UNL     1       2.845  -1.853  -3.564  0.00  0.00    +0.009 C 
ATOM     35  C   UNL     1       3.836  -1.966  -4.724  0.00  0.00    +0.004 C 
ENDBRANCH  33  34
BRANCH  33  36
ATOM     36  C   UNL     1       0.738  -2.427  -4.777  0.00  0.00    +0.013 C 
BRANCH  36  37
ATOM     37  C   UNL     1       0.066  -1.141  -4.292  0.00  0.00    +0.000 C 
BRANCH  37  39
ATOM     38  C   UNL     1      -1.526   0.685  -4.903  0.00  0.00    +0.004 C 
ATOM     39  C   UNL     1      -0.854  -0.601  -5.388  0.00  0.00    -0.003 C 
ENDBRANCH  37  39
ENDBRANCH  36  37
ENDBRANCH  33  36
ENDBRANCH  26  33
ENDBRANCH   1  28
TORSDOF 13
