REMARK  Name = ZINC54641029
REMARK  12 active torsions:
REMARK  status: ('A' for Active; 'I' for Inactive)
REMARK    1  A    between atoms: C_1  and  C_2
REMARK    2  A    between atoms: C_2  and  O_3
REMARK    3  A    between atoms: O_3  and  C_4
REMARK    4  A    between atoms: C_6  and  C_11
REMARK    5  A    between atoms: C_9  and  O_10
REMARK    6  A    between atoms: C_13  and  C_30
REMARK    7  A    between atoms: C_14  and  C_29
REMARK    8  A    between atoms: C_19  and  S_21
REMARK    9  A    between atoms: S_21  and  C_22
REMARK   10  A    between atoms: C_22  and  C_23
REMARK   11  A    between atoms: C_30  and  O_32
REMARK   12  A    between atoms: O_32  and  C_33
REMARK                            x       y       z     vdW  Elec       q    Type
REMARK                         _______ _______ _______ _____ _____    ______ ____
ROOT
ATOM      1  C   UNL     1      -0.342  -4.986   0.485  0.00  0.00    +0.179 C 
ATOM      2  C   UNL     1       0.706  -5.807   1.187  0.00  0.00    +0.082 C 
ATOM      3  C   UNL     1       0.941  -7.097   0.899  0.00  0.00    +0.020 C 
ATOM      4  N   UNL     1       0.228  -7.774  -0.059  0.00  0.00    -0.287 N 
ATOM      5  C   UNL     1      -0.923  -7.169  -0.544  0.00  0.00    +0.219 A 
ATOM      6  N   UNL     1      -1.208  -5.867  -0.295  0.00  0.00    -0.220 N 
ATOM      7  N   UNL     1      -2.426  -5.598  -0.917  0.00  0.00    -0.141 NA
ATOM      8  C   UNL     1      -2.808  -6.713  -1.500  0.00  0.00    +0.211 A 
ATOM      9  N   UNL     1      -1.889  -7.663  -1.270  0.00  0.00    -0.187 NA
ATOM     10  C   UNL     1       2.023  -7.826   1.652  0.00  0.00    +0.061 C 
ATOM     11  H   UNL     1       0.518  -8.640  -0.384  0.00  0.00    +0.155 HD
ENDROOT
BRANCH   1  14
ATOM     12  C   UNL     1       0.739  -1.730  -1.096  0.00  0.00    +0.162 A 
ATOM     13  C   UNL     1       0.124  -2.641  -0.252  0.00  0.00    +0.055 A 
ATOM     14  C   UNL     1       0.326  -3.997  -0.434  0.00  0.00    -0.015 A 
ATOM     15  C   UNL     1       1.141  -4.446  -1.456  0.00  0.00    +0.010 A 
ATOM     16  C   UNL     1       1.757  -3.542  -2.301  0.00  0.00    +0.049 A 
ATOM     17  C   UNL     1       1.554  -2.182  -2.128  0.00  0.00    +0.158 A 
BRANCH  17  18
ATOM     18  O   UNL     1       2.154  -1.292  -2.963  0.00  0.00    -0.503 OA
ATOM     19  H   UNL     1       3.028  -1.002  -2.666  0.00  0.00    +0.292 HD
ENDBRANCH  17  18
BRANCH  12  20
ATOM     20  O   UNL     1       0.540  -0.396  -0.918  0.00  0.00    -0.489 OA
BRANCH  20  22
ATOM     21  C   UNL     1      -0.411   1.522   0.203  0.00  0.00    +0.048 C 
ATOM     22  C   UNL     1      -0.309  -0.004   0.162  0.00  0.00    +0.226 C 
ENDBRANCH  20  22
ENDBRANCH  12  20
ENDBRANCH   1  14
BRANCH   2  23
ATOM     23  C   UNL     1       1.480  -5.191   2.196  0.00  0.00    +0.339 C 
ATOM     24  O   UNL     1       1.028  -5.070   3.320  0.00  0.00    -0.245 OA
BRANCH  23  25
ATOM     25  O   UNL     1       2.719  -4.737   1.914  0.00  0.00    -0.458 OA
BRANCH  25  26
ATOM     26  C   UNL     1       3.444  -4.125   2.982  0.00  0.00    +0.177 C 
ATOM     27  C   UNL     1       3.151  -2.623   3.003  0.00  0.00    +0.044 C 
ATOM     28  C   UNL     1       3.927  -1.968   4.147  0.00  0.00    +0.004 C 
ATOM     29  C   UNL     1       5.427  -2.191   3.939  0.00  0.00    +0.000 C 
ATOM     30  C   UNL     1       5.720  -3.693   3.918  0.00  0.00    +0.004 C 
ATOM     31  C   UNL     1       4.943  -4.348   2.774  0.00  0.00    +0.044 C 
ENDBRANCH  25  26
ENDBRANCH  23  25
ENDBRANCH   2  23
BRANCH   8  32
ATOM     32  S   UNL     1      -4.288  -6.926  -2.433  0.00  0.00    -0.080 S 
BRANCH  32  33
ATOM     33  C   UNL     1      -4.230  -8.661  -2.959  0.00  0.00    +0.112 C 
BRANCH  33  34
ATOM     34  C   UNL     1      -5.455  -8.979  -3.777  0.00  0.00    -0.037 A 
ATOM     35  C   UNL     1      -6.600  -9.441  -3.156  0.00  0.00    +0.004 A 
ATOM     36  C   UNL     1      -7.724  -9.732  -3.906  0.00  0.00    +0.000 A 
ATOM     37  C   UNL     1      -7.703  -9.561  -5.277  0.00  0.00    +0.000 A 
ATOM     38  C   UNL     1      -6.558  -9.098  -5.899  0.00  0.00    +0.000 A 
ATOM     39  C   UNL     1      -5.436  -8.803  -5.148  0.00  0.00    +0.004 A 
ENDBRANCH  33  34
ENDBRANCH  32  33
ENDBRANCH   8  32
TORSDOF 10
