REMARK  Name = ZINC07045580
REMARK  6 active torsions:
REMARK  status: ('A' for Active; 'I' for Inactive)
REMARK    1  A    between atoms: C_3  and  N_9
REMARK    2  A    between atoms: C_10  and  C_12
REMARK    3  A    between atoms: C_12  and  S_13
REMARK    4  A    between atoms: S_13  and  C_14
REMARK    5  A    between atoms: C_17  and  C_21
REMARK    6  A    between atoms: C_18  and  N_20
REMARK                            x       y       z     vdW  Elec       q    Type
REMARK                         _______ _______ _______ _____ _____    ______ ____
ROOT
ATOM      1  C   UNL     1       1.711   6.207   0.039  0.00  0.00    +0.173 C 
ENDROOT
BRANCH   1   3
ATOM      2  N   UNL     1       3.205   8.178   0.015  0.00  0.00    -0.283 N 
ATOM      3  C   UNL     1       1.947   7.696   0.032  0.00  0.00    +0.228 C 
ATOM      4  O   UNL     1       1.005   8.459   0.042  0.00  0.00    -0.275 OA
ATOM      5  H   UNL     1       3.959   7.570   0.073  0.00  0.00    +0.155 HD
BRANCH   2   8
ATOM      6  C   UNL     1       2.767  11.808   0.419  0.00  0.00    +0.017 A 
ATOM      7  C   UNL     1       2.548  10.447   0.519  0.00  0.00    +0.027 A 
ATOM      8  C   UNL     1       3.425   9.558  -0.085  0.00  0.00    +0.069 A 
ATOM      9  C   UNL     1       4.526  10.039  -0.785  0.00  0.00    +0.146 A 
ATOM     10  C   UNL     1       4.737  11.402  -0.886  0.00  0.00    +0.055 A 
ATOM     11  C   UNL     1       3.859  12.285  -0.282  0.00  0.00    +0.021 A 
ATOM     12 BR   UNL     1       4.154  14.148  -0.416  0.00  0.00    -0.050 Br
ATOM     13  F   UNL     1       5.386   9.177  -1.370  0.00  0.00    -0.204 F 
ENDBRANCH   2   8
ENDBRANCH   1   3
BRANCH   1  14
ATOM     14  S   UNL     1      -0.069   5.879   0.062  0.00  0.00    -0.077 S 
BRANCH  14  15
ATOM     15  C   UNL     1      -0.055   4.117   0.066  0.00  0.00    +0.190 A 
ATOM     16  N   UNL     1       1.111   3.483   0.053  0.00  0.00    -0.229 NA
ATOM     17  C   UNL     1       1.171   2.164   0.056  0.00  0.00    +0.136 A 
ATOM     18  C   UNL     1      -0.020   1.429   0.072  0.00  0.00    +0.109 A 
ATOM     19  C   UNL     1      -1.240   2.139   0.080  0.00  0.00    +0.138 A 
ATOM     20  N   UNL     1      -1.209   3.466   0.082  0.00  0.00    -0.206 NA
BRANCH  19  21
ATOM     21  N   UNL     1      -2.445   1.464   0.090  0.00  0.00    -0.342 N 
ATOM     22  H   UNL     1      -2.457   0.494   0.093  0.00  0.00    +0.144 HD
ATOM     23  H   UNL     1      -3.278   1.960   0.095  0.00  0.00    +0.144 HD
ENDBRANCH  19  21
BRANCH  18  24
ATOM     24  C   UNL     1      -0.001  -0.003   0.076  0.00  0.00    +0.104 C 
ATOM     25  N   UNL     1       0.014  -1.139   0.079  0.00  0.00    -0.191 NA
ENDBRANCH  18  24
ENDBRANCH  14  15
ENDBRANCH   1  14
TORSDOF 6
