REMARK  Name = ZINC63447692
REMARK  7 active torsions:
REMARK  status: ('A' for Active; 'I' for Inactive)
REMARK    1  A    between atoms: C_1  and  C_2
REMARK    2  A    between atoms: C_7  and  C_8
REMARK    3  A    between atoms: C_11  and  C_12
REMARK    4  A    between atoms: C_12  and  C_13
REMARK    5  A    between atoms: N_15  and  C_16
REMARK    6  A    between atoms: C_17  and  C_22
REMARK    7  A    between atoms: C_20  and  C_21
REMARK                            x       y       z     vdW  Elec       q    Type
REMARK                         _______ _______ _______ _____ _____    ______ ____
ROOT
ATOM      1  C   UNL     1      -0.223  -2.932  -4.199  0.00  0.00    +0.135 C 
ENDROOT
BRANCH   1  12
ATOM      2  C   UNL     1       1.295  -3.080   1.356  0.00  0.00    +0.044 C 
ATOM      3  C   UNL     1       0.669  -3.967   0.311  0.00  0.00    -0.047 A 
ATOM      4  C   UNL     1       0.482  -3.493  -0.969  0.00  0.00    +0.015 A 
ATOM      5  C   UNL     1      -0.097  -4.319  -1.931  0.00  0.00    +0.024 A 
ATOM      6  C   UNL     1      -0.489  -5.626  -1.597  0.00  0.00    +0.135 A 
ATOM      7  C   UNL     1      -0.293  -6.083  -0.300  0.00  0.00    +0.050 A 
ATOM      8  C   UNL     1       0.287  -5.259   0.641  0.00  0.00    -0.044 A 
ATOM      9  C   UNL     1       0.503  -5.765   2.044  0.00  0.00    +0.044 C 
ATOM     10  O   UNL     1      -1.011  -6.184  -2.707  0.00  0.00    -0.463 OA
ATOM     11  C   UNL     1      -0.982  -5.320  -3.737  0.00  0.00    +0.200 A 
ATOM     12  C   UNL     1      -0.439  -4.158  -3.350  0.00  0.00    +0.007 A 
ENDBRANCH   1  12
BRANCH   1  13
ATOM     13  C   UNL     1       1.180  -2.942  -4.748  0.00  0.00    +0.222 C 
ATOM     14  O   UNL     1       1.931  -3.855  -4.476  0.00  0.00    -0.275 OA
ATOM     15  N   UNL     1       1.601  -1.936  -5.541  0.00  0.00    -0.281 N 
ATOM     16  H   UNL     1       0.980  -1.243  -5.816  0.00  0.00    +0.155 HD
BRANCH  15  17
ATOM     17  C   UNL     1       2.939  -1.893  -5.971  0.00  0.00    +0.099 A 
ATOM     18  C   UNL     1       4.076  -1.826  -5.139  0.00  0.00    +0.102 A 
ATOM     19  N   UNL     1       5.134  -1.802  -5.899  0.00  0.00    -0.081 NA
ATOM     20  O   UNL     1       4.705  -1.853  -7.248  0.00  0.00    -0.358 OA
ATOM     21  C   UNL     1       3.363  -1.913  -7.255  0.00  0.00    +0.156 A 
ATOM     22  C   UNL     1       2.484  -1.986  -8.477  0.00  0.00    +0.091 C 
ATOM     23  C   UNL     1       4.069  -1.790  -3.632  0.00  0.00    +0.071 C 
ENDBRANCH  15  17
ENDBRANCH   1  13
TORSDOF 3
