REMARK  Name = ZINC64656587
REMARK  4 active torsions:
REMARK  status: ('A' for Active; 'I' for Inactive)
REMARK    1  A    between atoms: C_3  and  C_8
REMARK    2  A    between atoms: C_10  and  C_11
REMARK    3  A    between atoms: N_17  and  C_20
REMARK    4  A    between atoms: C_20  and  C_21
REMARK                            x       y       z     vdW  Elec       q    Type
REMARK                         _______ _______ _______ _____ _____    ______ ____
ROOT
ATOM      1  C   UNL     1       5.585   2.640   0.984  0.00  0.00    +0.219 C 
ATOM      2  O   UNL     1       5.392   3.741   0.514  0.00  0.00    -0.275 OA
ATOM      3  N   UNL     1       6.340   2.502   2.091  0.00  0.00    -0.303 N 
ATOM      4  C   UNL     1       6.564   1.149   2.637  0.00  0.00    +0.106 C 
ATOM      5  C   UNL     1       8.024   0.969   3.091  0.00  0.00    +0.000 C 
ATOM      6  C   UNL     1       8.947   1.638   2.097  0.00  0.00    -0.077 C 
ATOM      7  N   UNL     1       9.228   3.001   2.542  0.00  0.00    +0.386 N 
ATOM      8  C   UNL     1       8.301   3.973   2.105  0.00  0.00    -0.059 C 
ATOM      9  C   UNL     1       6.909   3.687   2.700  0.00  0.00    +0.089 C 
ATOM     10  H   UNL     1       9.247   3.009   3.550  0.00  0.00    -0.081 HD
ENDROOT
BRANCH   1  13
ATOM     11  C   UNL     1       4.133   1.647  -0.926  0.00  0.00    +0.032 C 
ATOM     12  C   UNL     1       5.524   1.019  -1.043  0.00  0.00    +0.022 C 
ATOM     13  C   UNL     1       4.981   1.425   0.328  0.00  0.00    +0.083 C 
BRANCH  11  16
ATOM     14  C   UNL     1       0.581   0.459  -1.401  0.00  0.00    +0.001 A 
ATOM     15  C   UNL     1       1.673   1.286  -1.214  0.00  0.00    +0.004 A 
ATOM     16  C   UNL     1       2.943   0.746  -1.130  0.00  0.00    -0.042 A 
ATOM     17  C   UNL     1       3.121  -0.621  -1.234  0.00  0.00    +0.019 A 
ATOM     18  C   UNL     1       2.029  -1.449  -1.422  0.00  0.00    +0.018 A 
ATOM     19  C   UNL     1       0.758  -0.907  -1.505  0.00  0.00    +0.015 A 
ATOM     20 BR   UNL     1       2.272  -3.318  -1.565  0.00  0.00    -0.050 Br
ENDBRANCH  11  16
ENDBRANCH   1  13
BRANCH   7  21
ATOM     21  C   UNL     1      10.562   3.381   2.056  0.00  0.00    +0.018 C 
BRANCH  21  22
ATOM     22  C   UNL     1      11.605   2.537   2.742  0.00  0.00    +0.194 C 
ATOM     23  O   UNL     1      11.283   1.778   3.631  0.00  0.00    -0.278 OA
ATOM     24  N   UNL     1      12.897   2.626   2.368  0.00  0.00    -0.331 N 
ATOM     25  H   UNL     1      13.155   3.234   1.657  0.00  0.00    +0.145 HD
ATOM     26  H   UNL     1      13.568   2.083   2.810  0.00  0.00    +0.145 HD
ENDBRANCH  21  22
ENDBRANCH   7  21
TORSDOF 4
