REMARK  Name = ZINC38752269
REMARK  8 active torsions:
REMARK  status: ('A' for Active; 'I' for Inactive)
REMARK    1  A    between atoms: C_1  and  C_2
REMARK    2  A    between atoms: C_9  and  C_11
REMARK    3  A    between atoms: C_14  and  N_17
REMARK    4  A    between atoms: C_18  and  C_20
REMARK    5  A    between atoms: C_20  and  S_21
REMARK    6  A    between atoms: S_21  and  C_22
REMARK    7  A    between atoms: C_25  and  C_29
REMARK    8  A    between atoms: N_27  and  N_28
REMARK                            x       y       z     vdW  Elec       q    Type
REMARK                         _______ _______ _______ _____ _____    ______ ____
ROOT
ATOM      1  N   UNL     1       0.153 -10.274   2.434  0.00  0.00    -0.285 N 
ATOM      2  C   UNL     1       0.065 -11.177   1.436  0.00  0.00    +0.227 C 
ATOM      3  O   UNL     1       0.059 -10.806   0.282  0.00  0.00    -0.275 OA
ATOM      4  H   UNL     1       0.235 -10.574   3.353  0.00  0.00    +0.155 HD
ENDROOT
BRANCH   1   8
ATOM      5  C   UNL     1       0.074  -6.198   1.569  0.00  0.00    +0.007 A 
ATOM      6  C   UNL     1      -0.663  -7.092   0.791  0.00  0.00    +0.012 A 
ATOM      7  C   UNL     1      -0.635  -8.439   1.080  0.00  0.00    +0.024 A 
ATOM      8  C   UNL     1       0.127  -8.908   2.144  0.00  0.00    +0.033 A 
ATOM      9  C   UNL     1       0.862  -8.020   2.921  0.00  0.00    +0.024 A 
ATOM     10  C   UNL     1       0.844  -6.673   2.634  0.00  0.00    +0.012 A 
BRANCH   5  19
ATOM     11  C   UNL     1      -0.123   1.474  -0.117  0.00  0.00    +0.044 C 
ATOM     12  C   UNL     1       0.105   0.089   0.432  0.00  0.00    -0.049 A 
ATOM     13  C   UNL     1       0.939  -0.102   1.525  0.00  0.00    +0.005 A 
ATOM     14  C   UNL     1       1.165  -1.338   2.044  0.00  0.00    +0.029 A 
ATOM     15  C   UNL     1       0.553  -2.484   1.481  0.00  0.00    +0.079 A 
ATOM     16  C   UNL     1      -0.291  -2.256   0.368  0.00  0.00    +0.040 A 
ATOM     17  C   UNL     1      -0.517  -1.002  -0.144  0.00  0.00    +0.020 A 
ATOM     18  S   UNL     1      -0.845  -3.897  -0.028  0.00  0.00    -0.067 S 
ATOM     19  C   UNL     1       0.046  -4.753   1.263  0.00  0.00    +0.109 A 
ATOM     20  N   UNL     1       0.671  -3.768   1.871  0.00  0.00    -0.239 NA
ENDBRANCH   5  19
ENDBRANCH   1   8
BRANCH   2  21
ATOM     21  C   UNL     1      -0.027 -12.646   1.756  0.00  0.00    +0.173 C 
BRANCH  21  22
ATOM     22  S   UNL     1      -0.133 -13.595   0.213  0.00  0.00    -0.078 S 
BRANCH  22  23
ATOM     23  C   UNL     1      -0.233 -15.271   0.750  0.00  0.00    +0.189 C 
ATOM     24  N   UNL     1      -0.230 -15.635   1.987  0.00  0.00    -0.161 NA
ATOM     25  N   UNL     1      -0.320 -17.026   2.113  0.00  0.00    -0.243 N 
ATOM     26  C   UNL     1      -0.386 -17.558   0.741  0.00  0.00    +0.222 C 
ATOM     27  N   UNL     1      -0.330 -16.356  -0.108  0.00  0.00    -0.223 N 
ATOM     28  H   UNL     1      -0.336 -17.537   2.937  0.00  0.00    +0.170 HD
BRANCH  26  29
ATOM     29  C   UNL     1      -1.700 -18.309   0.518  0.00  0.00    +0.197 C 
ATOM     30  C   UNL     1      -1.837 -19.454   1.501  0.00  0.00    -0.017 C 
ATOM     31  C   UNL     1      -1.890 -20.548   0.742  0.00  0.00    +0.065 C 
ATOM     32  C   UNL     1      -2.030 -21.778   1.621  0.00  0.00    +0.057 C 
ATOM     33  C   UNL     1      -1.624 -21.310   3.036  0.00  0.00    +0.011 C 
ATOM     34  C   UNL     1      -1.930 -19.797   2.965  0.00  0.00    +0.035 C 
ATOM     35  N   UNL     1      -1.801 -20.205  -0.572  0.00  0.00    -0.158 NA
ATOM     36  N   UNL     1      -1.697 -18.993  -0.787  0.00  0.00    -0.176 NA
ENDBRANCH  26  29
BRANCH  27  37
ATOM     37  N   UNL     1      -0.363 -16.318  -1.473  0.00  0.00    -0.250 NA
ATOM     38  H   UNL     1      -0.307 -15.368  -1.810  0.00  0.00    +0.141 HD
ATOM     39  H   UNL     1       0.370 -16.886  -1.869  0.00  0.00    +0.141 HD
ENDBRANCH  27  37
ENDBRANCH  22  23
ENDBRANCH  21  22
ENDBRANCH   2  21
TORSDOF 7
