REMARK  Name = ZINC23074340
REMARK  13 active torsions:
REMARK  status: ('A' for Active; 'I' for Inactive)
REMARK    1  A    between atoms: C_1  and  C_2
REMARK    2  A    between atoms: C_2  and  C_3
REMARK    3  A    between atoms: C_3  and  N_4
REMARK    4  A    between atoms: N_4  and  C_5
REMARK    5  A    between atoms: C_6  and  N_21
REMARK    6  A    between atoms: N_7  and  C_14
REMARK    7  A    between atoms: C_14  and  C_15
REMARK    8  A    between atoms: C_22  and  C_24
REMARK    9  A    between atoms: C_24  and  S_25
REMARK   10  A    between atoms: S_25  and  C_26
REMARK   11  A    between atoms: C_30  and  C_32
REMARK   12  A    between atoms: C_35  and  O_38
REMARK   13  A    between atoms: O_38  and  C_39
REMARK                            x       y       z     vdW  Elec       q    Type
REMARK                         _______ _______ _______ _____ _____    ______ ____
ROOT
ATOM      1  N   UNL     1      -1.448  -1.944  -0.006  0.00  0.00    -0.264 N 
ATOM      2  C   UNL     1      -1.613  -2.498  -1.226  0.00  0.00    +0.230 C 
ATOM      3  O   UNL     1      -1.725  -3.701  -1.335  0.00  0.00    -0.274 OA
ENDROOT
BRANCH   1   4
ATOM      4  C   UNL     1      -1.292  -2.769   1.128  0.00  0.00    +0.140 A 
ATOM      5  C   UNL     1      -2.252  -2.786   2.120  0.00  0.00    +0.128 A 
ATOM      6  N   UNL     1      -2.072  -3.600   3.214  0.00  0.00    -0.276 N 
ATOM      7  C   UNL     1      -0.974  -4.370   3.316  0.00  0.00    +0.331 A 
ATOM      8  O   UNL     1      -0.834  -5.083   4.291  0.00  0.00    -0.246 OA
ATOM      9  N   UNL     1      -0.029  -4.367   2.359  0.00  0.00    -0.273 N 
ATOM     10  H   UNL     1       0.754  -4.932   2.457  0.00  0.00    +0.173 HD
ATOM     11  C   UNL     1      -0.159  -3.592   1.265  0.00  0.00    +0.277 A 
ATOM     12  O   UNL     1       0.702  -3.600   0.401  0.00  0.00    -0.266 OA
BRANCH   5  13
ATOM     13  N   UNL     1      -3.373  -1.999   2.016  0.00  0.00    -0.343 N 
ATOM     14  H   UNL     1      -3.463  -1.378   1.276  0.00  0.00    +0.144 HD
ATOM     15  H   UNL     1      -4.075  -2.064   2.682  0.00  0.00    +0.144 HD
ENDBRANCH   5  13
BRANCH   6  16
ATOM     16  C   UNL     1      -3.083  -3.629   4.274  0.00  0.00    +0.163 C 
BRANCH  16  17
ATOM     17  C   UNL     1      -4.106  -4.691   3.965  0.00  0.00    -0.028 A 
ATOM     18  C   UNL     1      -5.225  -4.377   3.217  0.00  0.00    +0.005 A 
ATOM     19  C   UNL     1      -6.163  -5.351   2.934  0.00  0.00    +0.000 A 
ATOM     20  C   UNL     1      -5.982  -6.641   3.397  0.00  0.00    +0.000 A 
ATOM     21  C   UNL     1      -4.862  -6.956   4.144  0.00  0.00    +0.000 A 
ATOM     22  C   UNL     1      -3.922  -5.982   4.424  0.00  0.00    +0.005 A 
ENDBRANCH  16  17
ENDBRANCH   6  16
ENDBRANCH   1   4
BRANCH   1  23
ATOM     23  C   UNL     1      -1.429  -0.487   0.140  0.00  0.00    +0.114 C 
BRANCH  23  25
ATOM     24  C   UNL     1       0.036   1.533   0.265  0.00  0.00    +0.005 C 
ATOM     25  C   UNL     1       0.017   0.011   0.113  0.00  0.00    +0.016 C 
ENDBRANCH  23  25
ENDBRANCH   1  23
BRANCH   2  26
ATOM     26  C   UNL     1      -1.657  -1.623  -2.451  0.00  0.00    +0.173 C 
BRANCH  26  27
ATOM     27  S   UNL     1      -1.887  -2.656  -3.924  0.00  0.00    -0.077 S 
BRANCH  27  28
ATOM     28  C   UNL     1      -1.918  -1.501  -5.255  0.00  0.00    +0.185 A 
ATOM     29  N   UNL     1      -2.076  -1.801  -6.563  0.00  0.00    -0.253 N 
ATOM     30  H   UNL     1      -2.193  -2.684  -6.946  0.00  0.00    +0.191 HD
ATOM     31  N   UNL     1      -2.038  -0.582  -7.259  0.00  0.00    -0.152 NA
ATOM     32  C   UNL     1      -1.864   0.364  -6.364  0.00  0.00    +0.182 A 
ATOM     33  N   UNL     1      -1.798  -0.196  -5.147  0.00  0.00    -0.201 NA
BRANCH  32  34
ATOM     34  C   UNL     1      -1.764   1.816  -6.652  0.00  0.00    +0.021 A 
ATOM     35  C   UNL     1      -1.573   2.723  -5.611  0.00  0.00    +0.015 A 
ATOM     36  C   UNL     1      -1.480   4.072  -5.882  0.00  0.00    +0.046 A 
ATOM     37  C   UNL     1      -1.577   4.527  -7.190  0.00  0.00    +0.120 A 
ATOM     38  C   UNL     1      -1.767   3.627  -8.229  0.00  0.00    +0.046 A 
ATOM     39  C   UNL     1      -1.855   2.276  -7.965  0.00  0.00    +0.015 A 
BRANCH  37  40
ATOM     40  O   UNL     1      -1.486   5.857  -7.453  0.00  0.00    -0.495 OA
ATOM     41  C   UNL     1      -1.594   6.256  -8.821  0.00  0.00    +0.277 C 
ENDBRANCH  37  40
ENDBRANCH  32  34
ENDBRANCH  27  28
ENDBRANCH  26  27
ENDBRANCH   2  26
TORSDOF 11
