REMARK  Name = ZINC39487025
REMARK  8 active torsions:
REMARK  status: ('A' for Active; 'I' for Inactive)
REMARK    1  A    between atoms: C_1  and  C_2
REMARK    2  A    between atoms: C_2  and  C_31
REMARK    3  A    between atoms: N_4  and  O_30
REMARK    4  A    between atoms: N_7  and  C_8
REMARK    5  A    between atoms: C_8  and  C_9
REMARK    6  A    between atoms: C_9  and  C_24
REMARK    7  A    between atoms: N_12  and  S_15
REMARK    8  A    between atoms: S_15  and  C_18
REMARK                            x       y       z     vdW  Elec       q    Type
REMARK                         _______ _______ _______ _____ _____    ______ ____
ROOT
ATOM      1  C   UNL     1      -0.631  -1.468   2.978  0.00  0.00    -0.008 C 
ATOM      2  C   UNL     1       0.243  -2.722   3.062  0.00  0.00    +0.026 C 
ATOM      3  C   UNL     1       0.900  -2.974   1.701  0.00  0.00    +0.110 C 
ATOM      4  N   UNL     1      -0.149  -3.037   0.674  0.00  0.00    -0.177 NA
ATOM      5  C   UNL     1      -1.101  -1.922   0.567  0.00  0.00    +0.110 C 
ATOM      6  C   UNL     1      -1.735  -1.683   1.940  0.00  0.00    +0.026 C 
ENDROOT
BRANCH   1   7
ATOM      7  C   UNL     1      -1.262  -1.195   4.345  0.00  0.00    -0.003 C 
ATOM      8  C   UNL     1      -0.178  -1.239   5.424  0.00  0.00    +0.004 C 
ATOM      9  C   UNL     1      -0.809  -0.965   6.791  0.00  0.00    +0.000 C 
ATOM     10  C   UNL     1      -1.867  -2.030   7.087  0.00  0.00    +0.000 C 
ATOM     11  C   UNL     1      -2.951  -1.985   6.007  0.00  0.00    +0.000 C 
ATOM     12  C   UNL     1      -2.320  -2.259   4.640  0.00  0.00    +0.004 C 
ENDBRANCH   1   7
BRANCH   4  13
ATOM     13  S   UNL     1      -0.256  -4.338  -0.344  0.00  0.00    +0.061 S 
ATOM     14  O   UNL     1      -0.932  -3.888  -1.510  0.00  0.00    -0.153 OA
ATOM     15  O   UNL     1       1.038  -4.923  -0.393  0.00  0.00    -0.153 OA
BRANCH  13  16
ATOM     16  C   UNL     1      -1.313  -5.518   0.427  0.00  0.00    +0.105 A 
ATOM     17  C   UNL     1      -0.781  -6.475   1.271  0.00  0.00    +0.028 A 
ATOM     18  C   UNL     1      -1.610  -7.400   1.876  0.00  0.00    +0.002 A 
ATOM     19  C   UNL     1      -2.971  -7.369   1.638  0.00  0.00    +0.000 A 
ATOM     20  C   UNL     1      -3.503  -6.411   0.795  0.00  0.00    +0.002 A 
ATOM     21  C   UNL     1      -2.675  -5.483   0.193  0.00  0.00    +0.028 A 
ENDBRANCH  13  16
ENDBRANCH   4  13
BRANCH   1  22
ATOM     22  C   UNL     1       0.231  -0.273   2.566  0.00  0.00    +0.117 C 
BRANCH  22  29
ATOM     23  C   UNL     1       0.787   2.722   3.415  0.00  0.00    +0.033 C 
ATOM     24  C   UNL     1      -0.591   2.057   3.402  0.00  0.00    +0.051 C 
ATOM     25  C   UNL     1      -1.651   3.021   2.836  0.00  0.00    +0.166 C 
ATOM     26  N   UNL     1      -2.154   2.328   1.640  0.00  0.00    -0.165 N 
ATOM     27  C   UNL     1      -1.514   1.158   1.508  0.00  0.00    +0.328 C 
ATOM     28  O   UNL     1      -1.736   0.380   0.600  0.00  0.00    -0.250 OA
ATOM     29  N   UNL     1      -0.609   0.923   2.466  0.00  0.00    -0.276 N 
ATOM     30  C   UNL     1      -0.977   1.597   4.810  0.00  0.00    +0.033 C 
BRANCH  26  31
ATOM     31  O   UNL     1      -3.155   2.818   0.767  0.00  0.00    -0.291 OA
ATOM     32  H   UNL     1      -3.359   2.226   0.030  0.00  0.00    +0.242 HD
ENDBRANCH  26  31
ENDBRANCH  22  29
ENDBRANCH   1  22
TORSDOF 6
