REMARK  Name = ZINC21460023
REMARK  7 active torsions:
REMARK  status: ('A' for Active; 'I' for Inactive)
REMARK    1  A    between atoms: C_1  and  C_2
REMARK    2  A    between atoms: C_2  and  C_33
REMARK    3  A    between atoms: C_13  and  C_15
REMARK    4  A    between atoms: C_15  and  S_16
REMARK    5  A    between atoms: S_16  and  C_17
REMARK    6  A    between atoms: C_21  and  C_24
REMARK    7  A    between atoms: N_31  and  C_32
REMARK                            x       y       z     vdW  Elec       q    Type
REMARK                         _______ _______ _______ _____ _____    ______ ____
ROOT
ATOM      1  C   UNL     1       4.744   9.333   3.139  0.00  0.00    +0.173 C 
ENDROOT
BRANCH   1  14
ATOM      2  C   UNL     1       7.619  11.472   5.373  0.00  0.00    +0.042 C 
ATOM      3  C   UNL     1       7.267  12.092   4.019  0.00  0.00    +0.113 C 
ATOM      4  C   UNL     1       6.855  13.524   4.214  0.00  0.00    +0.241 C 
ATOM      5  O   UNL     1       7.341  14.169   5.119  0.00  0.00    -0.273 OA
ATOM      6  N   UNL     1       5.949  14.099   3.400  0.00  0.00    -0.282 N 
ATOM      7  C   UNL     1       5.337  13.363   2.380  0.00  0.00    +0.055 A 
ATOM      8  C   UNL     1       4.631  14.001   1.371  0.00  0.00    +0.025 A 
ATOM      9  C   UNL     1       4.024  13.254   0.379  0.00  0.00    +0.002 A 
ATOM     10  C   UNL     1       4.116  11.874   0.386  0.00  0.00    +0.002 A 
ATOM     11  C   UNL     1       4.819  11.230   1.388  0.00  0.00    +0.025 A 
ATOM     12  C   UNL     1       5.431  11.971   2.383  0.00  0.00    +0.059 A 
ATOM     13  N   UNL     1       6.155  11.346   3.411  0.00  0.00    -0.255 N 
ATOM     14  C   UNL     1       5.838  10.105   3.830  0.00  0.00    +0.231 C 
ATOM     15  O   UNL     1       6.433   9.611   4.764  0.00  0.00    -0.274 OA
ATOM     16  C   UNL     1       8.486  12.036   3.096  0.00  0.00    +0.042 C 
ATOM     17  H   UNL     1       5.685  15.159   3.533  0.00  0.00    +0.155 HD
ENDBRANCH   1  14
BRANCH   1  18
ATOM     18  S   UNL     1       4.199   7.974   4.204  0.00  0.00    -0.078 S 
BRANCH  18  19
ATOM     19  C   UNL     1       2.956   7.262   3.179  0.00  0.00    +0.173 A 
ATOM     20  N   UNL     1       2.704   7.791   1.998  0.00  0.00    -0.216 NA
ATOM     21  C   UNL     1       1.773   7.274   1.204  0.00  0.00    +0.117 A 
ATOM     22  C   UNL     1       1.012   6.154   1.579  0.00  0.00    +0.080 A 
ATOM     23  C   UNL     1       0.034   5.712   0.589  0.00  0.00    +0.010 A 
ATOM     24  C   UNL     1      -0.069   6.399  -0.575  0.00  0.00    +0.057 A 
ATOM     25  S   UNL     1       1.155   7.683  -0.408  0.00  0.00    -0.076 S 
ATOM     26  C   UNL     1       1.310   5.598   2.861  0.00  0.00    +0.263 A 
ATOM     27  O   UNL     1       0.703   4.622   3.268  0.00  0.00    -0.267 OA
ATOM     28  N   UNL     1       2.265   6.169   3.618  0.00  0.00    -0.290 N 
ATOM     29  C   UNL     1       2.571   5.607   4.936  0.00  0.00    +0.154 C 
BRANCH  23  30
ATOM     30  C   UNL     1      -0.830   4.543   0.852  0.00  0.00    +0.021 A 
ATOM     31  C   UNL     1      -2.190   4.430   0.734  0.00  0.00    +0.016 A 
ATOM     32  C   UNL     1      -2.783   3.222   1.034  0.00  0.00    +0.008 A 
ATOM     33  C   UNL     1      -2.006   2.188   1.446  0.00  0.00    +0.046 A 
ATOM     34  S   UNL     1      -0.373   2.909   1.407  0.00  0.00    -0.097 S 
ENDBRANCH  23  30
ENDBRANCH  18  19
ENDBRANCH   1  18
TORSDOF 4
