REMARK  Name = ZINC01611027
REMARK  3 active torsions:
REMARK  status: ('A' for Active; 'I' for Inactive)
REMARK    1  A    between atoms: C_3  and  N_8
REMARK    2  A    between atoms: N_12  and  N_16
REMARK    3  A    between atoms: C_17  and  C_18
REMARK                            x       y       z     vdW  Elec       q    Type
REMARK                         _______ _______ _______ _____ _____    ______ ____
ROOT
ATOM      1  N   UNL     1       7.355   0.976  -0.834  0.00  0.00    -0.261 N 
ATOM      2  C   UNL     1       6.177   0.144  -1.040  0.00  0.00    +0.211 C 
ATOM      3  C   UNL     1       4.916   0.915  -0.793  0.00  0.00    +0.253 C 
ATOM      4  O   UNL     1       3.877   0.496  -1.259  0.00  0.00    -0.272 OA
ATOM      5  N   UNL     1       4.888   2.045  -0.080  0.00  0.00    -0.183 N 
ATOM      6  C   UNL     1       6.080   2.631   0.518  0.00  0.00    +0.231 C 
ATOM      7  C   UNL     1       7.327   2.108  -0.125  0.00  0.00    +0.240 C 
ATOM      8  O   UNL     1       8.354   2.742  -0.001  0.00  0.00    -0.273 OA
ENDROOT
BRANCH   1  11
ATOM      9  C   UNL     1      10.612  -0.675  -1.268  0.00  0.00    +0.003 A 
ATOM     10  C   UNL     1       9.415  -0.277  -0.704  0.00  0.00    +0.023 A 
ATOM     11  C   UNL     1       8.568   0.572  -1.403  0.00  0.00    +0.038 A 
ATOM     12  C   UNL     1       8.924   1.015  -2.670  0.00  0.00    +0.043 A 
ATOM     13  C   UNL     1      10.125   0.618  -3.227  0.00  0.00    +0.043 A 
ATOM     14  C   UNL     1      10.967  -0.228  -2.527  0.00  0.00    +0.020 A 
ATOM     15 CL   UNL     1      10.574   1.176  -4.808  0.00  0.00    -0.083 Cl
ENDBRANCH   1  11
BRANCH   5  16
ATOM     16  N   UNL     1       3.661   2.697   0.096  0.00  0.00    -0.183 NA
ATOM     17  C   UNL     1       3.583   3.739   0.870  0.00  0.00    +0.156 C 
BRANCH  17  18
ATOM     18  C   UNL     1       2.278   4.349   1.150  0.00  0.00    +0.059 A 
ATOM     19  C   UNL     1       1.061   3.925   0.664  0.00  0.00    +0.028 A 
ATOM     20  C   UNL     1       0.086   4.790   1.181  0.00  0.00    +0.019 A 
ATOM     21  C   UNL     1       0.711   5.701   1.960  0.00  0.00    +0.083 A 
ATOM     22  N   UNL     1       2.049   5.446   1.945  0.00  0.00    -0.360 N 
ATOM     23  H   UNL     1       2.727   5.952   2.420  0.00  0.00    +0.165 HD
ENDBRANCH  17  18
ENDBRANCH   5  16
TORSDOF 3
