REMARK  Name = ZINC59915563
REMARK  11 active torsions:
REMARK  status: ('A' for Active; 'I' for Inactive)
REMARK    1  A    between atoms: C_1  and  C_2
REMARK    2  A    between atoms: C_2  and  C_3
REMARK    3  A    between atoms: C_3  and  C_4
REMARK    4  A    between atoms: C_4  and  C_5
REMARK    5  A    between atoms: C_5  and  C_27
REMARK    6  A    between atoms: N_6  and  N_7
REMARK    7  A    between atoms: C_11  and  S_14
REMARK    8  A    between atoms: N_12  and  N_13
REMARK    9  A    between atoms: S_14  and  C_15
REMARK   10  A    between atoms: C_15  and  C_16
REMARK   11  A    between atoms: N_18  and  C_19
REMARK                            x       y       z     vdW  Elec       q    Type
REMARK                         _______ _______ _______ _____ _____    ______ ____
ROOT
ATOM      1  N   UNL     1       1.528  -3.617   4.514  0.00  0.00    -0.204 N 
ATOM      2  C   UNL     1       0.848  -4.351   5.477  0.00  0.00    +0.254 A 
ATOM      3  N   UNL     1      -0.422  -4.674   5.444  0.00  0.00    -0.109 NA
ATOM      4  N   UNL     1      -0.711  -5.412   6.599  0.00  0.00    -0.119 NA
ATOM      5  C   UNL     1       0.393  -5.516   7.300  0.00  0.00    +0.210 A 
ATOM      6  N   UNL     1       1.386  -4.868   6.622  0.00  0.00    -0.211 N 
ATOM      7  H   UNL     1       2.474  -3.431   4.625  0.00  0.00    +0.177 HD
ENDROOT
BRANCH   1   9
ATOM      8  C   UNL     1       1.477  -2.469   2.496  0.00  0.00    +0.034 C 
ATOM      9  N   UNL     1       0.849  -3.145   3.384  0.00  0.00    -0.189 NA
ATOM     10  C   UNL     1       2.946  -2.180   2.668  0.00  0.00    +0.062 C 
BRANCH   8  11
ATOM     11  C   UNL     1       0.746  -1.961   1.280  0.00  0.00    +0.052 C 
BRANCH  11  12
ATOM     12  C   UNL     1       0.723  -0.432   1.300  0.00  0.00    +0.006 C 
BRANCH  12  14
ATOM     13  C   UNL     1      -0.042   1.613   0.085  0.00  0.00    +0.004 C 
ATOM     14  C   UNL     1      -0.019   0.084   0.065  0.00  0.00    -0.003 C 
ENDBRANCH  12  14
ENDBRANCH  11  12
ENDBRANCH   8  11
ENDBRANCH   1   9
BRANCH   6  15
ATOM     15  N   UNL     1       2.688  -4.754   7.020  0.00  0.00    -0.294 N 
ATOM     16  H   UNL     1       2.822  -3.928   7.584  0.00  0.00    +0.163 HD
ATOM     17  H   UNL     1       2.989  -5.581   7.513  0.00  0.00    +0.163 HD
ENDBRANCH   6  15
BRANCH   5  18
ATOM     18  S   UNL     1       0.566  -6.351   8.842  0.00  0.00    -0.075 S 
BRANCH  18  19
ATOM     19  C   UNL     1      -1.096  -6.992   9.183  0.00  0.00    +0.173 C 
BRANCH  19  20
ATOM     20  C   UNL     1      -1.088  -7.738  10.492  0.00  0.00    +0.228 C 
ATOM     21  O   UNL     1      -0.062  -7.828  11.133  0.00  0.00    -0.275 OA
ATOM     22  N   UNL     1      -2.221  -8.306  10.952  0.00  0.00    -0.284 N 
ATOM     23  H   UNL     1      -3.056  -8.179  10.473  0.00  0.00    +0.155 HD
BRANCH  22  24
ATOM     24  C   UNL     1      -2.194  -9.078  12.120  0.00  0.00    +0.052 A 
ATOM     25  C   UNL     1      -1.339  -8.737  13.159  0.00  0.00    +0.026 A 
ATOM     26  C   UNL     1      -1.314  -9.500  14.310  0.00  0.00    +0.022 A 
ATOM     27  C   UNL     1      -2.140 -10.604  14.428  0.00  0.00    +0.042 A 
ATOM     28  C   UNL     1      -2.993 -10.947  13.394  0.00  0.00    +0.041 A 
ATOM     29  C   UNL     1      -3.027 -10.183  12.243  0.00  0.00    +0.064 A 
ATOM     30 CL   UNL     1      -4.103 -10.610  10.948  0.00  0.00    -0.082 Cl
ATOM     31 CL   UNL     1      -2.105 -11.561  15.876  0.00  0.00    -0.083 Cl
ENDBRANCH  22  24
ENDBRANCH  19  20
ENDBRANCH  18  19
ENDBRANCH   5  18
TORSDOF 9
