REMARK  Name = ZINC20763962
REMARK  6 active torsions:
REMARK  status: ('A' for Active; 'I' for Inactive)
REMARK    1  A    between atoms: C_1  and  C_2
REMARK    2  A    between atoms: C_5  and  C_9
REMARK    3  A    between atoms: C_6  and  C_8
REMARK    4  A    between atoms: C_12  and  C_26
REMARK    5  A    between atoms: C_15  and  C_17
REMARK    6  A    between atoms: C_31  and  O_32
REMARK                            x       y       z     vdW  Elec       q    Type
REMARK                         _______ _______ _______ _____ _____    ______ ____
ROOT
ATOM      1  C   UNL     1      -0.086   5.527   0.754  0.00  0.00    +0.081 C 
ATOM      2  N   UNL     1      -0.122   4.070   0.583  0.00  0.00    +0.401 N 
ATOM      3  C   UNL     1       1.149   3.594   0.010  0.00  0.00    -0.028 C 
ATOM      4  C   UNL     1       1.254   4.120  -1.425  0.00  0.00    +0.044 C 
ATOM      5  C   UNL     1       0.917   5.585  -1.448  0.00  0.00    +0.040 C 
ATOM      6  N   UNL     1       0.324   6.181  -0.482  0.00  0.00    -0.299 NA
ATOM      7  H   UNL     1      -0.279   3.590   1.560  0.00  0.00    -0.081 HD
ATOM      8  H   UNL     1      -0.946   3.801  -0.095  0.00  0.00    -0.081 HD
ENDROOT
BRANCH   5   9
ATOM      9  C   UNL     1       1.287   6.372  -2.639  0.00  0.00    -0.001 A 
ATOM     10  C   UNL     1       1.940   5.757  -3.710  0.00  0.00    +0.013 A 
ATOM     11  C   UNL     1       2.280   6.493  -4.824  0.00  0.00    +0.050 A 
ATOM     12  C   UNL     1       1.986   7.848  -4.883  0.00  0.00    +0.166 A 
ATOM     13  C   UNL     1       1.339   8.470  -3.814  0.00  0.00    +0.167 A 
ATOM     14  C   UNL     1       0.991   7.736  -2.696  0.00  0.00    +0.059 A 
ATOM     15  O   UNL     1       1.167   9.790  -4.117  0.00  0.00    -0.453 OA
ATOM     16  C   UNL     1       1.345   9.883  -5.543  0.00  0.00    +0.466 C 
ATOM     17  O   UNL     1       2.217   8.780  -5.852  0.00  0.00    -0.453 OA
ENDBRANCH   5   9
BRANCH   1  22
ATOM     18  C   UNL     1      -5.350   7.395   2.236  0.00  0.00    +0.044 C 
ATOM     19  C   UNL     1      -3.978   6.908   1.850  0.00  0.00    -0.050 A 
ATOM     20  C   UNL     1      -3.613   5.598   2.101  0.00  0.00    +0.003 A 
ATOM     21  C   UNL     1      -2.355   5.151   1.743  0.00  0.00    +0.004 A 
ATOM     22  C   UNL     1      -1.459   6.014   1.141  0.00  0.00    -0.038 A 
ATOM     23  C   UNL     1      -1.824   7.324   0.889  0.00  0.00    -0.047 A 
ATOM     24  C   UNL     1      -3.084   7.771   1.244  0.00  0.00    +0.007 A 
ATOM     25  C   UNL     1      -0.850   8.264   0.228  0.00  0.00    +0.044 C 
ENDBRANCH   1  22
BRANCH   3  26
ATOM     26  C   UNL     1       1.170   2.087   0.002  0.00  0.00    -0.018 A 
ATOM     27  C   UNL     1      -0.017   1.379   0.010  0.00  0.00    +0.020 A 
ATOM     28  C   UNL     1       0.002  -0.004   0.002  0.00  0.00    +0.018 A 
ATOM     29  C   UNL     1       1.208  -0.681  -0.014  0.00  0.00    +0.019 A 
ATOM     30  C   UNL     1       2.397   0.022  -0.021  0.00  0.00    +0.047 A 
ATOM     31  C   UNL     1       2.380   1.410  -0.013  0.00  0.00    +0.119 A 
ATOM     32 BR   UNL     1      -1.623  -0.971   0.012  0.00  0.00    -0.050 Br
BRANCH  31  33
ATOM     33  O   UNL     1       3.548   2.104  -0.020  0.00  0.00    -0.507 OA
ATOM     34  H   UNL     1       4.508   1.567  -0.032  0.00  0.00    +0.292 HD
ENDBRANCH  31  33
ENDBRANCH   3  26
TORSDOF 4
