REMARK  Name = ZINC24902993
REMARK  4 active torsions:
REMARK  status: ('A' for Active; 'I' for Inactive)
REMARK    1  A    between atoms: C_4  and  C_7
REMARK    2  A    between atoms: C_12  and  C_13
REMARK    3  A    between atoms: C_13  and  N_14
REMARK    4  A    between atoms: N_18  and  C_21
REMARK                            x       y       z     vdW  Elec       q    Type
REMARK                         _______ _______ _______ _____ _____    ______ ____
ROOT
ATOM      1  N   UNL     1      -5.752   4.142  -0.164  0.00  0.00    +0.383 N 
ATOM      2  C   UNL     1      -5.207   4.654  -1.442  0.00  0.00    -0.077 C 
ATOM      3  C   UNL     1      -3.969   5.494  -1.259  0.00  0.00    +0.000 C 
ATOM      4  C   UNL     1      -2.724   4.588  -1.390  0.00  0.00    +0.104 C 
ATOM      5  N   UNL     1      -2.529   3.813  -0.239  0.00  0.00    -0.318 N 
ATOM      6  C   UNL     1      -3.635   2.884   0.070  0.00  0.00    +0.088 C 
ATOM      7  C   UNL     1      -4.717   3.662   0.775  0.00  0.00    -0.059 C 
ATOM      8  H   UNL     1      -6.234   4.999   0.329  0.00  0.00    -0.081 HD
ENDROOT
BRANCH   5   9
ATOM      9  C   UNL     1      -1.330   3.150  -0.291  0.00  0.00    +0.108 A 
ATOM     10  C   UNL     1      -0.158   3.850  -0.367  0.00  0.00    +0.112 A 
ATOM     11  C   UNL     1       1.055   3.145  -0.419  0.00  0.00    +0.256 A 
ATOM     12  O   UNL     1       2.112   3.748  -0.488  0.00  0.00    -0.268 OA
ATOM     13  N   UNL     1       1.043   1.798  -0.393  0.00  0.00    -0.275 N 
ATOM     14  H   UNL     1       1.990   1.238  -0.433  0.00  0.00    +0.173 HD
ATOM     15  C   UNL     1      -0.119   1.125  -0.317  0.00  0.00    +0.328 A 
ATOM     16  O   UNL     1      -0.107  -0.091  -0.295  0.00  0.00    -0.247 OA
ATOM     17  N   UNL     1      -1.296   1.777  -0.271  0.00  0.00    -0.296 N 
ATOM     18  H   UNL     1      -2.233   1.204  -0.218  0.00  0.00    +0.172 HD
ENDBRANCH   5   9
BRANCH   1  19
ATOM     19  C   UNL     1      -6.767   3.107  -0.402  0.00  0.00    -0.042 C 
BRANCH  19  25
ATOM     20  C   UNL     1      -8.379   3.692   1.436  0.00  0.00    -0.017 A 
ATOM     21  C   UNL     1      -9.028   3.387   2.631  0.00  0.00    +0.009 A 
ATOM     22  C   UNL     1      -8.761   2.196   3.273  0.00  0.00    +0.001 A 
ATOM     23  C   UNL     1      -7.854   1.303   2.732  0.00  0.00    +0.000 A 
ATOM     24  C   UNL     1      -7.210   1.598   1.544  0.00  0.00    +0.002 A 
ATOM     25  C   UNL     1      -7.470   2.787   0.892  0.00  0.00    -0.056 A 
BRANCH  20  29
ATOM     26  C   UNL     1      -9.178   7.366  -0.550  0.00  0.00    +0.000 A 
ATOM     27  C   UNL     1      -9.361   6.168  -1.217  0.00  0.00    +0.001 A 
ATOM     28  C   UNL     1      -9.103   4.973  -0.578  0.00  0.00    +0.008 A 
ATOM     29  C   UNL     1      -8.658   4.974   0.743  0.00  0.00    -0.018 A 
ATOM     30  C   UNL     1      -8.480   6.184   1.412  0.00  0.00    +0.008 A 
ATOM     31  C   UNL     1      -8.736   7.373   0.760  0.00  0.00    +0.001 A 
ENDBRANCH  20  29
ENDBRANCH  19  25
ENDBRANCH   1  19
TORSDOF 4
