REMARK  Name = ZINC44353952
REMARK  4 active torsions:
REMARK  status: ('A' for Active; 'I' for Inactive)
REMARK    1  A    between atoms: C_1  and  C_2
REMARK    2  A    between atoms: N_5  and  C_20
REMARK    3  A    between atoms: C_6  and  C_7
REMARK    4  A    between atoms: N_16  and  C_19
REMARK                            x       y       z     vdW  Elec       q    Type
REMARK                         _______ _______ _______ _____ _____    ______ ____
ROOT
ATOM      1  C   UNL     1       0.003  -0.461   2.516  0.00  0.00    +0.268 C 
ATOM      2  O   UNL     1      -0.111   0.710   2.826  0.00  0.00    -0.268 OA
ATOM      3  N   UNL     1       0.127  -1.403   3.473  0.00  0.00    -0.259 N 
ATOM      4  C   UNL     1       0.015  -1.051   4.811  0.00  0.00    +0.165 A 
ATOM      5  N   UNL     1       0.112  -1.826   5.871  0.00  0.00    -0.229 NA
ATOM      6  C   UNL     1      -0.018  -1.348   7.102  0.00  0.00    +0.056 A 
ATOM      7  C   UNL     1      -0.258  -0.011   7.176  0.00  0.00    +0.028 A 
ATOM      8  S   UNL     1      -0.271   0.472   5.474  0.00  0.00    -0.055 S 
ATOM      9  C   UNL     1      -0.451   0.798   8.412  0.00  0.00    +0.128 C 
ATOM     10  N   UNL     1      -0.690  -0.131   9.535  0.00  0.00    -0.300 NA
ATOM     11  C   UNL     1       0.317  -1.201   9.548  0.00  0.00    +0.090 C 
ATOM     12  C   UNL     1       0.082  -2.167   8.382  0.00  0.00    +0.071 C 
ATOM     13  C   UNL     1      -0.711   0.587  10.817  0.00  0.00    +0.105 C 
ATOM     14  H   UNL     1       0.294  -2.326   3.225  0.00  0.00    +0.157 HD
ENDROOT
BRANCH   1  20
ATOM     15  C   UNL     1       2.546  -0.674   0.618  0.00  0.00    +0.048 C 
ATOM     16  C   UNL     1       1.107  -0.944   0.264  0.00  0.00    -0.001 A 
ATOM     17  C   UNL     1       0.601  -1.349  -0.973  0.00  0.00    +0.138 A 
ATOM     18  N   UNL     1      -0.697  -1.472  -0.856  0.00  0.00    -0.179 NA
ATOM     19  N   UNL     1      -1.079  -1.185   0.337  0.00  0.00    -0.262 N 
ATOM     20  C   UNL     1       0.005  -0.849   1.097  0.00  0.00    +0.126 A 
ATOM     21  C   UNL     1      -2.465  -1.218   0.810  0.00  0.00    +0.173 C 
ENDBRANCH   1  20
TORSDOF 1
