REMARK  Name = ZINC13782497
REMARK  12 active torsions:
REMARK  status: ('A' for Active; 'I' for Inactive)
REMARK    1  A    between atoms: C_1  and  C_2
REMARK    2  A    between atoms: C_3  and  C_38
REMARK    3  A    between atoms: C_4  and  C_29
REMARK    4  A    between atoms: C_6  and  C_10
REMARK    5  A    between atoms: C_7  and  C_9
REMARK    6  A    between atoms: N_12  and  C_13
REMARK    7  A    between atoms: C_13  and  C_14
REMARK    8  A    between atoms: C_14  and  C_15
REMARK    9  A    between atoms: C_15  and  N_16
REMARK   10  A    between atoms: C_19  and  C_22
REMARK   11  A    between atoms: C_19  and  O_28
REMARK   12  A    between atoms: C_32  and  N_35
REMARK                            x       y       z     vdW  Elec       q    Type
REMARK                         _______ _______ _______ _____ _____    ______ ____
ROOT
ATOM      1  C   UNL     1       6.147   0.690   2.509  0.00  0.00    +0.061 C 
ATOM      2  C   UNL     1       5.467   0.426   1.190  0.00  0.00    +0.014 C 
ATOM      3  C   UNL     1       4.417  -0.408   1.141  0.00  0.00    +0.043 C 
ATOM      4  C   UNL     1       3.702  -0.693  -0.149  0.00  0.00    +0.092 C 
ATOM      5  C   UNL     1       4.535  -0.268  -1.325  0.00  0.00    +0.043 C 
ATOM      6  C   UNL     1       5.581   0.561  -1.178  0.00  0.00    +0.014 C 
ATOM      7  N   UNL     1       5.928   1.040   0.057  0.00  0.00    -0.321 N 
ATOM      8  C   UNL     1       6.384   0.968  -2.387  0.00  0.00    +0.061 C 
ATOM      9  H   UNL     1       6.580   1.923   0.136  0.00  0.00    +0.152 HD
ENDROOT
BRANCH   4  10
ATOM     10  C   UNL     1       2.395   0.058  -0.169  0.00  0.00    -0.035 A 
ATOM     11  C   UNL     1       1.202  -0.633  -0.265  0.00  0.00    +0.007 A 
ATOM     12  C   UNL     1       0.004   0.056  -0.283  0.00  0.00    +0.033 A 
ATOM     13  C   UNL     1      -0.001   1.436  -0.205  0.00  0.00    +0.126 A 
ATOM     14  C   UNL     1       1.192   2.127  -0.108  0.00  0.00    +0.033 A 
ATOM     15  C   UNL     1       2.390   1.438  -0.091  0.00  0.00    +0.007 A 
BRANCH  13  16
ATOM     16  N   UNL     1      -1.284   2.174  -0.230  0.00  0.00    +0.056 N 
ATOM     17  O   UNL     1      -2.335   1.565  -0.320  0.00  0.00    -0.126 OA
ATOM     18  O   UNL     1      -1.288   3.390  -0.161  0.00  0.00    -0.126 OA
ENDBRANCH  13  16
ENDBRANCH   4  10
BRANCH   3  19
ATOM     19  C   UNL     1       3.973  -1.032   2.332  0.00  0.00    +0.240 C 
ATOM     20  O   UNL     1       4.543  -0.810   3.385  0.00  0.00    -0.271 OA
ATOM     21  N   UNL     1       2.919  -1.872   2.301  0.00  0.00    -0.326 N 
ATOM     22  H   UNL     1       2.574  -2.357   3.226  0.00  0.00    +0.145 HD
ATOM     23  H   UNL     1       2.404  -2.073   1.350  0.00  0.00    +0.145 HD
ENDBRANCH   3  19
BRANCH   5  24
ATOM     24  C   UNL     1       4.210  -0.751  -2.616  0.00  0.00    +0.242 C 
ATOM     25  O   UNL     1       4.807  -0.332  -3.591  0.00  0.00    -0.270 OA
ATOM     26  N   UNL     1       3.240  -1.675  -2.765  0.00  0.00    -0.312 N 
ATOM     27  H   UNL     1       2.700  -2.053  -1.884  0.00  0.00    +0.149 HD
BRANCH  26  28
ATOM     28  C   UNL     1       2.904  -2.175  -4.100  0.00  0.00    +0.102 C 
BRANCH  28  29
ATOM     29  C   UNL     1       1.779  -3.206  -3.990  0.00  0.00    +0.000 C 
BRANCH  29  30
ATOM     30  C   UNL     1       1.428  -3.728  -5.385  0.00  0.00    -0.077 C 
BRANCH  30  31
ATOM     31  N   UNL     1       0.348  -4.719  -5.279  0.00  0.00    +0.380 N 
ATOM     32  C   UNL     1       0.799  -5.915  -4.556  0.00  0.00    -0.076 C 
ATOM     33  C   UNL     1      -0.386  -6.858  -4.338  0.00  0.00    +0.021 C 
ATOM     34  C   UNL     1      -0.975  -7.252  -5.696  0.00  0.00    +0.088 C 
ATOM     35  C   UNL     1      -1.392  -5.986  -6.449  0.00  0.00    +0.021 C 
ATOM     36  C   UNL     1      -0.178  -5.067  -6.605  0.00  0.00    -0.076 C 
ATOM     37  H   UNL     1      -0.472  -4.267  -4.702  0.00  0.00    -0.082 HD
BRANCH  34  38
ATOM     38  C   UNL     1      -2.179  -8.133  -5.486  0.00  0.00    -0.016 A 
ATOM     39  C   UNL     1      -3.434  -7.569  -5.353  0.00  0.00    +0.006 A 
ATOM     40  C   UNL     1      -4.539  -8.377  -5.165  0.00  0.00    +0.000 A 
ATOM     41  C   UNL     1      -4.388  -9.750  -5.100  0.00  0.00    +0.000 A 
ATOM     42  C   UNL     1      -3.133 -10.314  -5.228  0.00  0.00    +0.000 A 
ATOM     43  C   UNL     1      -2.028  -9.506  -5.421  0.00  0.00    +0.006 A 
ENDBRANCH  34  38
BRANCH  34  44
ATOM     44  O   UNL     1       0.007  -7.958  -6.457  0.00  0.00    -0.384 OA
ATOM     45  H   UNL     1      -0.236  -8.322  -7.466  0.00  0.00    +0.211 HD
ENDBRANCH  34  44
ENDBRANCH  30  31
ENDBRANCH  29  30
ENDBRANCH  28  29
ENDBRANCH  26  28
ENDBRANCH   5  24
TORSDOF 10
