REMARK  Name = ZINC01018141
REMARK  6 active torsions:
REMARK  status: ('A' for Active; 'I' for Inactive)
REMARK    1  A    between atoms: C_1  and  S_2
REMARK    2  A    between atoms: S_2  and  C_3
REMARK    3  A    between atoms: C_7  and  O_9
REMARK    4  A    between atoms: O_9  and  C_10
REMARK    5  A    between atoms: C_21  and  N_27
REMARK    6  A    between atoms: C_22  and  C_25
REMARK                            x       y       z     vdW  Elec       q    Type
REMARK                         _______ _______ _______ _____ _____    ______ ____
ROOT
ATOM      1  C   UNL     1       1.381   7.461   0.234  0.00  0.00    +0.193 A 
ATOM      2  N   UNL     1       0.298   8.216   0.354  0.00  0.00    -0.202 NA
ATOM      3  C   UNL     1      -0.913   7.670   0.370  0.00  0.00    +0.164 A 
ATOM      4  C   UNL     1      -1.035   6.288   0.260  0.00  0.00    +0.116 A 
ATOM      5  C   UNL     1       0.124   5.529   0.135  0.00  0.00    +0.226 A 
ATOM      6  N   UNL     1       1.302   6.142   0.132  0.00  0.00    -0.187 NA
ATOM      7  N   UNL     1      -2.048   8.471   0.498  0.00  0.00    -0.199 N 
ATOM      8  C   UNL     1      -2.093   9.702   1.072  0.00  0.00    +0.139 A 
ATOM      9  C   UNL     1      -3.410  10.142   0.987  0.00  0.00    +0.111 A 
ATOM     10  C   UNL     1      -4.147   9.124   0.339  0.00  0.00    +0.155 A 
ATOM     11  N   UNL     1      -3.334   8.148   0.050  0.00  0.00    -0.170 NA
ENDROOT
BRANCH   8  12
ATOM     12  N   UNL     1      -1.032  10.385   1.634  0.00  0.00    -0.342 N 
ATOM     13  H   UNL     1      -0.148   9.987   1.642  0.00  0.00    +0.144 HD
ATOM     14  H   UNL     1      -1.172  11.264   2.020  0.00  0.00    +0.144 HD
ENDBRANCH   8  12
BRANCH   1  16
ATOM     15  C   UNL     1       4.022   6.771   0.038  0.00  0.00    +0.093 C 
ATOM     16  S   UNL     1       2.966   8.231   0.216  0.00  0.00    -0.089 S 
ENDBRANCH   1  16
BRANCH   9  17
ATOM     17  C   UNL     1      -3.923  11.391   1.466  0.00  0.00    +0.104 C 
ATOM     18  N   UNL     1      -4.330  12.381   1.846  0.00  0.00    -0.191 NA
ENDBRANCH   9  17
BRANCH   5  19
ATOM     19  O   UNL     1       0.052   4.180   0.024  0.00  0.00    -0.437 OA
BRANCH  19  20
ATOM     20  C   UNL     1       1.214   3.477   0.022  0.00  0.00    +0.138 A 
ATOM     21  C   UNL     1       1.784   3.083  -1.167  0.00  0.00    +0.047 A 
ATOM     22  C   UNL     1       2.975   2.362  -1.180  0.00  0.00    +0.004 A 
ATOM     23  C   UNL     1       3.608   2.027  -0.022  0.00  0.00    +0.009 A 
ATOM     24  C   UNL     1       3.058   2.412   1.213  0.00  0.00    -0.014 A 
ATOM     25  C   UNL     1       1.846   3.146   1.238  0.00  0.00    +0.024 A 
ATOM     26  C   UNL     1       1.298   3.529   2.473  0.00  0.00    +0.012 A 
ATOM     27  C   UNL     1       1.936   3.191   3.627  0.00  0.00    +0.001 A 
ATOM     28  C   UNL     1       3.128   2.470   3.603  0.00  0.00    +0.001 A 
ATOM     29  C   UNL     1       3.688   2.081   2.425  0.00  0.00    +0.008 A 
ENDBRANCH  19  20
ENDBRANCH   5  19
TORSDOF 5
