REMARK  Name = ZINC23337347
REMARK  4 active torsions:
REMARK  status: ('A' for Active; 'I' for Inactive)
REMARK    1  A    between atoms: C_9  and  C_11
REMARK    2  A    between atoms: N_16  and  C_18
REMARK    3  A    between atoms: C_18  and  C_19
REMARK    4  A    between atoms: C_20  and  C_27
REMARK                            x       y       z     vdW  Elec       q    Type
REMARK                         _______ _______ _______ _____ _____    ______ ____
ROOT
ATOM      1  C   UNL     1       3.006   4.528   0.491  0.00  0.00    +0.140 C 
ENDROOT
BRANCH   1   2
ATOM      2  C   UNL     1       1.535   4.448   0.175  0.00  0.00    +0.070 A 
ATOM      3  C   UNL     1       0.699   5.503  -0.024  0.00  0.00    +0.149 A 
ATOM      4  N   UNL     1      -0.540   5.008  -0.283  0.00  0.00    -0.216 NA
ATOM      5  C   UNL     1      -0.483   3.710  -0.249  0.00  0.00    +0.178 A 
ATOM      6  N   UNL     1       0.793   3.290   0.034  0.00  0.00    -0.295 N 
ATOM      7  C   UNL     1       0.998   1.929   0.102  0.00  0.00    +0.100 A 
ATOM      8  C   UNL     1      -0.004   1.076  -0.099  0.00  0.00    +0.067 A 
ATOM      9  S   UNL     1      -1.371   2.179  -0.422  0.00  0.00    -0.058 S 
BRANCH   3  10
ATOM     10  C   UNL     1       1.070   6.927   0.031  0.00  0.00    +0.267 C 
ATOM     11  O   UNL     1       2.236   7.247   0.155  0.00  0.00    -0.268 OA
ATOM     12  N   UNL     1       0.116   7.876  -0.056  0.00  0.00    -0.296 N 
ATOM     13  C   UNL     1      -1.307   7.510  -0.052  0.00  0.00    +0.108 C 
ATOM     14  C   UNL     1      -2.014   8.310   1.053  0.00  0.00    +0.019 C 
ATOM     15  C   UNL     1      -1.750   9.803   0.842  0.00  0.00    +0.003 C 
ATOM     16  C   UNL     1      -0.247  10.075   0.937  0.00  0.00    +0.019 C 
ATOM     17  C   UNL     1       0.480   9.295  -0.163  0.00  0.00    +0.108 C 
ENDBRANCH   3  10
ENDBRANCH   1   2
BRANCH   1  22
ATOM     18  C   UNL     1       5.929   4.982  -1.839  0.00  0.00    +0.069 C 
ATOM     19  C   UNL     1       5.809   3.671  -2.621  0.00  0.00    +0.014 C 
ATOM     20  C   UNL     1       4.329   3.342  -2.829  0.00  0.00    +0.016 C 
ATOM     21  C   UNL     1       3.635   3.252  -1.468  0.00  0.00    +0.085 C 
ATOM     22  N   UNL     1       3.777   4.531  -0.759  0.00  0.00    -0.296 NA
ATOM     23  C   UNL     1       5.189   4.844  -0.507  0.00  0.00    +0.096 C 
BRANCH  18  32
ATOM     24  C   UNL     1      11.823   5.574  -0.743  0.00  0.00    +0.002 A 
ATOM     25  C   UNL     1      11.527   6.923  -0.884  0.00  0.00    +0.002 A 
ATOM     26  C   UNL     1      10.253   7.332  -1.154  0.00  0.00    +0.030 A 
ATOM     27  C   UNL     1       9.232   6.387  -1.292  0.00  0.00    +0.089 A 
ATOM     28  C   UNL     1       9.531   5.021  -1.150  0.00  0.00    +0.066 A 
ATOM     29  C   UNL     1      10.833   4.624  -0.875  0.00  0.00    +0.028 A 
ATOM     30  N   UNL     1       8.339   4.349  -1.332  0.00  0.00    -0.342 N 
ATOM     31  H   UNL     1       8.311   3.252  -1.262  0.00  0.00    +0.167 HD
ATOM     32  C   UNL     1       7.382   5.283  -1.579  0.00  0.00    +0.112 A 
ATOM     33  N   UNL     1       7.903   6.475  -1.553  0.00  0.00    -0.232 NA
ENDBRANCH  18  32
ENDBRANCH   1  22
TORSDOF 4
