REMARK  Name = ZINC15605711
REMARK  8 active torsions:
REMARK  status: ('A' for Active; 'I' for Inactive)
REMARK    1  A    between atoms: C_4  and  C_7
REMARK    2  A    between atoms: C_7  and  N_8
REMARK    3  A    between atoms: C_9  and  N_36
REMARK    4  A    between atoms: C_10  and  N_17
REMARK    5  A    between atoms: N_17  and  C_18
REMARK    6  A    between atoms: C_18  and  C_19
REMARK    7  A    between atoms: C_19  and  C_20
REMARK    8  A    between atoms: C_26  and  C_28
REMARK                            x       y       z     vdW  Elec       q    Type
REMARK                         _______ _______ _______ _____ _____    ______ ____
ROOT
ATOM      1  N   UNL     1      -5.744   0.925  -1.519  0.00  0.00    -0.276 N 
ATOM      2  C   UNL     1      -4.566   0.237  -1.691  0.00  0.00    +0.128 A 
ATOM      3  C   UNL     1      -4.328  -0.892  -0.933  0.00  0.00    +0.140 A 
ATOM      4  C   UNL     1      -5.298  -1.298   0.003  0.00  0.00    +0.277 A 
ATOM      5  O   UNL     1      -5.112  -2.289   0.689  0.00  0.00    -0.266 OA
ATOM      6  N   UNL     1      -6.434  -0.585   0.136  0.00  0.00    -0.273 N 
ATOM      7  H   UNL     1      -7.123  -0.873   0.800  0.00  0.00    +0.173 HD
ATOM      8  C   UNL     1      -6.650   0.509  -0.615  0.00  0.00    +0.331 A 
ATOM      9  O   UNL     1      -7.683   1.135  -0.475  0.00  0.00    -0.246 OA
ENDROOT
BRANCH   3  10
ATOM     10  N   UNL     1      -3.132  -1.623  -1.090  0.00  0.00    -0.260 N 
ATOM     11  C   UNL     1      -3.179  -2.929  -1.419  0.00  0.00    +0.254 C 
ATOM     12  O   UNL     1      -2.148  -3.565  -1.532  0.00  0.00    -0.270 OA
BRANCH  11  13
ATOM     13  C   UNL     1      -4.481  -3.588  -1.642  0.00  0.00    +0.074 A 
ATOM     14  C   UNL     1      -5.596  -2.833  -2.011  0.00  0.00    +0.036 A 
ATOM     15  C   UNL     1      -6.810  -3.455  -2.219  0.00  0.00    +0.042 A 
ATOM     16  C   UNL     1      -6.926  -4.827  -2.063  0.00  0.00    +0.023 A 
ATOM     17  C   UNL     1      -5.827  -5.582  -1.698  0.00  0.00    +0.040 A 
ATOM     18  C   UNL     1      -4.603  -4.973  -1.491  0.00  0.00    +0.136 A 
ATOM     19  F   UNL     1      -3.529  -5.713  -1.139  0.00  0.00    -0.205 F 
ATOM     20 CL   UNL     1      -8.197  -2.516  -2.678  0.00  0.00    -0.084 Cl
ENDBRANCH  11  13
BRANCH  10  21
ATOM     21  C   UNL     1      -1.839  -0.962  -0.895  0.00  0.00    +0.118 C 
BRANCH  21  22
ATOM     22  C   UNL     1      -1.358  -1.197   0.538  0.00  0.00    +0.050 C 
BRANCH  22  23
ATOM     23  C   UNL     1      -0.090  -0.417   0.776  0.00  0.00    -0.072 C 
ATOM     24  C   UNL     1      -0.189   0.747   1.332  0.00  0.00    -0.028 C 
ATOM     25  C   UNL     1       0.980   1.642   1.622  0.00  0.00    +0.027 C 
ATOM     26  C   UNL     1       2.283   0.841   1.573  0.00  0.00    +0.004 C 
ATOM     27  C   UNL     1       2.303   0.027   0.273  0.00  0.00    +0.005 C 
ATOM     28  C   UNL     1       1.208  -1.040   0.352  0.00  0.00    +0.030 C 
ENDBRANCH  22  23
ENDBRANCH  21  22
ENDBRANCH  10  21
ENDBRANCH   3  10
BRANCH   2  29
ATOM     29  N   UNL     1      -3.638   0.665  -2.610  0.00  0.00    -0.343 N 
ATOM     30  H   UNL     1      -2.847   0.132  -2.784  0.00  0.00    +0.144 HD
ATOM     31  H   UNL     1      -3.775   1.500  -3.084  0.00  0.00    +0.144 HD
ENDBRANCH   2  29
BRANCH   1  32
ATOM     32  C   UNL     1      -6.012   2.122  -2.320  0.00  0.00    +0.163 C 
BRANCH  32  36
ATOM     33  C   UNL     1      -4.511   5.565  -0.284  0.00  0.00    +0.000 A 
ATOM     34  C   UNL     1      -3.699   4.874  -1.165  0.00  0.00    +0.000 A 
ATOM     35  C   UNL     1      -4.185   3.760  -1.823  0.00  0.00    +0.005 A 
ATOM     36  C   UNL     1      -5.482   3.337  -1.601  0.00  0.00    -0.028 A 
ATOM     37  C   UNL     1      -6.295   4.030  -0.725  0.00  0.00    +0.005 A 
ATOM     38  C   UNL     1      -5.808   5.141  -0.062  0.00  0.00    +0.000 A 
ENDBRANCH  32  36
ENDBRANCH   1  32
TORSDOF 8
