REMARK  Name = ZINC20696492
REMARK  3 active torsions:
REMARK  status: ('A' for Active; 'I' for Inactive)
REMARK    1  A    between atoms: C_6  and  C_7
REMARK    2  A    between atoms: C_21  and  C_24
REMARK    3  A    between atoms: C_29  and  O_30
REMARK                            x       y       z     vdW  Elec       q    Type
REMARK                         _______ _______ _______ _____ _____    ______ ____
ROOT
ATOM      1  C   UNL     1       7.133  -1.228  -0.791  0.00  0.00    +0.015 A 
ATOM      2  C   UNL     1       6.445  -0.389   0.053  0.00  0.00    +0.024 A 
ATOM      3  C   UNL     1       5.471   0.473  -0.445  0.00  0.00    +0.031 A 
ATOM      4  C   UNL     1       5.185   0.469  -1.819  0.00  0.00    -0.019 A 
ATOM      5  C   UNL     1       5.876  -0.362  -2.665  0.00  0.00    +0.019 A 
ATOM      6  C   UNL     1       6.858  -1.221  -2.162  0.00  0.00    +0.037 A 
ATOM      7  C   UNL     1       4.109   1.366  -2.294  0.00  0.00    +0.049 C 
ATOM      8  C   UNL     1       4.069   1.881  -3.686  0.00  0.00    -0.023 C 
ATOM      9  C   UNL     1       3.496   3.079  -3.678  0.00  0.00    -0.030 C 
ATOM     10  C   UNL     1       3.135   3.476  -2.246  0.00  0.00    +0.033 C 
ATOM     11  C   UNL     1       4.152   2.664  -1.433  0.00  0.00    +0.029 C 
ATOM     12  C   UNL     1       3.739   2.236  -0.036  0.00  0.00    +0.108 C 
ATOM     13  N   UNL     1       4.804   1.325   0.434  0.00  0.00    -0.336 N 
ATOM     14  H   UNL     1       5.084   1.309   1.498  0.00  0.00    +0.147 HD
ENDROOT
BRANCH   6  15
ATOM     15  C   UNL     1       7.599  -2.114  -3.072  0.00  0.00    +0.247 C 
ATOM     16  O   UNL     1       7.261  -2.212  -4.236  0.00  0.00    -0.270 OA
ATOM     17  N   UNL     1       8.650  -2.822  -2.613  0.00  0.00    -0.298 N 
ATOM     18  C   UNL     1       9.101  -2.878  -1.214  0.00  0.00    +0.108 C 
ATOM     19  C   UNL     1      10.347  -3.787  -1.171  0.00  0.00    +0.020 C 
ATOM     20  C   UNL     1      10.868  -3.730  -2.631  0.00  0.00    +0.020 C 
ATOM     21  C   UNL     1       9.543  -3.663  -3.431  0.00  0.00    +0.108 C 
ENDBRANCH   6  15
BRANCH  12  22
ATOM     22  C   UNL     1       2.418   1.513  -0.083  0.00  0.00    +0.015 A 
ATOM     23  C   UNL     1       2.387   0.133  -0.122  0.00  0.00    +0.024 A 
ATOM     24  C   UNL     1       1.174  -0.532  -0.164  0.00  0.00    +0.018 A 
ATOM     25  C   UNL     1      -0.010   0.185  -0.167  0.00  0.00    +0.019 A 
ATOM     26  C   UNL     1       0.017   1.565  -0.129  0.00  0.00    +0.047 A 
ATOM     27  C   UNL     1       1.233   2.233  -0.086  0.00  0.00    +0.122 A 
ATOM     28 BR   UNL     1       1.134  -2.421  -0.218  0.00  0.00    -0.050 Br
BRANCH  27  29
ATOM     29  O   UNL     1       1.261   3.592  -0.049  0.00  0.00    -0.506 OA
ATOM     30  H   UNL     1       0.321   4.162  -0.052  0.00  0.00    +0.292 HD
ENDBRANCH  27  29
ENDBRANCH  12  22
TORSDOF 3
