REMARK  Name = ZINC40986374
REMARK  11 active torsions:
REMARK  status: ('A' for Active; 'I' for Inactive)
REMARK    1  A    between atoms: C_1  and  C_2
REMARK    2  A    between atoms: C_2  and  C_3
REMARK    3  A    between atoms: C_6  and  C_9
REMARK    4  A    between atoms: C_9  and  C_11
REMARK    5  A    between atoms: C_9  and  N_33
REMARK    6  A    between atoms: C_11  and  N_12
REMARK    7  A    between atoms: C_13  and  C_15
REMARK    8  A    between atoms: C_18  and  S_22
REMARK    9  A    between atoms: S_22  and  C_25
REMARK   10  A    between atoms: C_25  and  C_26
REMARK   11  A    between atoms: C_29  and  C_32
REMARK                            x       y       z     vdW  Elec       q    Type
REMARK                         _______ _______ _______ _____ _____    ______ ____
ROOT
ATOM      1  N   UNL     1       3.242  -3.854   6.126  0.00  0.00    -0.312 N 
ATOM      2  C   UNL     1       3.233  -5.153   6.484  0.00  0.00    +0.248 C 
ATOM      3  O   UNL     1       2.625  -5.964   5.811  0.00  0.00    -0.270 OA
ATOM      4  H   UNL     1       3.727  -3.207   6.663  0.00  0.00    +0.149 HD
ENDROOT
BRANCH   2   5
ATOM      5  C   UNL     1       3.960  -5.593   7.692  0.00  0.00    +0.092 A 
ATOM      6  C   UNL     1       4.661  -4.676   8.484  0.00  0.00    +0.130 A 
ATOM      7  N   UNL     1       5.297  -5.112   9.556  0.00  0.00    -0.219 NA
ATOM      8  C   UNL     1       5.279  -6.389   9.885  0.00  0.00    +0.272 A 
ATOM      9  N   UNL     1       4.632  -7.288   9.169  0.00  0.00    -0.199 NA
ATOM     10  C   UNL     1       3.963  -6.939   8.082  0.00  0.00    +0.146 A 
ATOM     11 CL   UNL     1       3.110  -8.129   7.151  0.00  0.00    -0.061 Cl
BRANCH   8  12
ATOM     12  S   UNL     1       6.147  -6.911  11.326  0.00  0.00    +0.036 S 
ATOM     13  O   UNL     1       6.465  -8.275  11.085  0.00  0.00    -0.166 OA
ATOM     14  O   UNL     1       7.176  -5.947  11.499  0.00  0.00    -0.166 OA
BRANCH  12  15
ATOM     15  C   UNL     1       4.937  -6.781  12.672  0.00  0.00    +0.210 C 
BRANCH  15  16
ATOM     16  C   UNL     1       5.579  -7.207  13.967  0.00  0.00    -0.026 A 
ATOM     17  C   UNL     1       5.532  -8.533  14.358  0.00  0.00    +0.005 A 
ATOM     18  C   UNL     1       6.121  -8.924  15.546  0.00  0.00    +0.003 A 
ATOM     19  C   UNL     1       6.755  -7.990  16.343  0.00  0.00    -0.050 A 
ATOM     20  C   UNL     1       6.802  -6.665  15.952  0.00  0.00    +0.003 A 
ATOM     21  C   UNL     1       6.218  -6.275  14.762  0.00  0.00    +0.005 A 
ATOM     22  C   UNL     1       7.396  -8.417  17.639  0.00  0.00    +0.044 C 
ENDBRANCH  15  16
ENDBRANCH  12  15
ENDBRANCH   8  12
ENDBRANCH   2   5
BRANCH   1  23
ATOM     23  C   UNL     1       2.521  -3.418   4.928  0.00  0.00    +0.094 C 
BRANCH  23  24
ATOM     24  C   UNL     1       2.801  -1.936   4.675  0.00  0.00    -0.020 C 
BRANCH  24  28
ATOM     25  C   UNL     1       6.934  -1.410   3.730  0.00  0.00    -0.048 A 
ATOM     26  C   UNL     1       6.477  -1.140   5.007  0.00  0.00    +0.004 A 
ATOM     27  C   UNL     1       5.139  -1.310   5.312  0.00  0.00    +0.002 A 
ATOM     28  C   UNL     1       4.259  -1.750   4.341  0.00  0.00    -0.059 A 
ATOM     29  C   UNL     1       4.716  -2.019   3.065  0.00  0.00    +0.002 A 
ATOM     30  C   UNL     1       6.052  -1.845   2.758  0.00  0.00    +0.004 A 
BRANCH  25  32
ATOM     31  C   UNL     1       8.625   0.206   2.908  0.00  0.00    +0.009 C 
ATOM     32  C   UNL     1       8.392  -1.225   3.397  0.00  0.00    +0.032 C 
ENDBRANCH  25  32
ENDBRANCH  24  28
BRANCH  24  33
ATOM     33  N   UNL     1       1.978  -1.467   3.552  0.00  0.00    +0.385 N 
ATOM     34  C   UNL     1       0.537  -1.571   3.894  0.00  0.00    -0.078 C 
ATOM     35  C   UNL     1      -0.132  -0.565   2.924  0.00  0.00    -0.020 C 
ATOM     36  C   UNL     1       0.889   0.594   2.869  0.00  0.00    -0.020 C 
ATOM     37  C   UNL     1       2.229  -0.031   3.300  0.00  0.00    -0.078 C 
ATOM     38  H   UNL     1       2.180  -2.006   2.723  0.00  0.00    -0.081 HD
ENDBRANCH  24  33
ENDBRANCH  23  24
ENDBRANCH   1  23
TORSDOF 9
