REMARK  Name = ZINC08445083
REMARK  10 active torsions:
REMARK  status: ('A' for Active; 'I' for Inactive)
REMARK    1  A    between atoms: C_1  and  C_2
REMARK    2  A    between atoms: C_2  and  N_3
REMARK    3  A    between atoms: N_3  and  C_4
REMARK    4  A    between atoms: N_3  and  C_6
REMARK    5  A    between atoms: C_4  and  C_5
REMARK    6  A    between atoms: C_9  and  C_12
REMARK    7  A    between atoms: C_21  and  C_25
REMARK    8  A    between atoms: C_25  and  C_27
REMARK    9  A    between atoms: C_34  and  C_38
REMARK   10  A    between atoms: C_34  and  C_39
REMARK                            x       y       z     vdW  Elec       q    Type
REMARK                         _______ _______ _______ _____ _____    ______ ____
ROOT
ATOM      1  C   UNL     1       1.198  -6.138   0.927  0.00  0.00    +0.136 C 
ATOM      2  C   UNL     1       1.364  -6.623  -0.494  0.00  0.00    +0.036 C 
ATOM      3  H   UNL     1       4.067  -8.226  -0.435  0.00  0.00    +0.152 HD
ATOM      4  C   UNL     1       2.479  -7.157  -1.018  0.00  0.00    +0.017 C 
ATOM      5  N   UNL     1       3.637  -7.362  -0.339  0.00  0.00    -0.316 N 
ATOM      6  C   UNL     1       4.249  -6.429   0.481  0.00  0.00    +0.052 A 
ATOM      7  C   UNL     1       5.494  -5.891   0.185  0.00  0.00    +0.026 A 
ATOM      8  C   UNL     1       6.075  -4.999   1.062  0.00  0.00    +0.013 A 
ATOM      9  C   UNL     1       5.414  -4.643   2.243  0.00  0.00    +0.024 A 
ATOM     10  C   UNL     1       4.151  -5.176   2.528  0.00  0.00    +0.036 A 
ATOM     11  C   UNL     1       3.569  -6.051   1.633  0.00  0.00    +0.050 A 
ATOM     12  N   UNL     1       2.272  -6.523   1.817  0.00  0.00    -0.331 N 
ATOM     13  C   UNL     1       2.516  -7.582  -2.477  0.00  0.00    +0.058 C 
ATOM     14  C   UNL     1       1.136  -8.072  -2.913  0.00  0.00    -0.023 C 
ATOM     15  C   UNL     1       0.148  -6.915  -2.721  0.00  0.00    +0.086 C 
ATOM     16  C   UNL     1       0.202  -6.475  -1.288  0.00  0.00    +0.163 C 
ATOM     17  O   UNL     1      -0.787  -5.973  -0.792  0.00  0.00    -0.292 OA
ATOM     18  C   UNL     1       1.173  -8.483  -4.386  0.00  0.00    +0.011 C 
ATOM     19  C   UNL     1       0.713  -9.264  -2.051  0.00  0.00    +0.011 C 
ATOM     20  H   UNL     1       2.085  -7.119   2.560  0.00  0.00    +0.147 HD
ENDROOT
BRANCH   1  24
ATOM     21  C   UNL     1       0.938  -1.874   0.883  0.00  0.00    +0.013 A 
ATOM     22  C   UNL     1      -0.150  -2.629   1.279  0.00  0.00    +0.022 A 
ATOM     23  C   UNL     1      -0.066  -4.008   1.293  0.00  0.00    +0.007 A 
ATOM     24  C   UNL     1       1.106  -4.634   0.910  0.00  0.00    -0.023 A 
ATOM     25  C   UNL     1       2.194  -3.879   0.514  0.00  0.00    +0.007 A 
ATOM     26  C   UNL     1       2.109  -2.499   0.496  0.00  0.00    +0.022 A 
BRANCH  21  27
ATOM     27  N   UNL     1       0.853  -0.479   0.869  0.00  0.00    -0.394 NA
ATOM     28  H   UNL     1       1.730  -0.092   0.552  0.00  0.00    +0.126 HD
BRANCH  27  30
ATOM     29  C   UNL     1      -0.234   1.463  -0.153  0.00  0.00    +0.022 C 
ATOM     30  C   UNL     1      -0.223  -0.063  -0.041  0.00  0.00    +0.081 C 
ENDBRANCH  27  30
BRANCH  27  31
ATOM     31  C   UNL     1       0.565   0.008   2.224  0.00  0.00    +0.081 C 
ATOM     32  C   UNL     1       1.743  -0.317   3.145  0.00  0.00    +0.022 C 
ENDBRANCH  27  31
ENDBRANCH  21  27
ENDBRANCH   1  24
BRANCH   9  33
ATOM     33  C   UNL     1       6.049  -3.707   3.188  0.00  0.00    +0.193 C 
ATOM     34  O   UNL     1       5.365  -3.077   3.972  0.00  0.00    -0.287 OA
BRANCH  33  35
ATOM     35  C   UNL     1       7.517  -3.533   3.184  0.00  0.00    +0.022 A 
ATOM     36  C   UNL     1       8.087  -2.368   3.700  0.00  0.00    +0.012 A 
ATOM     37  C   UNL     1       9.458  -2.213   3.693  0.00  0.00    +0.001 A 
ATOM     38  C   UNL     1      10.267  -3.209   3.176  0.00  0.00    +0.000 A 
ATOM     39  C   UNL     1       9.709  -4.367   2.664  0.00  0.00    +0.001 A 
ATOM     40  C   UNL     1       8.340  -4.537   2.669  0.00  0.00    +0.012 A 
ENDBRANCH  33  35
ENDBRANCH   9  33
TORSDOF 6
