REMARK  Name = ZINC39673979
REMARK  10 active torsions:
REMARK  status: ('A' for Active; 'I' for Inactive)
REMARK    1  A    between atoms: C_1  and  C_2
REMARK    2  A    between atoms: C_4  and  C_12
REMARK    3  A    between atoms: C_12  and  C_13
REMARK    4  A    between atoms: C_13  and  N_14
REMARK    5  A    between atoms: C_15  and  C_17
REMARK    6  A    between atoms: C_28  and  C_30
REMARK    7  A    between atoms: C_33  and  O_38
REMARK    8  A    between atoms: C_35  and  O_36
REMARK    9  A    between atoms: O_36  and  C_37
REMARK   10  A    between atoms: O_38  and  C_39
REMARK                            x       y       z     vdW  Elec       q    Type
REMARK                         _______ _______ _______ _____ _____    ______ ____
ROOT
ATOM      1  C   UNL     1      -5.413   3.605   3.666  0.00  0.00    +0.100 C 
ATOM      2  C   UNL     1      -4.994   2.439   4.590  0.00  0.00    +0.121 C 
ATOM      3  N   UNL     1      -4.246   3.087   5.694  0.00  0.00    -0.296 N 
ATOM      4  C   UNL     1      -4.999   4.335   5.967  0.00  0.00    +0.115 C 
ATOM      5  C   UNL     1      -5.419   4.846   4.574  0.00  0.00    -0.004 C 
ATOM      6  C   UNL     1      -6.818   5.451   4.634  0.00  0.00    -0.010 C 
ATOM      7  C   UNL     1      -6.786   6.717   5.495  0.00  0.00    -0.082 C 
ATOM      8  N   UNL     1      -5.839   7.679   4.918  0.00  0.00    +0.379 N 
ATOM      9  C   UNL     1      -4.480   7.125   4.950  0.00  0.00    -0.082 C 
ATOM     10  C   UNL     1      -4.415   5.876   4.066  0.00  0.00    -0.010 C 
ATOM     11  C   UNL     1      -3.134   2.641   6.310  0.00  0.00    +0.250 C 
ATOM     12  O   UNL     1      -2.574   1.640   5.906  0.00  0.00    -0.270 OA
ATOM     13  H   UNL     1      -6.099   7.874   3.963  0.00  0.00    -0.086 HD
ATOM     14  H   UNL     1      -5.864   8.535   5.452  0.00  0.00    -0.086 HD
ENDROOT
BRANCH  11  15
ATOM     15  C   UNL     1      -2.595   3.368   7.473  0.00  0.00    +0.079 A 
ATOM     16  C   UNL     1      -3.463   3.986   8.378  0.00  0.00    +0.020 A 
ATOM     17  C   UNL     1      -2.957   4.663   9.463  0.00  0.00    +0.046 A 
ATOM     18  C   UNL     1      -1.581   4.736   9.664  0.00  0.00    +0.124 A 
ATOM     19  C   UNL     1      -0.711   4.127   8.772  0.00  0.00    +0.092 A 
ATOM     20  C   UNL     1      -1.209   3.437   7.680  0.00  0.00    +0.136 A 
BRANCH  20  21
ATOM     21  O   UNL     1      -0.360   2.837   6.809  0.00  0.00    -0.494 OA
ATOM     22  C   UNL     1       1.038   2.950   7.084  0.00  0.00    +0.277 C 
ENDBRANCH  20  21
BRANCH  18  23
ATOM     23  O   UNL     1      -1.089   5.406  10.737  0.00  0.00    -0.495 OA
ATOM     24  C   UNL     1      -2.040   6.011  11.616  0.00  0.00    +0.277 C 
ENDBRANCH  18  23
ENDBRANCH  11  15
BRANCH   1  26
ATOM     25  N   UNL     1      -4.817   4.243   1.352  0.00  0.00    -0.315 N 
ATOM     26  C   UNL     1      -4.415   3.775   2.550  0.00  0.00    +0.218 C 
ATOM     27  O   UNL     1      -3.250   3.491   2.731  0.00  0.00    -0.275 OA
ATOM     28  H   UNL     1      -5.749   4.469   1.208  0.00  0.00    +0.149 HD
BRANCH  25  29
ATOM     29  C   UNL     1      -3.846   4.408   0.267  0.00  0.00    +0.109 C 
BRANCH  29  30
ATOM     30  C   UNL     1      -4.557   4.950  -0.975  0.00  0.00    +0.056 C 
BRANCH  30  34
ATOM     31  C   UNL     1      -3.799   2.810  -3.092  0.00  0.00    +0.063 C 
ATOM     32  C   UNL     1      -3.225   4.201  -3.010  0.00  0.00    +0.017 A 
ATOM     33  H   UNL     1      -1.883   4.234  -4.603  0.00  0.00    +0.166 HD
ATOM     34  C   UNL     1      -3.559   5.120  -2.091  0.00  0.00    -0.018 A 
ATOM     35  C   UNL     1      -2.769   6.320  -2.378  0.00  0.00    +0.003 A 
ATOM     36  C   UNL     1      -2.672   7.582  -1.788  0.00  0.00    +0.010 A 
ATOM     37  C   UNL     1      -1.815   8.510  -2.309  0.00  0.00    +0.001 A 
ATOM     38  C   UNL     1      -1.039   8.208  -3.420  0.00  0.00    +0.002 A 
ATOM     39  C   UNL     1      -1.119   6.969  -4.017  0.00  0.00    +0.026 A 
ATOM     40  C   UNL     1      -1.985   6.009  -3.504  0.00  0.00    +0.047 A 
ATOM     41  N   UNL     1      -2.282   4.713  -3.860  0.00  0.00    -0.358 N 
ENDBRANCH  30  34
ENDBRANCH  29  30
ENDBRANCH  25  29
ENDBRANCH   1  26
TORSDOF 7
