REMARK  Name = ZINC38486924
REMARK  6 active torsions:
REMARK  status: ('A' for Active; 'I' for Inactive)
REMARK    1  A    between atoms: C_1  and  O_2
REMARK    2  A    between atoms: O_2  and  C_3
REMARK    3  A    between atoms: C_6  and  C_9
REMARK    4  A    between atoms: C_12  and  C_14
REMARK    5  A    between atoms: C_15  and  N_27
REMARK    6  A    between atoms: N_16  and  C_19
REMARK                            x       y       z     vdW  Elec       q    Type
REMARK                         _______ _______ _______ _____ _____    ______ ____
ROOT
ATOM      1  C   UNL     1       4.261  -1.709  -7.546  0.00  0.00    +0.159 A 
ATOM      2  C   UNL     1       4.847  -2.370  -8.612  0.00  0.00    +0.150 A 
ATOM      3  N   UNL     1       5.374  -1.405  -9.419  0.00  0.00    -0.196 N 
ATOM      4  N   UNL     1       5.088  -0.174  -8.811  0.00  0.00    -0.058 NA
ATOM      5  N   UNL     1       4.435  -0.389  -7.724  0.00  0.00    -0.125 NA
ENDROOT
BRANCH   3   6
ATOM      6  C   UNL     1       6.067  -1.605 -10.623  0.00  0.00    +0.104 A 
ATOM      7  C   UNL     1       5.553  -2.460 -11.587  0.00  0.00    +0.033 A 
ATOM      8  C   UNL     1       6.236  -2.656 -12.771  0.00  0.00    +0.040 A 
ATOM      9  C   UNL     1       7.435  -2.000 -12.998  0.00  0.00    +0.126 A 
ATOM     10  C   UNL     1       7.951  -1.146 -12.038  0.00  0.00    +0.078 A 
ATOM     11  C   UNL     1       7.267  -0.942 -10.853  0.00  0.00    +0.151 A 
ATOM     12  F   UNL     1       7.767  -0.104  -9.919  0.00  0.00    -0.203 F 
ATOM     13  F   UNL     1       8.101  -2.193 -14.157  0.00  0.00    -0.205 F 
ENDBRANCH   3   6
BRANCH   1  17
ATOM     14  C   UNL     1       2.389  -2.512  -4.434  0.00  0.00    +0.079 A 
ATOM     15  C   UNL     1       2.387  -3.875  -4.551  0.00  0.00    +0.075 A 
ATOM     16  S   UNL     1       3.280  -4.079  -6.087  0.00  0.00    -0.073 S 
ATOM     17  C   UNL     1       3.562  -2.345  -6.413  0.00  0.00    +0.132 A 
ATOM     18  N   UNL     1       2.971  -1.781  -5.369  0.00  0.00    -0.237 NA
BRANCH  14  22
ATOM     19  C   UNL     1       0.522  -0.641  -1.101  0.00  0.00    +0.120 A 
ATOM     20  C   UNL     1       1.132   0.134  -2.078  0.00  0.00    +0.046 A 
ATOM     21  C   UNL     1       1.739  -0.470  -3.160  0.00  0.00    +0.013 A 
ATOM     22  C   UNL     1       1.738  -1.859  -3.272  0.00  0.00    +0.001 A 
ATOM     23  C   UNL     1       1.125  -2.634  -2.289  0.00  0.00    +0.013 A 
ATOM     24  C   UNL     1       0.525  -2.025  -1.207  0.00  0.00    +0.046 A 
BRANCH  19  26
ATOM     25  C   UNL     1      -0.040   1.385   0.009  0.00  0.00    +0.277 C 
ATOM     26  O   UNL     1      -0.074  -0.043  -0.036  0.00  0.00    -0.495 OA
ENDBRANCH  19  26
ENDBRANCH  14  22
ENDBRANCH   1  17
BRANCH   2  27
ATOM     27  N   UNL     1       4.890  -3.741  -8.818  0.00  0.00    -0.341 N 
ATOM     28  H   UNL     1       4.551  -4.344  -8.139  0.00  0.00    +0.144 HD
ATOM     29  H   UNL     1       5.259  -4.096  -9.642  0.00  0.00    +0.144 HD
ENDBRANCH   2  27
TORSDOF 5
