REMARK  Name = ZINC43589949
REMARK  5 active torsions:
REMARK  status: ('A' for Active; 'I' for Inactive)
REMARK    1  A    between atoms: C_1  and  N_2
REMARK    2  A    between atoms: C_4  and  C_32
REMARK    3  A    between atoms: N_14  and  C_17
REMARK    4  A    between atoms: N_21  and  C_25
REMARK    5  A    between atoms: C_25  and  C_26
REMARK                            x       y       z     vdW  Elec       q    Type
REMARK                         _______ _______ _______ _____ _____    ______ ____
ROOT
ATOM      1  C   UNL     1      -0.018   1.465   0.010  0.00  0.00    +0.106 C 
ATOM      2  N   UNL     1       0.002  -0.004   0.002  0.00  0.00    -0.286 NA
ATOM      3  C   UNL     1       0.750  -0.521  -1.177  0.00  0.00    +0.097 C 
ATOM      4  C   UNL     1       1.160  -1.957  -0.748  0.00  0.00    +0.080 C 
ATOM      5  C   UNL     1       1.434  -1.789   0.749  0.00  0.00    +0.139 C 
ATOM      6  C   UNL     1       0.710  -0.530   1.187  0.00  0.00    +0.150 C 
ATOM      7  C   UNL     1      -0.255  -0.798   2.311  0.00  0.00    +0.008 A 
ATOM      8  C   UNL     1      -1.344  -1.630   2.442  0.00  0.00    +0.046 A 
ATOM      9  C   UNL     1      -2.054  -1.658   3.632  0.00  0.00    +0.124 A 
ATOM     10  C   UNL     1      -1.664  -0.849   4.685  0.00  0.00    +0.040 A 
ATOM     11  C   UNL     1      -0.573  -0.015   4.556  0.00  0.00    +0.026 A 
ATOM     12  C   UNL     1       0.146   0.019   3.363  0.00  0.00    +0.042 A 
ATOM     13  N   UNL     1       1.268   0.765   2.995  0.00  0.00    -0.272 N 
ATOM     14  C   UNL     1       1.663   0.501   1.736  0.00  0.00    +0.246 C 
ATOM     15  O   UNL     1       2.604   0.998   1.154  0.00  0.00    -0.273 OA
ATOM     16  C   UNL     1       1.937   1.724   3.877  0.00  0.00    +0.138 C 
ATOM     17  F   UNL     1      -3.124  -2.473   3.763  0.00  0.00    -0.205 F 
ATOM     18  C   UNL     1       2.902  -1.788   1.077  0.00  0.00    +0.241 C 
ATOM     19  O   UNL     1       3.667  -0.954   0.643  0.00  0.00    -0.274 OA
ATOM     20  N   UNL     1       3.297  -2.772   1.878  0.00  0.00    -0.254 N 
ATOM     21  C   UNL     1       2.458  -3.708   2.369  0.00  0.00    +0.117 C 
ATOM     22  S   UNL     1       2.829  -5.020   3.405  0.00  0.00    -0.028 S 
ATOM     23  S   UNL     1       0.868  -3.255   1.685  0.00  0.00    -0.083 S 
ENDROOT
BRANCH   4  24
ATOM     24  C   UNL     1       2.402  -2.400  -1.477  0.00  0.00    +0.047 A 
ATOM     25  C   UNL     1       3.374  -1.471  -1.797  0.00  0.00    +0.024 A 
ATOM     26  C   UNL     1       4.513  -1.889  -2.468  0.00  0.00    +0.003 A 
ATOM     27  C   UNL     1       4.631  -3.232  -2.794  0.00  0.00    +0.020 A 
ATOM     28  C   UNL     1       3.618  -4.102  -2.442  0.00  0.00    +0.111 A 
ATOM     29  N   UNL     1       2.551  -3.670  -1.798  0.00  0.00    -0.260 NA
ENDBRANCH   4  24
BRANCH  20  30
ATOM     30  C   UNL     1       4.713  -2.844   2.248  0.00  0.00    +0.149 C 
BRANCH  30  31
ATOM     31  C   UNL     1       4.945  -2.048   3.506  0.00  0.00    -0.030 A 
ATOM     32  C   UNL     1       5.266  -0.706   3.426  0.00  0.00    +0.005 A 
ATOM     33  C   UNL     1       5.479   0.024   4.580  0.00  0.00    +0.000 A 
ATOM     34  C   UNL     1       5.370  -0.588   5.815  0.00  0.00    +0.000 A 
ATOM     35  C   UNL     1       5.047  -1.929   5.895  0.00  0.00    +0.000 A 
ATOM     36  C   UNL     1       4.830  -2.659   4.741  0.00  0.00    +0.005 A 
ENDBRANCH  30  31
ENDBRANCH  20  30
TORSDOF 3
