REMARK  Name = ZINC23038649
REMARK  11 active torsions:
REMARK  status: ('A' for Active; 'I' for Inactive)
REMARK    1  A    between atoms: C_1  and  C_2
REMARK    2  A    between atoms: C_2  and  C_4
REMARK    3  A    between atoms: C_2  and  N_16
REMARK    4  A    between atoms: N_6  and  C_7
REMARK    5  A    between atoms: C_12  and  C_13
REMARK    6  A    between atoms: C_13  and  C_14
REMARK    7  A    between atoms: C_13  and  C_15
REMARK    8  A    between atoms: N_16  and  C_17
REMARK    9  A    between atoms: N_16  and  C_18
REMARK   10  A    between atoms: C_18  and  C_19
REMARK   11  A    between atoms: N_21  and  C_22
REMARK                            x       y       z     vdW  Elec       q    Type
REMARK                         _______ _______ _______ _____ _____    ______ ____
ROOT
ATOM      1  C   UNL     1       0.345   1.641   0.158  0.00  0.00    -0.004 C 
ATOM      2  C   UNL     1       0.223   0.118   0.245  0.00  0.00    +0.017 C 
ENDROOT
BRANCH   2   3
ATOM      3  C   UNL     1       0.165  -0.300   1.692  0.00  0.00    +0.203 C 
ATOM      4  O   UNL     1      -0.883  -0.676   2.173  0.00  0.00    -0.277 OA
ATOM      5  N   UNL     1       1.277  -0.254   2.452  0.00  0.00    -0.287 N 
ATOM      6  H   UNL     1       2.099   0.110   2.087  0.00  0.00    +0.155 HD
BRANCH   5   7
ATOM      7  C   UNL     1       1.247  -0.732   3.766  0.00  0.00    +0.037 A 
ATOM      8  C   UNL     1       0.095  -0.595   4.530  0.00  0.00    +0.023 A 
ATOM      9  C   UNL     1       0.068  -1.067   5.827  0.00  0.00    +0.002 A 
ATOM     10  C   UNL     1       1.186  -1.677   6.366  0.00  0.00    +0.000 A 
ATOM     11  C   UNL     1       2.335  -1.814   5.609  0.00  0.00    +0.006 A 
ATOM     12  C   UNL     1       2.366  -1.349   4.308  0.00  0.00    -0.024 A 
BRANCH  12  13
ATOM     13  C   UNL     1       3.616  -1.506   3.481  0.00  0.00    +0.015 C 
ATOM     14  C   UNL     1       4.799  -0.877   4.220  0.00  0.00    +0.012 C 
ATOM     15  C   UNL     1       3.891  -2.994   3.250  0.00  0.00    +0.012 C 
ENDBRANCH  12  13
ENDBRANCH   5   7
ENDBRANCH   2   3
BRANCH   2  16
ATOM     16  N   UNL     1      -1.003  -0.314  -0.439  0.00  0.00    +0.391 N 
ATOM     17  C   UNL     1      -1.000   0.192  -1.818  0.00  0.00    -0.094 C 
ATOM     18  H   UNL     1      -1.808   0.049   0.051  0.00  0.00    -0.080 HD
BRANCH  16  19
ATOM     19  C   UNL     1      -1.063  -1.782  -0.457  0.00  0.00    +0.020 C 
BRANCH  19  20
ATOM     20  C   UNL     1      -2.384  -2.225  -1.031  0.00  0.00    +0.201 C 
ATOM     21  O   UNL     1      -3.196  -1.399  -1.390  0.00  0.00    -0.278 OA
ATOM     22  N   UNL     1      -2.663  -3.538  -1.145  0.00  0.00    -0.286 N 
ATOM     23  H   UNL     1      -2.041  -4.198  -0.801  0.00  0.00    +0.155 HD
BRANCH  22  24
ATOM     24  C   UNL     1      -3.850  -3.950  -1.761  0.00  0.00    +0.047 A 
ATOM     25  C   UNL     1      -4.963  -3.120  -1.752  0.00  0.00    +0.024 A 
ATOM     26  C   UNL     1      -6.133  -3.530  -2.361  0.00  0.00    +0.002 A 
ATOM     27  C   UNL     1      -6.198  -4.765  -2.979  0.00  0.00    +0.001 A 
ATOM     28  C   UNL     1      -5.092  -5.595  -2.990  0.00  0.00    +0.017 A 
ATOM     29  C   UNL     1      -3.916  -5.189  -2.388  0.00  0.00    +0.039 A 
ATOM     30 BR   UNL     1      -2.401  -6.320  -2.410  0.00  0.00    -0.048 Br
ENDBRANCH  22  24
ENDBRANCH  19  20
ENDBRANCH  16  19
ENDBRANCH   2  16
TORSDOF 7
