REMARK  Name = ZINC16780858
REMARK  6 active torsions:
REMARK  status: ('A' for Active; 'I' for Inactive)
REMARK    1  A    between atoms: C_1  and  C_2
REMARK    2  A    between atoms: C_12  and  C_14
REMARK    3  A    between atoms: C_15  and  C_16
REMARK    4  A    between atoms: C_19  and  S_22
REMARK    5  A    between atoms: S_22  and  N_25
REMARK    6  A    between atoms: N_25  and  C_26
REMARK                            x       y       z     vdW  Elec       q    Type
REMARK                         _______ _______ _______ _____ _____    ______ ____
ROOT
ATOM      1  C   UNL     1      -4.916   0.956  -0.595  0.00  0.00    -0.025 A 
ATOM      2  C   UNL     1      -4.933  -0.440  -0.677  0.00  0.00    +0.010 A 
ATOM      3  C   UNL     1      -6.112  -1.096  -0.961  0.00  0.00    +0.029 A 
ATOM      4  C   UNL     1      -7.274  -0.377  -1.174  0.00  0.00    +0.109 A 
ATOM      5  C   UNL     1      -7.265   1.005  -1.100  0.00  0.00    +0.029 A 
ATOM      6  C   UNL     1      -6.095   1.676  -0.813  0.00  0.00    +0.010 A 
ENDROOT
BRANCH   4   7
ATOM      7  S   UNL     1      -8.775  -1.225  -1.542  0.00  0.00    +0.072 S 
ATOM      8  O   UNL     1      -8.638  -2.538  -1.017  0.00  0.00    -0.150 OA
ATOM      9  O   UNL     1      -9.835  -0.358  -1.162  0.00  0.00    -0.150 OA
BRANCH   7  10
ATOM     10  N   UNL     1      -8.858  -1.380  -3.189  0.00  0.00    -0.215 N 
ATOM     11  H   UNL     1      -9.596  -0.983  -3.677  0.00  0.00    +0.174 HD
BRANCH  10  12
ATOM     12  C   UNL     1      -7.865  -2.084  -3.876  0.00  0.00    +0.066 A 
ATOM     13  C   UNL     1      -7.278  -3.202  -3.297  0.00  0.00    +0.026 A 
ATOM     14  C   UNL     1      -6.301  -3.899  -3.981  0.00  0.00    +0.002 A 
ATOM     15  C   UNL     1      -5.897  -3.478  -5.235  0.00  0.00    +0.002 A 
ATOM     16  C   UNL     1      -6.475  -2.362  -5.812  0.00  0.00    +0.022 A 
ATOM     17  C   UNL     1      -7.458  -1.663  -5.136  0.00  0.00    +0.063 A 
ATOM     18 CL   UNL     1      -8.182  -0.261  -5.860  0.00  0.00    -0.082 Cl
ENDBRANCH  10  12
ENDBRANCH   7  10
ENDBRANCH   4   7
BRANCH   1  20
ATOM     19  C   UNL     1      -2.528   0.967  -0.080  0.00  0.00    +0.068 C 
ATOM     20  C   UNL     1      -3.663   1.664  -0.288  0.00  0.00    +0.013 C 
BRANCH  19  31
ATOM     21  C   UNL     1       0.961   3.179   0.216  0.00  0.00    +0.033 C 
ATOM     22  C   UNL     1       1.147   1.690   0.515  0.00  0.00    +0.104 C 
ATOM     23  C   UNL     1       2.154   1.088  -0.463  0.00  0.00    -0.017 A 
ATOM     24  C   UNL     1       3.383   1.678  -0.753  0.00  0.00    +0.013 A 
ATOM     25  C   UNL     1       4.231   1.083  -1.624  0.00  0.00    +0.046 A 
ATOM     26  S   UNL     1       3.313  -0.376  -2.092  0.00  0.00    -0.101 S 
ATOM     27  C   UNL     1       1.874  -0.083  -1.097  0.00  0.00    -0.004 A 
ATOM     28  C   UNL     1       0.641  -0.918  -0.979  0.00  0.00    +0.062 C 
ATOM     29  C   UNL     1      -0.128  -0.486   0.279  0.00  0.00    +0.114 C 
ATOM     30  N   UNL     1      -0.128   0.983   0.338  0.00  0.00    -0.291 N 
ATOM     31  C   UNL     1      -1.282   1.672   0.226  0.00  0.00    +0.240 C 
ATOM     32  O   UNL     1      -1.287   2.879   0.379  0.00  0.00    -0.271 OA
ENDBRANCH  19  31
ENDBRANCH   1  20
TORSDOF 5
