REMARK  Name = ZINC63363083
REMARK  10 active torsions:
REMARK  status: ('A' for Active; 'I' for Inactive)
REMARK    1  A    between atoms: C_1  and  C_2
REMARK    2  A    between atoms: C_5  and  C_8
REMARK    3  A    between atoms: N_15  and  C_30
REMARK    4  A    between atoms: C_18  and  C_29
REMARK    5  A    between atoms: C_30  and  C_31
REMARK    6  A    between atoms: C_31  and  C_32
REMARK    7  A    between atoms: C_35  and  O_40
REMARK    8  A    between atoms: C_36  and  O_38
REMARK    9  A    between atoms: O_38  and  C_39
REMARK   10  A    between atoms: O_40  and  C_41
REMARK                            x       y       z     vdW  Elec       q    Type
REMARK                         _______ _______ _______ _____ _____    ______ ____
ROOT
ATOM      1  C   UNL     1       0.006  -4.268  -0.018  0.00  0.00    +0.065 C 
ATOM      2  C   UNL     1       1.317  -4.769   0.593  0.00  0.00    +0.121 C 
ATOM      3  N   UNL     1       1.321  -4.757   2.046  0.00  0.00    -0.283 N 
ATOM      4  C   UNL     1       2.541  -4.890   2.667  0.00  0.00    +0.234 C 
ATOM      5  O   UNL     1       3.578  -4.875   2.039  0.00  0.00    -0.274 OA
ATOM      6  C   UNL     1       2.526  -5.057   4.171  0.00  0.00    +0.203 C 
ATOM      7  N   UNL     1       1.460  -6.011   4.528  0.00  0.00    -0.291 N 
ATOM      8  C   UNL     1       0.245  -5.820   3.930  0.00  0.00    +0.242 C 
ATOM      9  O   UNL     1      -0.715  -6.519   4.174  0.00  0.00    -0.273 OA
ATOM     10  C   UNL     1       0.184  -4.680   2.946  0.00  0.00    +0.135 C 
ATOM     11  C   UNL     1      -1.165  -4.479   2.330  0.00  0.00    +0.139 C 
ATOM     12  C   UNL     1      -1.099  -4.821   0.847  0.00  0.00    -0.027 C 
ATOM     13  C   UNL     1      -2.116  -5.631   0.599  0.00  0.00    -0.000 A 
ATOM     14  C   UNL     1      -2.630  -6.213  -0.652  0.00  0.00    +0.010 A 
ATOM     15  C   UNL     1      -3.703  -7.038  -0.534  0.00  0.00    +0.001 A 
ATOM     16  C   UNL     1      -4.310  -7.341   0.689  0.00  0.00    +0.002 A 
ATOM     17  C   UNL     1      -3.910  -6.846   1.887  0.00  0.00    +0.026 A 
ATOM     18  C   UNL     1      -2.796  -5.957   1.891  0.00  0.00    +0.043 A 
ATOM     19  N   UNL     1      -2.218  -5.337   2.870  0.00  0.00    -0.375 N 
ATOM     20  C   UNL     1       0.419  -3.421   3.783  0.00  0.00    +0.044 C 
ATOM     21  H   UNL     1      -2.454  -5.427   3.807  0.00  0.00    +0.160 HD
ENDROOT
BRANCH   1  26
ATOM     22  C   UNL     1      -0.135   1.509   0.036  0.00  0.00    +0.044 C 
ATOM     23  C   UNL     1      -0.098   0.003   0.022  0.00  0.00    -0.050 A 
ATOM     24  C   UNL     1      -0.738  -0.695  -0.986  0.00  0.00    +0.003 A 
ATOM     25  C   UNL     1      -0.705  -2.077  -0.998  0.00  0.00    +0.004 A 
ATOM     26  C   UNL     1      -0.030  -2.761  -0.004  0.00  0.00    -0.039 A 
ATOM     27  C   UNL     1       0.611  -2.064   1.002  0.00  0.00    +0.004 A 
ATOM     28  C   UNL     1       0.581  -0.682   1.013  0.00  0.00    +0.003 A 
ENDBRANCH   1  26
BRANCH   7  29
ATOM     29  C   UNL     1       1.690  -7.107   5.473  0.00  0.00    +0.113 C 
BRANCH  29  30
ATOM     30  C   UNL     1       1.368  -6.632   6.892  0.00  0.00    +0.054 C 
BRANCH  30  31
ATOM     31  C   UNL     1       1.605  -7.759   7.864  0.00  0.00    -0.042 A 
ATOM     32  C   UNL     1       0.579  -8.636   8.167  0.00  0.00    +0.007 A 
ATOM     33  C   UNL     1       0.791  -9.671   9.058  0.00  0.00    +0.049 A 
ATOM     34  C   UNL     1       2.034  -9.832   9.650  0.00  0.00    +0.161 A 
ATOM     35  C   UNL     1       3.066  -8.951   9.345  0.00  0.00    +0.162 A 
ATOM     36  C   UNL     1       2.848  -7.918   8.447  0.00  0.00    +0.053 A 
BRANCH  35  37
ATOM     37  O   UNL     1       4.287  -9.105   9.922  0.00  0.00    -0.491 OA
ATOM     38  C   UNL     1       5.300  -8.162   9.562  0.00  0.00    +0.277 C 
ENDBRANCH  35  37
BRANCH  34  39
ATOM     39  O   UNL     1       2.244 -10.850  10.527  0.00  0.00    -0.491 OA
ATOM     40  C   UNL     1       1.139 -11.716  10.793  0.00  0.00    +0.277 C 
ENDBRANCH  34  39
ENDBRANCH  30  31
ENDBRANCH  29  30
ENDBRANCH   7  29
TORSDOF 6
