REMARK  Name = ZINC01362164
REMARK  18 active torsions:
REMARK  status: ('A' for Active; 'I' for Inactive)
REMARK    1  A    between atoms: C_1  and  C_2
REMARK    2  A    between atoms: C_2  and  C_3
REMARK    3  A    between atoms: C_2  and  C_4
REMARK    4  A    between atoms: C_2  and  N_5
REMARK    5  A    between atoms: C_6  and  C_10
REMARK    6  A    between atoms: C_10  and  C_12
REMARK    7  A    between atoms: C_10  and  N_26
REMARK    8  A    between atoms: C_17  and  O_24
REMARK    9  A    between atoms: O_24  and  C_25
REMARK   10  A    between atoms: N_26  and  C_27
REMARK   11  A    between atoms: N_26  and  C_39
REMARK   12  A    between atoms: C_27  and  C_28
REMARK   13  A    between atoms: C_28  and  C_29
REMARK   14  A    between atoms: C_32  and  O_37
REMARK   15  A    between atoms: C_33  and  O_35
REMARK   16  A    between atoms: O_35  and  C_36
REMARK   17  A    between atoms: O_37  and  C_38
REMARK   18  A    between atoms: C_39  and  C_40
REMARK                            x       y       z     vdW  Elec       q    Type
REMARK                         _______ _______ _______ _____ _____    ______ ____
ROOT
ATOM      1  C   UNL     1       0.142  -3.062  -1.381  0.00  0.00    +0.163 C 
ENDROOT
BRANCH   1   2
ATOM      2  C   UNL     1      -0.500  -3.884  -2.468  0.00  0.00    +0.042 A 
ATOM      3  C   UNL     1      -1.670  -4.528  -2.227  0.00  0.00    +0.021 A 
ATOM      4  C   UNL     1      -2.268  -5.318  -3.303  0.00  0.00    -0.001 A 
ATOM      5  C   UNL     1      -3.474  -6.004  -3.112  0.00  0.00    +0.013 A 
ATOM      6  C   UNL     1      -4.008  -6.732  -4.134  0.00  0.00    +0.046 A 
ATOM      7  C   UNL     1      -3.363  -6.799  -5.369  0.00  0.00    +0.122 A 
ATOM      8  C   UNL     1      -2.171  -6.128  -5.577  0.00  0.00    +0.072 A 
ATOM      9  C   UNL     1      -1.612  -5.382  -4.548  0.00  0.00    +0.053 A 
ATOM     10  N   UNL     1      -0.425  -4.702  -4.729  0.00  0.00    -0.322 N 
ATOM     11  H   UNL     1       0.025  -4.747  -5.586  0.00  0.00    +0.169 HD
ATOM     12  C   UNL     1       0.113  -3.976  -3.734  0.00  0.00    +0.254 A 
ATOM     13  O   UNL     1       1.161  -3.385  -3.930  0.00  0.00    -0.268 OA
BRANCH   7  14
ATOM     14  O   UNL     1      -3.909  -7.529  -6.375  0.00  0.00    -0.495 OA
ATOM     15  C   UNL     1      -5.141  -8.198  -6.096  0.00  0.00    +0.277 C 
ENDBRANCH   7  14
ENDBRANCH   1   2
BRANCH   1  17
ATOM     16  N   UNL     1      -0.569  -0.619  -1.196  0.00  0.00    -0.222 N 
ATOM     17  C   UNL     1       0.134  -1.608  -1.779  0.00  0.00    +0.174 A 
ATOM     18  N   UNL     1       0.812  -1.062  -2.759  0.00  0.00    -0.111 NA
ATOM     19  N   UNL     1       0.539   0.197  -2.777  0.00  0.00    -0.023 NA
ATOM     20  N   UNL     1      -0.299   0.467  -1.838  0.00  0.00    -0.043 NA
BRANCH  16  22
ATOM     21  C   UNL     1      -2.111   0.605   0.255  0.00  0.00    +0.036 C 
ATOM     22  C   UNL     1      -1.475  -0.752  -0.053  0.00  0.00    +0.059 C 
ATOM     23  C   UNL     1      -0.689  -1.236   1.167  0.00  0.00    +0.036 C 
ATOM     24  C   UNL     1      -2.572  -1.765  -0.387  0.00  0.00    +0.036 C 
ENDBRANCH  16  22
ENDBRANCH   1  17
BRANCH   1  25
ATOM     25  N   UNL     1       1.527  -3.508  -1.183  0.00  0.00    -0.284 NA
BRANCH  25  26
ATOM     26  C   UNL     1       2.236  -2.627  -0.245  0.00  0.00    +0.090 C 
BRANCH  26  27
ATOM     27  C   UNL     1       3.742  -2.872  -0.353  0.00  0.00    +0.050 C 
BRANCH  27  28
ATOM     28  C   UNL     1       4.464  -2.011   0.651  0.00  0.00    -0.042 A 
ATOM     29  C   UNL     1       4.875  -0.739   0.300  0.00  0.00    +0.007 A 
ATOM     30  C   UNL     1       5.538   0.055   1.218  0.00  0.00    +0.049 A 
ATOM     31  C   UNL     1       5.792  -0.425   2.493  0.00  0.00    +0.161 A 
ATOM     32  C   UNL     1       5.379  -1.706   2.846  0.00  0.00    +0.162 A 
ATOM     33  C   UNL     1       4.710  -2.494   1.923  0.00  0.00    +0.053 A 
BRANCH  32  34
ATOM     34  O   UNL     1       5.626  -2.181   4.096  0.00  0.00    -0.491 OA
ATOM     35  C   UNL     1       5.173  -3.505   4.388  0.00  0.00    +0.277 C 
ENDBRANCH  32  34
BRANCH  31  36
ATOM     36  O   UNL     1       6.445   0.354   3.396  0.00  0.00    -0.491 OA
ATOM     37  C   UNL     1       6.840   1.657   2.963  0.00  0.00    +0.277 C 
ENDBRANCH  31  36
ENDBRANCH  27  28
ENDBRANCH  26  27
ENDBRANCH  25  26
BRANCH  25  38
ATOM     38  C   UNL     1       1.571  -4.904  -0.728  0.00  0.00    +0.120 C 
BRANCH  38  39
ATOM     39  C   UNL     1       0.965  -5.003   0.648  0.00  0.00    -0.033 A 
ATOM     40  C   UNL     1       1.766  -4.870   1.767  0.00  0.00    +0.005 A 
ATOM     41  C   UNL     1       1.211  -4.961   3.030  0.00  0.00    +0.000 A 
ATOM     42  C   UNL     1      -0.146  -5.185   3.173  0.00  0.00    +0.000 A 
ATOM     43  C   UNL     1      -0.947  -5.317   2.054  0.00  0.00    +0.000 A 
ATOM     44  C   UNL     1      -0.392  -5.222   0.792  0.00  0.00    +0.005 A 
ENDBRANCH  38  39
ENDBRANCH  25  38
ENDBRANCH   1  25
TORSDOF 12
