REMARK  Name = ZINC13127677
REMARK  4 active torsions:
REMARK  status: ('A' for Active; 'I' for Inactive)
REMARK    1  A    between atoms: C_1  and  C_2
REMARK    2  A    between atoms: C_2  and  O_3
REMARK    3  A    between atoms: C_8  and  C_21
REMARK    4  A    between atoms: C_11  and  C_15
REMARK                            x       y       z     vdW  Elec       q    Type
REMARK                         _______ _______ _______ _____ _____    ______ ____
ROOT
ATOM      1  C   UNL     1      -2.562   1.323  -0.041  0.00  0.00    +0.107 C 
ATOM      2  C   UNL     1      -2.151  -0.122  -0.162  0.00  0.00    +0.164 C 
ATOM      3  N   UNL     1      -0.938  -0.479   0.136  0.00  0.00    -0.298 N 
ATOM      4  C   UNL     1      -0.608  -1.810   0.189  0.00  0.00    +0.251 A 
ATOM      5  N   UNL     1      -1.451  -2.816   0.056  0.00  0.00    -0.129 NA
ATOM      6  N   UNL     1      -0.703  -3.986   0.177  0.00  0.00    -0.219 N 
ATOM      7  C   UNL     1      -1.137  -5.379   0.119  0.00  0.00    +0.165 C 
ATOM      8  C   UNL     1       0.063  -6.281   0.011  0.00  0.00    +0.028 C 
ATOM      9  C   UNL     1       1.306  -5.866   0.208  0.00  0.00    +0.039 C 
ATOM     10  N   UNL     1       1.603  -4.535   0.530  0.00  0.00    -0.283 N 
ATOM     11  C   UNL     1       0.585  -3.606   0.377  0.00  0.00    +0.220 A 
ATOM     12  N   UNL     1       0.630  -2.302   0.380  0.00  0.00    -0.178 NA
ATOM     13  H   UNL     1      -0.265   0.195   0.321  0.00  0.00    +0.171 HD
ATOM     14  H   UNL     1       2.482  -4.275   0.846  0.00  0.00    +0.155 HD
ENDROOT
BRANCH   7  15
ATOM     15  C   UNL     1      -1.906  -5.717   1.370  0.00  0.00    -0.019 A 
ATOM     16  C   UNL     1      -1.299  -5.602   2.606  0.00  0.00    +0.009 A 
ATOM     17  C   UNL     1      -2.003  -5.911   3.754  0.00  0.00    +0.039 A 
ATOM     18  C   UNL     1      -3.318  -6.337   3.665  0.00  0.00    +0.123 A 
ATOM     19  C   UNL     1      -3.925  -6.452   2.426  0.00  0.00    +0.039 A 
ATOM     20  C   UNL     1      -3.220  -6.137   1.280  0.00  0.00    +0.009 A 
ATOM     21  F   UNL     1      -4.008  -6.640   4.787  0.00  0.00    -0.205 F 
ENDBRANCH   7  15
BRANCH   9  22
ATOM     22  C   UNL     1       2.416  -6.839   0.085  0.00  0.00    -0.004 A 
ATOM     23  C   UNL     1       2.148  -8.169  -0.240  0.00  0.00    +0.010 A 
ATOM     24  C   UNL     1       3.186  -9.071  -0.354  0.00  0.00    +0.001 A 
ATOM     25  C   UNL     1       4.490  -8.659  -0.146  0.00  0.00    +0.000 A 
ATOM     26  C   UNL     1       4.762  -7.341   0.176  0.00  0.00    +0.001 A 
ATOM     27  C   UNL     1       3.733  -6.429   0.287  0.00  0.00    +0.010 A 
ENDBRANCH   9  22
BRANCH   2  28
ATOM     28  O   UNL     1      -3.042  -1.044  -0.578  0.00  0.00    -0.497 OA
ATOM     29  H   UNL     1      -2.662  -1.921  -0.725  0.00  0.00    +0.293 HD
ENDBRANCH   2  28
TORSDOF 3
