REMARK  Name = ZINC14831778
REMARK  11 active torsions:
REMARK  status: ('A' for Active; 'I' for Inactive)
REMARK    1  A    between atoms: C_1  and  C_2
REMARK    2  A    between atoms: C_2  and  C_3
REMARK    3  A    between atoms: C_3  and  C_5
REMARK    4  A    between atoms: C_3  and  C_6
REMARK    5  A    between atoms: C_9  and  O_13
REMARK    6  A    between atoms: O_13  and  C_14
REMARK    7  A    between atoms: C_14  and  C_15
REMARK    8  A    between atoms: N_17  and  C_18
REMARK    9  A    between atoms: C_21  and  S_24
REMARK   10  A    between atoms: S_24  and  N_27
REMARK   11  A    between atoms: N_27  and  C_28
REMARK                            x       y       z     vdW  Elec       q    Type
REMARK                         _______ _______ _______ _____ _____    ______ ____
ROOT
ATOM      1  C   UNL     1      -0.974   6.797   9.157  0.00  0.00    +0.255 C 
ATOM      2  O   UNL     1      -0.377   6.990  10.195  0.00  0.00    -0.272 OA
ATOM      3  N   UNL     1      -2.316   6.923   9.118  0.00  0.00    -0.283 N 
ATOM      4  H   UNL     1      -2.786   6.835   8.274  0.00  0.00    +0.155 HD
ENDROOT
BRANCH   3   5
ATOM      5  C   UNL     1      -3.029   7.180  10.294  0.00  0.00    +0.034 A 
ATOM      6  C   UNL     1      -4.293   6.635  10.474  0.00  0.00    +0.025 A 
ATOM      7  C   UNL     1      -4.992   6.887  11.638  0.00  0.00    +0.030 A 
ATOM      8  C   UNL     1      -4.439   7.689  12.619  0.00  0.00    +0.105 A 
ATOM      9  C   UNL     1      -3.183   8.238  12.440  0.00  0.00    +0.030 A 
ATOM     10  C   UNL     1      -2.476   7.986  11.280  0.00  0.00    +0.025 A 
BRANCH   8  11
ATOM     11  S   UNL     1      -5.337   8.013  14.101  0.00  0.00    +0.059 S 
ATOM     12  O   UNL     1      -6.256   6.941  14.260  0.00  0.00    -0.153 OA
ATOM     13  O   UNL     1      -4.376   8.346  15.093  0.00  0.00    -0.153 OA
BRANCH  11  14
ATOM     14  N   UNL     1      -6.239   9.376  13.838  0.00  0.00    -0.187 NA
ATOM     15  H   UNL     1      -6.058  10.183  14.345  0.00  0.00    +0.148 HD
BRANCH  14  16
ATOM     16  C   UNL     1      -7.311   9.364  12.839  0.00  0.00    +0.077 C 
ATOM     17  C   UNL     1      -6.776   9.904  11.511  0.00  0.00    +0.020 C 
ATOM     18  C   UNL     1      -7.896   9.892  10.468  0.00  0.00    +0.002 C 
ATOM     19  C   UNL     1      -9.051  10.772  10.949  0.00  0.00    +0.000 C 
ATOM     20  C   UNL     1      -9.585  10.232  12.277  0.00  0.00    +0.002 C 
ATOM     21  C   UNL     1      -8.466  10.245  13.320  0.00  0.00    +0.020 C 
ENDBRANCH  14  16
ENDBRANCH  11  14
ENDBRANCH   8  11
ENDBRANCH   3   5
BRANCH   1  22
ATOM     22  C   UNL     1      -0.216   6.417   7.911  0.00  0.00    +0.324 C 
BRANCH  22  23
ATOM     23  O   UNL     1       1.180   6.349   8.206  0.00  0.00    -0.482 OA
BRANCH  23  27
ATOM     24  C   UNL     1       3.702   5.339   5.100  0.00  0.00    -0.043 A 
ATOM     25  C   UNL     1       2.339   5.423   4.883  0.00  0.00    +0.007 A 
ATOM     26  C   UNL     1       1.493   5.760   5.921  0.00  0.00    +0.047 A 
ATOM     27  C   UNL     1       2.011   6.016   7.183  0.00  0.00    +0.135 A 
ATOM     28  C   UNL     1       3.380   5.931   7.398  0.00  0.00    +0.060 A 
ATOM     29  C   UNL     1       4.221   5.587   6.356  0.00  0.00    +0.022 A 
ATOM     30 BR   UNL     1       4.091   6.277   9.115  0.00  0.00    -0.047 Br
BRANCH  24  31
ATOM     31  C   UNL     1       4.622   4.969   3.965  0.00  0.00    +0.016 C 
ATOM     32  C   UNL     1       5.380   3.688   4.319  0.00  0.00    +0.012 C 
BRANCH  31  34
ATOM     33  C   UNL     1       6.475   5.785   2.500  0.00  0.00    +0.004 C 
ATOM     34  C   UNL     1       5.622   6.104   3.729  0.00  0.00    +0.004 C 
ENDBRANCH  31  34
ENDBRANCH  24  31
ENDBRANCH  23  27
ENDBRANCH  22  23
ENDBRANCH   1  22
TORSDOF 9
