REMARK  Name = ZINC66859053
REMARK  13 active torsions:
REMARK  status: ('A' for Active; 'I' for Inactive)
REMARK    1  A    between atoms: C_1  and  C_2
REMARK    2  A    between atoms: C_2  and  S_3
REMARK    3  A    between atoms: S_3  and  N_6
REMARK    4  A    between atoms: N_6  and  C_7
REMARK    5  A    between atoms: N_6  and  C_8
REMARK    6  A    between atoms: N_11  and  C_14
REMARK    7  A    between atoms: C_14  and  C_15
REMARK    8  A    between atoms: C_17  and  C_23
REMARK    9  A    between atoms: C_19  and  O_22
REMARK   10  A    between atoms: C_20  and  O_21
REMARK   11  A    between atoms: C_23  and  C_24
REMARK   12  A    between atoms: C_23  and  C_25
REMARK   13  A    between atoms: C_23  and  C_26
REMARK                            x       y       z     vdW  Elec       q    Type
REMARK                         _______ _______ _______ _____ _____    ______ ____
ROOT
ATOM      1  C   UNL     1       4.049  -6.321   0.777  0.00  0.00    -0.039 C 
ENDROOT
BRANCH   1   5
ATOM      2  C   UNL     1       1.770  -3.260  -1.119  0.00  0.00    +0.076 C 
ATOM      3  C   UNL     1       2.484  -4.309  -1.977  0.00  0.00    +0.002 C 
ATOM      4  C   UNL     1       3.587  -4.972  -1.150  0.00  0.00    -0.077 C 
ATOM      5  N   UNL     1       2.998  -5.620   0.028  0.00  0.00    +0.383 N 
ATOM      6  C   UNL     1       2.373  -4.611   0.891  0.00  0.00    -0.077 C 
ATOM      7  C   UNL     1       1.223  -3.934   0.143  0.00  0.00    +0.002 C 
ATOM      8  H   UNL     1       2.300  -6.285  -0.270  0.00  0.00    -0.081 HD
BRANCH   2   9
ATOM      9  N   UNL     1       0.663  -2.675  -1.881  0.00  0.00    -0.181 NA
ATOM     10  C   UNL     1      -0.417  -3.531  -2.377  0.00  0.00    +0.131 C 
BRANCH   9  11
ATOM     11  S   UNL     1       0.634  -1.047  -2.180  0.00  0.00    +0.032 S 
ATOM     12  O   UNL     1      -0.131  -0.911  -3.369  0.00  0.00    -0.158 OA
ATOM     13  O   UNL     1       1.997  -0.647  -2.146  0.00  0.00    -0.158 OA
BRANCH  11  15
ATOM     14  C   UNL     1      -0.352   1.187  -0.947  0.00  0.00    +0.029 C 
ATOM     15  C   UNL     1      -0.263  -0.331  -0.775  0.00  0.00    +0.182 C 
ENDBRANCH  11  15
ENDBRANCH   9  11
ENDBRANCH   2   9
ENDBRANCH   1   5
BRANCH   1  16
ATOM     16  C   UNL     1       3.428  -7.097   1.909  0.00  0.00    -0.019 A 
ATOM     17  C   UNL     1       3.485  -6.604   3.199  0.00  0.00    +0.009 A 
ATOM     18  C   UNL     1       2.916  -7.313   4.240  0.00  0.00    -0.038 A 
ATOM     19  C   UNL     1       2.287  -8.520   3.995  0.00  0.00    +0.053 A 
ATOM     20  C   UNL     1       2.225  -9.020   2.705  0.00  0.00    +0.159 A 
ATOM     21  C   UNL     1       2.793  -8.303   1.656  0.00  0.00    +0.160 A 
BRANCH  18  22
ATOM     22  C   UNL     1       2.981  -6.771   5.644  0.00  0.00    -0.013 C 
ATOM     23  C   UNL     1       2.284  -5.410   5.698  0.00  0.00    +0.015 C 
ATOM     24  C   UNL     1       2.282  -7.741   6.599  0.00  0.00    +0.015 C 
ATOM     25  C   UNL     1       4.445  -6.611   6.061  0.00  0.00    +0.015 C 
ENDBRANCH  18  22
BRANCH  21  26
ATOM     26  O   UNL     1       2.731  -8.787   0.387  0.00  0.00    -0.503 OA
ATOM     27  H   UNL     1       3.434  -9.414   0.170  0.00  0.00    +0.292 HD
ENDBRANCH  21  26
BRANCH  20  28
ATOM     28  O   UNL     1       1.607 -10.207   2.462  0.00  0.00    -0.503 OA
ATOM     29  H   UNL     1       0.664 -10.126   2.264  0.00  0.00    +0.292 HD
ENDBRANCH  20  28
ENDBRANCH   1  16
TORSDOF 8
