REMARK  Name = ZINC21658210
REMARK  7 active torsions:
REMARK  status: ('A' for Active; 'I' for Inactive)
REMARK    1  A    between atoms: C_1  and  C_2
REMARK    2  A    between atoms: C_2  and  C_3
REMARK    3  A    between atoms: C_3  and  C_5
REMARK    4  A    between atoms: C_3  and  N_6
REMARK    5  A    between atoms: C_7  and  C_9
REMARK    6  A    between atoms: C_9  and  N_10
REMARK    7  A    between atoms: C_12  and  C_25
REMARK                            x       y       z     vdW  Elec       q    Type
REMARK                         _______ _______ _______ _____ _____    ______ ____
ROOT
ATOM      1  N   UNL     1       0.281   7.080   1.005  0.00  0.00    -0.284 N 
ATOM      2  C   UNL     1       1.140   7.968   1.676  0.00  0.00    +0.137 A 
ATOM      3  C   UNL     1       1.795   7.620   2.836  0.00  0.00    +0.063 A 
ATOM      4  S   UNL     1       2.711   9.095   3.220  0.00  0.00    -0.059 S 
ATOM      5  C   UNL     1       2.201  10.060   1.881  0.00  0.00    +0.132 A 
ATOM      6  S   UNL     1       2.646  11.670   1.506  0.00  0.00    -0.024 S 
ATOM      7  N   UNL     1       1.357   9.232   1.191  0.00  0.00    -0.282 N 
ATOM      8  C   UNL     1       0.710   9.641   0.006  0.00  0.00    +0.062 A 
ATOM      9  C   UNL     1       0.928  10.920  -0.487  0.00  0.00    +0.027 A 
ATOM     10  C   UNL     1       0.293  11.322  -1.647  0.00  0.00    +0.002 A 
ATOM     11  C   UNL     1      -0.556  10.460  -2.321  0.00  0.00    +0.001 A 
ATOM     12  C   UNL     1      -0.782   9.186  -1.843  0.00  0.00    +0.015 A 
ATOM     13  C   UNL     1      -0.147   8.771  -0.673  0.00  0.00    +0.063 A 
ATOM     14  C   UNL     1      -0.354   7.417  -0.128  0.00  0.00    +0.262 A 
ATOM     15  O   UNL     1      -1.087   6.626  -0.689  0.00  0.00    -0.267 OA
ENDROOT
BRANCH   3  16
ATOM     16  C   UNL     1       1.750   6.342   3.575  0.00  0.00    -0.006 A 
ATOM     17  C   UNL     1       0.797   6.146   4.577  0.00  0.00    +0.010 A 
ATOM     18  C   UNL     1       0.756   4.948   5.261  0.00  0.00    +0.022 A 
ATOM     19  C   UNL     1       1.663   3.945   4.962  0.00  0.00    +0.059 A 
ATOM     20  C   UNL     1       2.614   4.136   3.972  0.00  0.00    +0.060 A 
ATOM     21  C   UNL     1       2.662   5.328   3.277  0.00  0.00    +0.030 A 
ATOM     22 CL   UNL     1       3.747   2.873   3.605  0.00  0.00    -0.082 Cl
ATOM     23 CL   UNL     1       1.608   2.443   5.831  0.00  0.00    -0.082 Cl
ENDBRANCH   3  16
BRANCH   1  24
ATOM     24  C   UNL     1       0.077   5.739   1.558  0.00  0.00    +0.222 C 
BRANCH  24  26
ATOM     25  N   UNL     1      -1.645   4.603   2.921  0.00  0.00    -0.311 N 
ATOM     26  C   UNL     1      -1.091   5.760   2.509  0.00  0.00    +0.233 C 
ATOM     27  O   UNL     1      -1.534   6.818   2.903  0.00  0.00    -0.274 OA
ATOM     28  H   UNL     1      -1.280   3.645   2.522  0.00  0.00    +0.149 HD
BRANCH  25  29
ATOM     29  C   UNL     1      -2.734   4.620   3.901  0.00  0.00    +0.070 C 
ATOM     30  C   UNL     1      -2.148   4.673   5.314  0.00  0.00    +0.028 C 
BRANCH  29  32
ATOM     31  C   UNL     1      -4.266   3.363   2.380  0.00  0.00    +0.005 C 
ATOM     32  C   UNL     1      -3.580   3.354   3.747  0.00  0.00    +0.018 C 
ENDBRANCH  29  32
ENDBRANCH  25  29
ENDBRANCH  24  26
ENDBRANCH   1  24
TORSDOF 5
