REMARK  Name = ZINC57794784
REMARK  9 active torsions:
REMARK  status: ('A' for Active; 'I' for Inactive)
REMARK    1  A    between atoms: C_1  and  C_2
REMARK    2  A    between atoms: C_2  and  C_4
REMARK    3  A    between atoms: C_2  and  N_6
REMARK    4  A    between atoms: C_4  and  N_5
REMARK    5  A    between atoms: C_9  and  C_13
REMARK    6  A    between atoms: C_14  and  C_15
REMARK    7  A    between atoms: C_18  and  C_21
REMARK    8  A    between atoms: C_21  and  C_22
REMARK    9  A    between atoms: C_21  and  C_23
REMARK                            x       y       z     vdW  Elec       q    Type
REMARK                         _______ _______ _______ _____ _____    ______ ____
ROOT
ATOM      1  N   UNL     1       0.711  -0.489   1.189  0.00  0.00    -0.314 N 
ATOM      2  C   UNL     1       0.239  -0.171   2.424  0.00  0.00    +0.090 A 
ATOM      3  C   UNL     1       0.866  -0.599   3.539  0.00  0.00    +0.026 A 
ATOM      4  C   UNL     1       2.033  -1.395   3.427  0.00  0.00    -0.019 A 
ATOM      5  C   UNL     1       2.506  -1.715   2.158  0.00  0.00    +0.078 A 
ATOM      6  C   UNL     1       1.812  -1.246   1.036  0.00  0.00    +0.252 A 
ATOM      7  O   UNL     1       2.211  -1.522  -0.085  0.00  0.00    -0.268 OA
ENDROOT
BRANCH   1   9
ATOM      8  C   UNL     1      -0.019   1.526   0.010  0.00  0.00    +0.029 C 
ATOM      9  C   UNL     1       0.002  -0.004   0.002  0.00  0.00    +0.070 C 
BRANCH   9  10
ATOM     10  C   UNL     1      -1.433  -0.534   0.013  0.00  0.00    -0.061 C 
BRANCH  10  11
ATOM     11  N   UNL     1      -1.414  -1.998   0.126  0.00  0.00    +0.379 N 
ATOM     12  H   UNL     1      -0.917  -2.389  -0.661  0.00  0.00    -0.090 HD
ATOM     13  H   UNL     1      -0.951  -2.264   0.982  0.00  0.00    -0.090 HD
ATOM     14  H   UNL     1      -2.361  -2.347   0.133  0.00  0.00    -0.090 HD
ENDBRANCH  10  11
ENDBRANCH   9  10
ENDBRANCH   1   9
BRANCH   4  15
ATOM     15  C   UNL     1       2.732  -1.872   4.629  0.00  0.00    +0.009 C 
ATOM     16  C   UNL     1       2.264  -1.555   5.850  0.00  0.00    +0.008 C 
BRANCH  16  17
ATOM     17  C   UNL     1       2.963  -2.033   7.054  0.00  0.00    -0.025 A 
ATOM     18  C   UNL     1       4.118  -2.812   6.933  0.00  0.00    +0.008 A 
ATOM     19  C   UNL     1       4.768  -3.256   8.065  0.00  0.00    +0.004 A 
ATOM     20  C   UNL     1       4.280  -2.933   9.319  0.00  0.00    -0.045 A 
ATOM     21  C   UNL     1       3.137  -2.162   9.447  0.00  0.00    +0.004 A 
ATOM     22  C   UNL     1       2.480  -1.705   8.324  0.00  0.00    +0.008 A 
BRANCH  20  23
ATOM     23  C   UNL     1       4.996  -3.422  10.552  0.00  0.00    +0.013 C 
ATOM     24  C   UNL     1       5.448  -2.224  11.389  0.00  0.00    +0.012 C 
ATOM     25  C   UNL     1       4.049  -4.294  11.379  0.00  0.00    +0.012 C 
ENDBRANCH  20  23
ENDBRANCH  16  17
ENDBRANCH   4  15
TORSDOF 6
