REMARK  Name = ZINC39673072
REMARK  12 active torsions:
REMARK  status: ('A' for Active; 'I' for Inactive)
REMARK    1  A    between atoms: C_1  and  C_2
REMARK    2  A    between atoms: C_5  and  C_9
REMARK    3  A    between atoms: C_7  and  C_8
REMARK    4  A    between atoms: C_9  and  N_10
REMARK    5  A    between atoms: C_11  and  C_13
REMARK    6  A    between atoms: C_24  and  C_26
REMARK    7  A    between atoms: C_28  and  O_36
REMARK    8  A    between atoms: C_29  and  O_34
REMARK    9  A    between atoms: C_30  and  O_32
REMARK   10  A    between atoms: O_32  and  C_33
REMARK   11  A    between atoms: O_34  and  C_35
REMARK   12  A    between atoms: O_36  and  C_37
REMARK                            x       y       z     vdW  Elec       q    Type
REMARK                         _______ _______ _______ _____ _____    ______ ____
ROOT
ATOM      1  C   UNL     1       2.767  -6.568  -0.628  0.00  0.00    +0.100 C 
ATOM      2  C   UNL     1       3.728  -6.157  -1.766  0.00  0.00    +0.121 C 
ATOM      3  N   UNL     1       4.598  -7.340  -1.967  0.00  0.00    -0.296 N 
ATOM      4  C   UNL     1       3.684  -8.498  -1.823  0.00  0.00    +0.115 C 
ATOM      5  C   UNL     1       2.740  -8.105  -0.669  0.00  0.00    -0.004 C 
ATOM      6  C   UNL     1       1.326  -8.602  -0.953  0.00  0.00    -0.010 C 
ATOM      7  C   UNL     1       1.313 -10.133  -0.931  0.00  0.00    -0.082 C 
ATOM      8  N   UNL     1       1.766 -10.609   0.382  0.00  0.00    +0.379 N 
ATOM      9  C   UNL     1       3.160 -10.206   0.607  0.00  0.00    -0.082 C 
ATOM     10  C   UNL     1       3.251  -8.678   0.650  0.00  0.00    -0.010 C 
ATOM     11  C   UNL     1       5.921  -7.358  -2.221  0.00  0.00    +0.247 C 
ATOM     12  O   UNL     1       6.562  -6.326  -2.184  0.00  0.00    -0.270 OA
ATOM     13  H   UNL     1       1.182 -10.212   1.102  0.00  0.00    -0.086 HD
ATOM     14  H   UNL     1       1.699 -11.615   0.415  0.00  0.00    -0.086 HD
ENDROOT
BRANCH  11  15
ATOM     15  C   UNL     1       6.593  -8.632  -2.547  0.00  0.00    +0.044 A 
ATOM     16  C   UNL     1       5.848  -9.715  -3.019  0.00  0.00    +0.062 A 
ATOM     17  C   UNL     1       6.479 -10.907  -3.323  0.00  0.00    +0.166 A 
ATOM     18  C   UNL     1       7.856 -11.028  -3.159  0.00  0.00    +0.204 A 
ATOM     19  C   UNL     1       8.601  -9.950  -2.688  0.00  0.00    +0.166 A 
ATOM     20  C   UNL     1       7.975  -8.755  -2.388  0.00  0.00    +0.062 A 
BRANCH  19  21
ATOM     21  O   UNL     1       9.946 -10.072  -2.528  0.00  0.00    -0.491 OA
ATOM     22  C   UNL     1      10.648  -8.927  -2.040  0.00  0.00    +0.277 C 
ENDBRANCH  19  21
BRANCH  18  23
ATOM     23  O   UNL     1       8.474 -12.201  -3.458  0.00  0.00    -0.488 OA
ATOM     24  C   UNL     1       8.947 -12.361  -4.797  0.00  0.00    +0.277 C 
ENDBRANCH  18  23
BRANCH  17  25
ATOM     25  O   UNL     1       5.754 -11.961  -3.783  0.00  0.00    -0.491 OA
ATOM     26  C   UNL     1       4.346 -11.767  -3.928  0.00  0.00    +0.277 C 
ENDBRANCH  17  25
ENDBRANCH  11  15
BRANCH   1  28
ATOM     27  N   UNL     1       0.587  -5.705   0.159  0.00  0.00    -0.311 N 
ATOM     28  C   UNL     1       1.389  -6.012  -0.879  0.00  0.00    +0.218 C 
ATOM     29  O   UNL     1       1.002  -5.841  -2.016  0.00  0.00    -0.275 OA
ATOM     30  H   UNL     1       0.896  -5.842   1.068  0.00  0.00    +0.149 HD
BRANCH  27  31
ATOM     31  C   UNL     1      -0.753  -5.165  -0.085  0.00  0.00    +0.139 C 
BRANCH  31  36
ATOM     32  C   UNL     1      -3.386  -4.182   4.965  0.00  0.00    +0.044 C 
ATOM     33  C   UNL     1      -2.699  -4.438   3.648  0.00  0.00    -0.048 A 
ATOM     34  C   UNL     1      -1.938  -3.445   3.060  0.00  0.00    +0.004 A 
ATOM     35  C   UNL     1      -1.309  -3.680   1.852  0.00  0.00    +0.005 A 
ATOM     36  C   UNL     1      -1.439  -4.909   1.232  0.00  0.00    -0.030 A 
ATOM     37  C   UNL     1      -2.199  -5.902   1.821  0.00  0.00    +0.008 A 
ATOM     38  C   UNL     1      -2.825  -5.668   3.031  0.00  0.00    -0.047 A 
ATOM     39  C   UNL     1      -3.650  -6.753   3.675  0.00  0.00    +0.044 C 
ENDBRANCH  31  36
ENDBRANCH  27  31
ENDBRANCH   1  28
TORSDOF 7
