REMARK  Name = ZINC08960135
REMARK  13 active torsions:
REMARK  status: ('A' for Active; 'I' for Inactive)
REMARK    1  A    between atoms: C_1  and  C_2
REMARK    2  A    between atoms: C_2  and  O_3
REMARK    3  A    between atoms: O_3  and  C_4
REMARK    4  A    between atoms: C_11  and  C_13
REMARK    5  A    between atoms: N_15  and  C_16
REMARK    6  A    between atoms: C_17  and  C_28
REMARK    7  A    between atoms: C_21  and  C_26
REMARK    8  A    between atoms: C_21  and  C_27
REMARK    9  A    between atoms: C_22  and  C_24
REMARK   10  A    between atoms: C_22  and  C_25
REMARK   11  A    between atoms: C_28  and  O_30
REMARK   12  A    between atoms: O_30  and  C_31
REMARK   13  A    between atoms: C_31  and  C_32
REMARK                            x       y       z     vdW  Elec       q    Type
REMARK                         _______ _______ _______ _____ _____    ______ ____
ROOT
ATOM      1  C   UNL     1       2.414   0.245  -0.027  0.00  0.00    +0.087 A 
ATOM      2  C   UNL     1       1.316  -0.611  -0.021  0.00  0.00    +0.091 A 
ATOM      3  C   UNL     1       0.002  -0.004   0.002  0.00  0.00    -0.024 A 
ATOM      4  C   UNL     1      -0.016   1.349   0.009  0.00  0.00    -0.016 A 
ATOM      5  S   UNL     1       1.689   1.819  -0.004  0.00  0.00    -0.079 S 
ATOM      6  C   UNL     1      -1.229   2.222   0.017  0.00  0.00    -0.041 C 
ATOM      7  C   UNL     1      -2.331   0.117   0.790  0.00  0.00    -0.069 C 
ATOM      8  C   UNL     1      -1.326  -0.749   0.023  0.00  0.00    +0.024 C 
ATOM      9  C   UNL     1      -3.705  -0.574   0.711  0.00  0.00    -0.010 C 
ATOM     10  C   UNL     1      -1.921   0.182   2.264  0.00  0.00    -0.010 C 
ATOM     11  C   UNL     1      -1.081   3.288   1.112  0.00  0.00    -0.005 C 
ATOM     12  C   UNL     1      -1.314   2.944  -1.341  0.00  0.00    -0.005 C 
ATOM     13  N   UNL     1      -2.504   1.473   0.207  0.00  0.00    +0.389 N 
ATOM     14  H   UNL     1      -2.960   1.375  -0.708  0.00  0.00    -0.084 HD
ATOM     15  H   UNL     1      -3.108   2.018   0.833  0.00  0.00    -0.084 HD
ENDROOT
BRANCH   1  18
ATOM     16  C   UNL     1       4.690   0.890  -0.049  0.00  0.00    +0.284 C 
ATOM     17  O   UNL     1       4.350   2.058  -0.034  0.00  0.00    -0.266 OA
ATOM     18  N   UNL     1       3.758  -0.084  -0.047  0.00  0.00    -0.273 N 
ATOM     19  H   UNL     1       4.030  -1.015  -0.059  0.00  0.00    +0.156 HD
BRANCH  16  27
ATOM     20  C   UNL     1       8.922  -1.708  -0.127  0.00  0.00    +0.163 A 
ATOM     21  C   UNL     1      10.263  -1.373  -0.141  0.00  0.00    +0.049 A 
ATOM     22  C   UNL     1      10.661  -0.043  -0.134  0.00  0.00    +0.004 A 
ATOM     23  C   UNL     1       9.732   0.958  -0.112  0.00  0.00    +0.012 A 
ATOM     24  C   UNL     1       8.370   0.642  -0.098  0.00  0.00    +0.025 A 
ATOM     25  C   UNL     1       7.957  -0.702  -0.105  0.00  0.00    +0.177 A 
ATOM     26  O   UNL     1       6.609  -0.715  -0.082  0.00  0.00    -0.447 OA
ATOM     27  C   UNL     1       6.117   0.541  -0.070  0.00  0.00    +0.191 A 
ATOM     28  C   UNL     1       7.141   1.434  -0.075  0.00  0.00    +0.063 A 
BRANCH  20  29
ATOM     29  O   UNL     1       8.545  -3.015  -0.135  0.00  0.00    -0.489 OA
BRANCH  29  31
ATOM     30  C   UNL     1       8.976  -5.393  -0.163  0.00  0.00    +0.048 C 
ATOM     31  C   UNL     1       9.589  -3.991  -0.157  0.00  0.00    +0.226 C 
ENDBRANCH  29  31
ENDBRANCH  20  29
ENDBRANCH  16  27
ENDBRANCH   1  18
BRANCH   2  32
ATOM     32  C   UNL     1       1.497  -2.064  -0.040  0.00  0.00    +0.342 C 
ATOM     33  O   UNL     1       1.559  -2.655  -1.101  0.00  0.00    -0.245 OA
BRANCH  32  34
ATOM     34  O   UNL     1       1.595  -2.746   1.120  0.00  0.00    -0.461 OA
BRANCH  34  35
ATOM     35  C   UNL     1       1.773  -4.184   1.025  0.00  0.00    +0.229 C 
ATOM     36  C   UNL     1       1.862  -4.781   2.431  0.00  0.00    +0.048 C 
ENDBRANCH  34  35
ENDBRANCH  32  34
ENDBRANCH   2  32
TORSDOF 7
