REMARK  Name = ZINC58162258
REMARK  8 active torsions:
REMARK  status: ('A' for Active; 'I' for Inactive)
REMARK    1  A    between atoms: C_1  and  C_2
REMARK    2  A    between atoms: C_5  and  N_8
REMARK    3  A    between atoms: N_8  and  S_9
REMARK    4  A    between atoms: S_9  and  C_12
REMARK    5  A    between atoms: C_15  and  N_21
REMARK    6  A    between atoms: C_16  and  N_18
REMARK    7  A    between atoms: N_21  and  C_22
REMARK    8  A    between atoms: C_28  and  O_30
REMARK                            x       y       z     vdW  Elec       q    Type
REMARK                         _______ _______ _______ _____ _____    ______ ____
ROOT
ATOM      1  C   UNL     1      -2.297  -4.663   3.569  0.00  0.00    +0.108 A 
ATOM      2  C   UNL     1      -2.525  -3.448   4.189  0.00  0.00    +0.030 A 
ATOM      3  C   UNL     1      -3.812  -3.064   4.508  0.00  0.00    +0.027 A 
ATOM      4  C   UNL     1      -4.880  -3.901   4.207  0.00  0.00    +0.058 A 
ATOM      5  C   UNL     1      -4.648  -5.121   3.585  0.00  0.00    +0.149 A 
ATOM      6  C   UNL     1      -3.358  -5.496   3.263  0.00  0.00    +0.063 A 
ENDROOT
BRANCH   1   7
ATOM      7  S   UNL     1      -0.653  -5.149   3.162  0.00  0.00    +0.059 S 
ATOM      8  O   UNL     1      -0.658  -6.567   3.077  0.00  0.00    -0.153 OA
ATOM      9  O   UNL     1       0.209  -4.442   4.043  0.00  0.00    -0.153 OA
BRANCH   7  10
ATOM     10  N   UNL     1      -0.339  -4.583   1.638  0.00  0.00    -0.187 NA
ATOM     11  H   UNL     1      -0.185  -5.208   0.911  0.00  0.00    +0.148 HD
BRANCH  10  16
ATOM     12  C   UNL     1       0.698   0.651  -0.449  0.00  0.00    +0.007 C 
ATOM     13  C   UNL     1       0.649  -0.856  -0.187  0.00  0.00    -0.014 C 
ATOM     14  C   UNL     1      -0.799  -1.341  -0.270  0.00  0.00    +0.005 C 
ATOM     15  C   UNL     1      -0.848  -2.848  -0.008  0.00  0.00    +0.020 C 
ATOM     16  C   UNL     1      -0.292  -3.141   1.387  0.00  0.00    +0.077 C 
ATOM     17  C   UNL     1       1.157  -2.655   1.470  0.00  0.00    +0.020 C 
ATOM     18  C   UNL     1       1.206  -1.149   1.208  0.00  0.00    +0.005 C 
ENDBRANCH  10  16
ENDBRANCH   7  10
ENDBRANCH   1   7
BRANCH   5  19
ATOM     19  N   UNL     1      -5.782  -6.016   3.263  0.00  0.00    +0.058 N 
ATOM     20  O   UNL     1      -6.713  -6.110   4.027  0.00  0.00    -0.126 OA
ATOM     21  O   UNL     1      -5.777  -6.652   2.235  0.00  0.00    -0.126 OA
ENDBRANCH   5  19
BRANCH   4  22
ATOM     22  N   UNL     1      -6.183  -3.516   4.530  0.00  0.00    -0.337 N 
ATOM     23  H   UNL     1      -6.934  -4.061   4.246  0.00  0.00    +0.147 HD
BRANCH  22  24
ATOM     24  C   UNL     1      -6.416  -2.290   5.296  0.00  0.00    +0.099 C 
ATOM     25  C   UNL     1      -6.292  -2.591   6.791  0.00  0.00    +0.025 C 
ATOM     26  C   UNL     1      -6.535  -1.310   7.591  0.00  0.00    +0.002 C 
ATOM     27  C   UNL     1      -7.940  -0.781   7.293  0.00  0.00    +0.003 C 
ATOM     28  C   UNL     1      -8.064  -0.480   5.798  0.00  0.00    +0.033 C 
ATOM     29  C   UNL     1      -7.821  -1.761   4.997  0.00  0.00    +0.135 C 
BRANCH  29  30
ATOM     30  O   UNL     1      -7.937  -1.480   3.601  0.00  0.00    -0.390 OA
ATOM     31  H   UNL     1      -8.803  -1.140   3.339  0.00  0.00    +0.210 HD
ENDBRANCH  29  30
ENDBRANCH  22  24
ENDBRANCH   4  22
TORSDOF 7
