REMARK  Name = ZINC21581676
REMARK  13 active torsions:
REMARK  status: ('A' for Active; 'I' for Inactive)
REMARK    1  A    between atoms: C_1  and  C_2
REMARK    2  A    between atoms: C_2  and  C_3
REMARK    3  A    between atoms: C_3  and  C_4
REMARK    4  A    between atoms: C_4  and  N_5
REMARK    5  A    between atoms: C_6  and  N_33
REMARK    6  A    between atoms: C_7  and  N_14
REMARK    7  A    between atoms: N_14  and  C_15
REMARK    8  A    between atoms: C_15  and  C_16
REMARK    9  A    between atoms: C_17  and  C_19
REMARK   10  A    between atoms: C_19  and  N_20
REMARK   11  A    between atoms: N_20  and  C_21
REMARK   12  A    between atoms: N_20  and  C_22
REMARK   13  A    between atoms: C_22  and  C_23
REMARK                            x       y       z     vdW  Elec       q    Type
REMARK                         _______ _______ _______ _____ _____    ______ ____
ROOT
ATOM      1  N   UNL     1       6.464  -3.025  -3.274  0.00  0.00    -0.266 N 
ATOM      2  C   UNL     1       5.586  -2.026  -3.051  0.00  0.00    +0.203 C 
ATOM      3  O   UNL     1       5.040  -1.478  -3.987  0.00  0.00    -0.277 OA
ENDROOT
BRANCH   1   6
ATOM      4  N   UNL     1       5.887  -4.543  -6.570  0.00  0.00    -0.280 N 
ATOM      5  C   UNL     1       5.649  -4.090  -5.293  0.00  0.00    +0.127 A 
ATOM      6  C   UNL     1       6.676  -3.499  -4.586  0.00  0.00    +0.140 A 
ATOM      7  C   UNL     1       7.937  -3.371  -5.198  0.00  0.00    +0.277 A 
ATOM      8  O   UNL     1       8.861  -2.848  -4.598  0.00  0.00    -0.266 OA
ATOM      9  N   UNL     1       8.118  -3.836  -6.450  0.00  0.00    -0.273 N 
ATOM     10  H   UNL     1       9.103  -3.748  -6.932  0.00  0.00    +0.173 HD
ATOM     11  C   UNL     1       7.106  -4.410  -7.124  0.00  0.00    +0.331 A 
ATOM     12  O   UNL     1       7.296  -4.816  -8.254  0.00  0.00    -0.246 OA
BRANCH   5  13
ATOM     13  N   UNL     1       4.404  -4.227  -4.728  0.00  0.00    -0.343 N 
ATOM     14  H   UNL     1       4.221  -3.863  -3.706  0.00  0.00    +0.144 HD
ATOM     15  H   UNL     1       3.591  -4.700  -5.297  0.00  0.00    +0.144 HD
ENDBRANCH   5  13
BRANCH   4  16
ATOM     16  C   UNL     1       4.806  -5.172  -7.333  0.00  0.00    +0.128 C 
BRANCH  16  17
ATOM     17  C   UNL     1       4.051  -4.103  -8.125  0.00  0.00    +0.021 C 
BRANCH  17  19
ATOM     18  C   UNL     1       2.166  -3.691  -9.713  0.00  0.00    +0.004 C 
ATOM     19  C   UNL     1       2.921  -4.760  -8.921  0.00  0.00    -0.002 C 
ENDBRANCH  17  19
ENDBRANCH  16  17
ENDBRANCH   4  16
ENDBRANCH   1   6
BRANCH   1  20
ATOM     20  C   UNL     1       7.198  -3.619  -2.154  0.00  0.00    +0.110 C 
ATOM     21  C   UNL     1       6.428  -4.830  -1.624  0.00  0.00    +0.025 C 
ENDBRANCH   1  20
BRANCH   2  22
ATOM     22  C   UNL     1       5.282  -1.589  -1.641  0.00  0.00    +0.019 C 
BRANCH  22  23
ATOM     23  N   UNL     1       4.303  -0.494  -1.667  0.00  0.00    +0.386 N 
ATOM     24  C   UNL     1       4.875   0.708  -2.290  0.00  0.00    -0.095 C 
ATOM     25  H   UNL     1       3.449  -0.819  -2.280  0.00  0.00    -0.081 HD
BRANCH  23  26
ATOM     26  C   UNL     1       3.804  -0.202  -0.317  0.00  0.00    -0.043 C 
BRANCH  26  27
ATOM     27  C   UNL     1       2.636   0.745  -0.407  0.00  0.00    -0.060 A 
ATOM     28  C   UNL     1       1.351   0.247  -0.524  0.00  0.00    +0.005 A 
ATOM     29  C   UNL     1       0.277   1.112  -0.608  0.00  0.00    +0.049 A 
ATOM     30  C   UNL     1       0.485   2.483  -0.577  0.00  0.00    +0.162 A 
ATOM     31  C   UNL     1       1.775   2.984  -0.457  0.00  0.00    +0.162 A 
ATOM     32  C   UNL     1       2.849   2.110  -0.374  0.00  0.00    +0.051 A 
ATOM     33  O   UNL     1       2.001   4.326  -0.415  0.00  0.00    -0.485 OA
ATOM     34  C   UNL     1       0.941   5.171  -0.876  0.00  0.00    +0.270 C 
ATOM     35  C   UNL     1      -0.372   4.678  -0.255  0.00  0.00    +0.270 C 
ATOM     36  O   UNL     1      -0.582   3.323  -0.669  0.00  0.00    -0.485 OA
ENDBRANCH  26  27
ENDBRANCH  23  26
ENDBRANCH  22  23
ENDBRANCH   2  22
TORSDOF 10
