REMARK  Name = ZINC02863110
REMARK  8 active torsions:
REMARK  status: ('A' for Active; 'I' for Inactive)
REMARK    1  A    between atoms: C_1  and  C_2
REMARK    2  A    between atoms: C_5  and  C_24
REMARK    3  A    between atoms: C_6  and  O_9
REMARK    4  A    between atoms: C_7  and  C_8
REMARK    5  A    between atoms: O_9  and  C_10
REMARK    6  A    between atoms: C_10  and  C_11
REMARK    7  A    between atoms: C_11  and  C_12
REMARK    8  A    between atoms: C_12  and  N_13
REMARK                            x       y       z     vdW  Elec       q    Type
REMARK                         _______ _______ _______ _____ _____    ______ ____
ROOT
ATOM      1  C   UNL     1       3.648   2.283   2.160  0.00  0.00    +0.063 C 
ENDROOT
BRANCH   1   2
ATOM      2  C   UNL     1       2.179   2.705   2.079  0.00  0.00    +0.231 C 
BRANCH   2   3
ATOM      3  O   UNL     1       1.346   1.599   2.432  0.00  0.00    -0.491 OA
BRANCH   3   9
ATOM      4  C   UNL     1      -2.865   1.540  -0.037  0.00  0.00    +0.044 C 
ATOM      5  C   UNL     1      -2.082   1.789   1.227  0.00  0.00    -0.044 A 
ATOM      6  C   UNL     1      -2.731   2.231   2.366  0.00  0.00    +0.004 A 
ATOM      7  C   UNL     1      -2.014   2.466   3.525  0.00  0.00    +0.007 A 
ATOM      8  C   UNL     1      -0.649   2.254   3.549  0.00  0.00    -0.009 A 
ATOM      9  C   UNL     1       0.003   1.807   2.410  0.00  0.00    +0.127 A 
ATOM     10  C   UNL     1      -0.718   1.572   1.248  0.00  0.00    -0.006 A 
ATOM     11  C   UNL     1      -0.013   1.086   0.008  0.00  0.00    +0.048 C 
ATOM     12  C   UNL     1       0.131   2.510   4.813  0.00  0.00    +0.047 C 
ENDBRANCH   3   9
ENDBRANCH   2   3
ENDBRANCH   1   2
BRANCH   1  13
ATOM     13  C   UNL     1       4.540   3.467   1.783  0.00  0.00    +0.129 C 
BRANCH  13  14
ATOM     14  N   UNL     1       5.946   3.063   1.861  0.00  0.00    -0.299 N 
ATOM     15  C   UNL     1       6.627   3.218   3.026  0.00  0.00    +0.202 A 
ATOM     16  N   UNL     1       7.872   2.880   3.175  0.00  0.00    -0.237 NA
ATOM     17  C   UNL     1       8.592   2.350   2.156  0.00  0.00    +0.078 A 
ATOM     18  C   UNL     1       9.933   1.992   2.314  0.00  0.00    +0.028 A 
ATOM     19  C   UNL     1      10.626   1.457   1.252  0.00  0.00    +0.002 A 
ATOM     20  C   UNL     1      10.009   1.268   0.022  0.00  0.00    +0.001 A 
ATOM     21  C   UNL     1       8.688   1.614  -0.159  0.00  0.00    +0.015 A 
ATOM     22  C   UNL     1       7.968   2.156   0.904  0.00  0.00    +0.065 A 
ATOM     23  C   UNL     1       6.556   2.544   0.769  0.00  0.00    +0.262 A 
ATOM     24  O   UNL     1       5.959   2.405  -0.282  0.00  0.00    -0.267 OA
ENDBRANCH  13  14
ENDBRANCH   1  13
TORSDOF 5
