REMARK  Name = ZINC01791753
REMARK  5 active torsions:
REMARK  status: ('A' for Active; 'I' for Inactive)
REMARK    1  A    between atoms: C_9  and  N_12
REMARK    2  A    between atoms: N_12  and  C_13
REMARK    3  A    between atoms: C_14  and  C_15
REMARK    4  A    between atoms: C_14  and  C_17
REMARK    5  A    between atoms: C_19  and  C_22
REMARK                            x       y       z     vdW  Elec       q    Type
REMARK                         _______ _______ _______ _____ _____    ______ ____
ROOT
ATOM      1  C   UNL     1      -2.267  -4.229   0.018  0.00  0.00    +0.093 C 
ATOM      2  C   UNL     1      -3.417  -4.955   0.109  0.00  0.00    +0.098 C 
ENDROOT
BRANCH   2   3
ATOM      3  C   UNL     1      -4.723  -4.269   0.125  0.00  0.00    +0.120 A 
ATOM      4  N   UNL     1      -4.997  -2.983  -0.043  0.00  0.00    -0.238 NA
ATOM      5  C   UNL     1      -6.241  -2.536   0.003  0.00  0.00    +0.086 A 
ATOM      6  C   UNL     1      -7.265  -3.418   0.229  0.00  0.00    +0.075 A 
ATOM      7  S   UNL     1      -6.357  -4.952   0.369  0.00  0.00    -0.074 S 
BRANCH   5   8
ATOM      8  C   UNL     1      -6.524  -1.095  -0.187  0.00  0.00    +0.086 A 
ATOM      9  C   UNL     1      -5.514  -0.192  -0.421  0.00  0.00    +0.028 A 
ATOM     10  C   UNL     1      -5.892   1.213  -0.596  0.00  0.00    +0.019 A 
ATOM     11  C   UNL     1      -4.976   2.146  -1.095  0.00  0.00    +0.026 A 
ATOM     12  C   UNL     1      -5.360   3.459  -1.251  0.00  0.00    +0.019 A 
ATOM     13  C   UNL     1      -6.647   3.860  -0.917  0.00  0.00    +0.019 A 
ATOM     14  C   UNL     1      -7.560   2.951  -0.423  0.00  0.00    +0.048 A 
ATOM     15  C   UNL     1      -7.194   1.624  -0.256  0.00  0.00    +0.139 A 
ATOM     16  O   UNL     1      -8.077   0.719   0.234  0.00  0.00    -0.422 OA
ATOM     17  C   UNL     1      -7.901  -0.571  -0.140  0.00  0.00    +0.347 A 
ATOM     18  O   UNL     1      -8.849  -1.278  -0.425  0.00  0.00    -0.244 OA
ATOM     19 BR   UNL     1      -4.127   4.725  -1.924  0.00  0.00    -0.050 Br
ENDBRANCH   5   8
ENDBRANCH   2   3
BRANCH   1  20
ATOM     20  N   UNL     1      -2.315  -2.865   0.069  0.00  0.00    -0.319 N 
ATOM     21  H   UNL     1      -3.171  -2.410   0.095  0.00  0.00    +0.152 HD
BRANCH  20  30
ATOM     22  C   UNL     1      -0.007   1.457   0.203  0.00  0.00    +0.018 A 
ATOM     23  C   UNL     1       1.181   2.112   0.214  0.00  0.00    +0.092 A 
ATOM     24  C   UNL     1       2.387   1.379   0.174  0.00  0.00    +0.337 A 
ATOM     25  O   UNL     1       3.446   1.979   0.184  0.00  0.00    -0.245 OA
ATOM     26  O   UNL     1       2.395   0.038   0.125  0.00  0.00    -0.422 OA
ATOM     27  C   UNL     1       1.248  -0.675   0.112  0.00  0.00    +0.139 A 
ATOM     28  C   UNL     1       0.010  -0.009   0.149  0.00  0.00    +0.019 A 
ATOM     29  C   UNL     1      -1.179  -0.742   0.135  0.00  0.00    +0.034 A 
ATOM     30  C   UNL     1      -1.129  -2.123   0.084  0.00  0.00    +0.032 A 
ATOM     31  C   UNL     1       0.101  -2.779   0.047  0.00  0.00    +0.027 A 
ATOM     32  C   UNL     1       1.278  -2.063   0.061  0.00  0.00    +0.049 A 
ENDBRANCH  20  30
ENDBRANCH   1  20
BRANCH   2  33
ATOM     33  C   UNL     1      -3.358  -6.383   0.188  0.00  0.00    +0.103 C 
ATOM     34  N   UNL     1      -3.311  -7.517   0.250  0.00  0.00    -0.191 NA
ENDBRANCH   2  33
TORSDOF 5
