REMARK  Name = ZINC35920039
REMARK  8 active torsions:
REMARK  status: ('A' for Active; 'I' for Inactive)
REMARK    1  A    between atoms: C_1  and  C_2
REMARK    2  A    between atoms: C_12  and  O_14
REMARK    3  A    between atoms: O_14  and  C_15
REMARK    4  A    between atoms: C_20  and  O_21
REMARK    5  A    between atoms: O_21  and  C_22
REMARK    6  A    between atoms: N_24  and  S_27
REMARK    7  A    between atoms: S_27  and  C_30
REMARK    8  A    between atoms: C_35  and  C_36
REMARK                            x       y       z     vdW  Elec       q    Type
REMARK                         _______ _______ _______ _____ _____    ______ ____
ROOT
ATOM      1  C   UNL     1      -0.805   2.348   1.167  0.00  0.00    +0.007 C 
ATOM      2  C   UNL     1      -0.565   0.850   0.971  0.00  0.00    -0.011 C 
ATOM      3  C   UNL     1      -1.908   0.133   0.815  0.00  0.00    +0.022 C 
ATOM      4  C   UNL     1      -1.662  -1.361   0.584  0.00  0.00    +0.108 C 
ATOM      5  N   UNL     1      -0.827  -1.877   1.677  0.00  0.00    -0.300 N 
ATOM      6  C   UNL     1       0.446  -1.204   1.971  0.00  0.00    +0.108 C 
ATOM      7  C   UNL     1       0.176   0.288   2.186  0.00  0.00    +0.022 C 
ATOM      8  C   UNL     1      -1.230  -2.976   2.415  0.00  0.00    +0.221 A 
ATOM      9  N   UNL     1      -0.420  -3.467   3.338  0.00  0.00    -0.219 NA
ATOM     10  C   UNL     1      -0.769  -4.519   4.073  0.00  0.00    +0.056 A 
ATOM     11  C   UNL     1      -2.000  -5.095   3.865  0.00  0.00    +0.052 A 
ATOM     12  C   UNL     1      -2.833  -4.559   2.879  0.00  0.00    +0.230 A 
ATOM     13  N   UNL     1      -2.422  -3.507   2.185  0.00  0.00    -0.179 NA
ATOM     14  C   UNL     1      -2.492  -6.270   4.667  0.00  0.00    +0.151 C 
ATOM     15  N   UNL     1      -1.382  -6.831   5.446  0.00  0.00    -0.172 NA
ATOM     16  C   UNL     1      -0.498  -5.884   6.146  0.00  0.00    +0.116 C 
ATOM     17  C   UNL     1       0.211  -5.033   5.093  0.00  0.00    +0.073 C 
ENDROOT
BRANCH  15  18
ATOM     18  S   UNL     1      -1.134  -8.466   5.536  0.00  0.00    +0.062 S 
ATOM     19  O   UNL     1      -0.301  -8.689   6.665  0.00  0.00    -0.153 OA
ATOM     20  O   UNL     1      -2.408  -9.079   5.396  0.00  0.00    -0.153 OA
BRANCH  18  21
ATOM     21  C   UNL     1      -0.194  -8.929   4.119  0.00  0.00    +0.123 A 
ATOM     22  C   UNL     1      -0.775  -9.683   3.120  0.00  0.00    +0.030 A 
ATOM     23  C   UNL     1      -0.040 -10.047   2.007  0.00  0.00    +0.002 A 
ATOM     24  C   UNL     1       1.283  -9.659   1.886  0.00  0.00    +0.001 A 
ATOM     25  C   UNL     1       1.877  -8.905   2.877  0.00  0.00    +0.021 A 
ATOM     26  C   UNL     1       1.138  -8.528   4.001  0.00  0.00    +0.078 A 
BRANCH  26  27
ATOM     27  C   UNL     1       1.746  -7.740   5.030  0.00  0.00    +0.101 C 
ATOM     28  N   UNL     1       2.228  -7.115   5.847  0.00  0.00    -0.191 NA
ENDBRANCH  26  27
ENDBRANCH  18  21
ENDBRANCH  15  18
BRANCH  12  29
ATOM     29  O   UNL     1      -4.049  -5.107   2.638  0.00  0.00    -0.434 OA
BRANCH  29  30
ATOM     30  C   UNL     1      -4.767  -4.629   1.587  0.00  0.00    +0.172 A 
ATOM     31  C   UNL     1      -4.144  -3.875   0.605  0.00  0.00    +0.050 A 
ATOM     32  C   UNL     1      -4.876  -3.390  -0.462  0.00  0.00    +0.004 A 
ATOM     33  C   UNL     1      -6.230  -3.655  -0.554  0.00  0.00    +0.004 A 
ATOM     34  C   UNL     1      -6.858  -4.407   0.422  0.00  0.00    +0.049 A 
ATOM     35  C   UNL     1      -6.129  -4.901   1.492  0.00  0.00    +0.162 A 
BRANCH  35  36
ATOM     36  O   UNL     1      -6.744  -5.644   2.450  0.00  0.00    -0.491 OA
ATOM     37  C   UNL     1      -8.144  -5.883   2.288  0.00  0.00    +0.277 C 
ENDBRANCH  35  36
ENDBRANCH  29  30
ENDBRANCH  12  29
TORSDOF 6
