REMARK  Name = ZINC14329037
REMARK  7 active torsions:
REMARK  status: ('A' for Active; 'I' for Inactive)
REMARK    1  A    between atoms: C_1  and  C_2
REMARK    2  A    between atoms: C_5  and  C_8
REMARK    3  A    between atoms: C_10  and  C_13
REMARK    4  A    between atoms: C_13  and  N_62
REMARK    5  A    between atoms: C_21  and  C_28
REMARK    6  A    between atoms: C_31  and  O_34
REMARK    7  A    between atoms: O_34  and  C_35
REMARK                            x       y       z     vdW  Elec       q    Type
REMARK                         _______ _______ _______ _____ _____    ______ ____
ROOT
ATOM      1  C   UNL     1      -3.435  -1.004  -0.534  0.00  0.00    -0.059 C 
ATOM      2  C   UNL     1      -2.164  -0.153  -0.582  0.00  0.00    +0.088 C 
ATOM      3  N   UNL     1      -0.989  -1.023  -0.432  0.00  0.00    -0.318 N 
ATOM      4  C   UNL     1      -0.942  -2.030  -1.501  0.00  0.00    +0.088 C 
ATOM      5  C   UNL     1      -2.213  -2.881  -1.453  0.00  0.00    -0.059 C 
ATOM      6  C   UNL     1       0.178  -0.280  -0.399  0.00  0.00    +0.133 A 
ATOM      7  C   UNL     1       1.100  -0.436   0.670  0.00  0.00    +0.055 A 
ATOM      8  C   UNL     1       1.033  -1.310   1.837  0.00  0.00    +0.002 A 
ATOM      9  C   UNL     1       2.049  -1.281   2.731  0.00  0.00    +0.056 A 
ATOM     10  S   UNL     1       3.164  -0.066   2.055  0.00  0.00    -0.076 S 
ATOM     11  C   UNL     1       2.253   0.372   0.599  0.00  0.00    +0.114 A 
ATOM     12  N   UNL     1       2.444   1.210  -0.402  0.00  0.00    -0.228 NA
ATOM     13  C   UNL     1       1.551   1.312  -1.367  0.00  0.00    +0.224 A 
ATOM     14  N   UNL     1       0.448   0.585  -1.364  0.00  0.00    -0.220 NA
ATOM     15  N   UNL     1      -3.385  -1.997  -1.627  0.00  0.00    +0.388 N 
ATOM     16  H   UNL     1      -3.300  -1.503  -2.523  0.00  0.00    -0.081 HD
ENDROOT
BRANCH   8  17
ATOM     17  C   UNL     1      -0.124  -2.214   2.038  0.00  0.00    -0.016 A 
ATOM     18  C   UNL     1      -1.417  -1.694   2.087  0.00  0.00    +0.012 A 
ATOM     19  C   UNL     1      -2.492  -2.538   2.269  0.00  0.00    +0.046 A 
ATOM     20  C   UNL     1      -2.288  -3.904   2.413  0.00  0.00    +0.120 A 
ATOM     21  C   UNL     1      -1.002  -4.424   2.370  0.00  0.00    +0.046 A 
ATOM     22  C   UNL     1       0.077  -3.586   2.183  0.00  0.00    +0.012 A 
BRANCH  20  23
ATOM     23  O   UNL     1      -3.349  -4.732   2.598  0.00  0.00    -0.495 OA
ATOM     24  C   UNL     1      -4.644  -4.130   2.632  0.00  0.00    +0.277 C 
ENDBRANCH  20  23
ENDBRANCH   8  17
BRANCH  15  25
ATOM     25  C   UNL     1      -4.627  -2.800  -1.638  0.00  0.00    +0.022 C 
BRANCH  25  28
ATOM     26  C   UNL     1      -4.417  -5.215  -4.292  0.00  0.00    +0.202 A 
ATOM     27  N   UNL     1      -4.178  -4.862  -3.009  0.00  0.00    -0.193 NA
ATOM     28  C   UNL     1      -4.649  -3.646  -2.885  0.00  0.00    +0.211 A 
ATOM     29  O   UNL     1      -5.157  -3.298  -4.071  0.00  0.00    -0.340 OA
ATOM     30  N   UNL     1      -5.013  -4.202  -4.867  0.00  0.00    -0.056 NA
BRANCH  26  35
ATOM     31  C   UNL     1      -3.058 -10.235  -6.767  0.00  0.00    +0.044 C 
ATOM     32  C   UNL     1      -3.414  -8.922  -6.119  0.00  0.00    -0.050 A 
ATOM     33  C   UNL     1      -4.049  -7.939  -6.857  0.00  0.00    +0.004 A 
ATOM     34  C   UNL     1      -4.376  -6.734  -6.269  0.00  0.00    +0.012 A 
ATOM     35  C   UNL     1      -4.067  -6.509  -4.930  0.00  0.00    +0.022 A 
ATOM     36  C   UNL     1      -3.424  -7.500  -4.192  0.00  0.00    +0.012 A 
ATOM     37  C   UNL     1      -3.104  -8.703  -4.789  0.00  0.00    +0.004 A 
ENDBRANCH  26  35
ENDBRANCH  25  28
ENDBRANCH  15  25
TORSDOF 5
