REMARK  Name = ZINC14924011
REMARK  7 active torsions:
REMARK  status: ('A' for Active; 'I' for Inactive)
REMARK    1  A    between atoms: C_1  and  C_2
REMARK    2  A    between atoms: C_2  and  C_4
REMARK    3  A    between atoms: C_2  and  N_18
REMARK    4  A    between atoms: N_6  and  C_7
REMARK    5  A    between atoms: C_8  and  C_15
REMARK    6  A    between atoms: N_21  and  C_24
REMARK    7  A    between atoms: C_29  and  N_30
REMARK                            x       y       z     vdW  Elec       q    Type
REMARK                         _______ _______ _______ _____ _____    ______ ____
ROOT
ATOM      1  C   UNL     1      -0.019   1.526   0.010  0.00  0.00    +0.034 C 
ATOM      2  C   UNL     1       0.002  -0.004   0.002  0.00  0.00    +0.140 C 
ENDROOT
BRANCH   2   3
ATOM      3  N   UNL     1      -1.376  -0.512   0.012  0.00  0.00    -0.289 NA
ATOM      4  C   UNL     1      -2.136   0.050   1.137  0.00  0.00    +0.104 C 
ATOM      5  C   UNL     1      -3.503  -0.638   1.220  0.00  0.00    +0.120 C 
ATOM      6  N   UNL     1      -4.161  -0.531  -0.091  0.00  0.00    -0.326 N 
ATOM      7  C   UNL     1      -3.408  -0.948  -1.284  0.00  0.00    +0.120 C 
ATOM      8  C   UNL     1      -2.045  -0.248  -1.268  0.00  0.00    +0.104 C 
BRANCH   6   9
ATOM      9  C   UNL     1      -5.466  -0.046  -0.201  0.00  0.00    +0.060 A 
ATOM     10  C   UNL     1      -5.691   1.313  -0.384  0.00  0.00    +0.025 A 
ATOM     11  C   UNL     1      -6.982   1.789  -0.492  0.00  0.00    +0.002 A 
ATOM     12  C   UNL     1      -8.052   0.915  -0.420  0.00  0.00    +0.002 A 
ATOM     13  C   UNL     1      -7.832  -0.438  -0.238  0.00  0.00    +0.034 A 
ATOM     14  C   UNL     1      -6.542  -0.922  -0.134  0.00  0.00    +0.147 A 
BRANCH  14  15
ATOM     15  N   UNL     1      -6.307  -2.371   0.055  0.00  0.00    +0.058 N 
ATOM     16  O   UNL     1      -7.244  -3.132   0.113  0.00  0.00    -0.126 OA
ATOM     17  O   UNL     1      -5.178  -2.792   0.150  0.00  0.00    -0.126 OA
ENDBRANCH  14  15
ENDBRANCH   6   9
ENDBRANCH   2   3
BRANCH   2  18
ATOM     18  C   UNL     1       0.731  -0.503   1.223  0.00  0.00    +0.235 C 
ATOM     19  O   UNL     1       0.159  -1.213   2.023  0.00  0.00    -0.274 OA
ATOM     20  N   UNL     1       2.019  -0.161   1.426  0.00  0.00    -0.278 N 
ATOM     21  H   UNL     1       2.476   0.406   0.786  0.00  0.00    +0.155 HD
BRANCH  20  22
ATOM     22  C   UNL     1       2.689  -0.621   2.549  0.00  0.00    +0.084 A 
ATOM     23  C   UNL     1       3.997  -0.370   2.920  0.00  0.00    +0.068 A 
ATOM     24  C   UNL     1       4.469  -0.977   4.163  0.00  0.00    -0.023 A 
ATOM     25  C   UNL     1       3.544  -1.720   4.797  0.00  0.00    -0.004 A 
ATOM     26  S   UNL     1       2.098  -1.602   3.774  0.00  0.00    -0.077 S 
ATOM     27  C   UNL     1       4.082  -2.325   6.065  0.00  0.00    +0.043 C 
ATOM     28  C   UNL     1       5.617  -2.210   5.932  0.00  0.00    +0.010 C 
ATOM     29  C   UNL     1       5.761  -1.007   4.978  0.00  0.00    +0.037 C 
BRANCH  23  30
ATOM     30  C   UNL     1       4.875   0.471   2.100  0.00  0.00    +0.244 C 
ATOM     31  O   UNL     1       4.925   1.671   2.296  0.00  0.00    -0.270 OA
ATOM     32  N   UNL     1       5.628  -0.086   1.130  0.00  0.00    -0.325 N 
ATOM     33  H   UNL     1       5.588  -1.042   0.975  0.00  0.00    +0.145 HD
ATOM     34  H   UNL     1       6.208   0.470   0.588  0.00  0.00    +0.145 HD
ENDBRANCH  23  30
ENDBRANCH  20  22
ENDBRANCH   2  18
TORSDOF 6
