REMARK  Name = ZINC24985905
REMARK  5 active torsions:
REMARK  status: ('A' for Active; 'I' for Inactive)
REMARK    1  A    between atoms: C_1  and  C_2
REMARK    2  A    between atoms: C_5  and  C_8
REMARK    3  A    between atoms: N_10  and  C_11
REMARK    4  A    between atoms: C_11  and  C_13
REMARK    5  A    between atoms: C_11  and  C_14
REMARK                            x       y       z     vdW  Elec       q    Type
REMARK                         _______ _______ _______ _____ _____    ______ ____
ROOT
ATOM      1  C   UNL     1       0.693  -6.900   2.421  0.00  0.00    +0.236 C 
ATOM      2  O   UNL     1       0.987  -6.119   3.302  0.00  0.00    -0.274 OA
ATOM      3  N   UNL     1       0.896  -8.221   2.596  0.00  0.00    -0.300 N 
ATOM      4  C   UNL     1       0.646  -9.168   1.502  0.00  0.00    +0.110 C 
ATOM      5  C   UNL     1      -0.307 -10.259   2.001  0.00  0.00    +0.047 C 
ATOM      6  C   UNL     1       0.271 -10.895   3.266  0.00  0.00    +0.064 C 
ATOM      7  C   UNL     1       0.411  -9.836   4.360  0.00  0.00    +0.047 C 
ATOM      8  C   UNL     1       1.377  -8.740   3.884  0.00  0.00    +0.110 C 
ATOM      9  C   UNL     1      -0.637 -11.999   3.739  0.00  0.00    +0.057 A 
ATOM     10  C   UNL     1      -0.374 -13.314   3.560  0.00  0.00    +0.039 A 
ATOM     11  N   UNL     1      -1.375 -14.012   4.097  0.00  0.00    -0.349 N 
ATOM     12  C   UNL     1      -2.252 -13.183   4.603  0.00  0.00    +0.171 A 
ATOM     13  N   UNL     1      -1.823 -11.915   4.397  0.00  0.00    -0.348 N 
ATOM     14  H   UNL     1      -2.276 -11.102   4.668  0.00  0.00    +0.166 HD
ATOM     15  C   UNL     1       0.863 -13.817   2.857  0.00  0.00    +0.070 C 
ATOM     16  C   UNL     1       1.478 -12.642   2.084  0.00  0.00    +0.088 C 
ATOM     17  N   UNL     1       1.591 -11.473   2.967  0.00  0.00    -0.305 NA
ATOM     18  H   UNL     1       2.208 -10.779   2.572  0.00  0.00    +0.123 HD
ATOM     19  H   UNL     1      -1.442 -14.979   4.110  0.00  0.00    +0.166 HD
ENDROOT
BRANCH   1  20
ATOM     20  C   UNL     1       0.101  -6.393   1.131  0.00  0.00    +0.156 C 
ATOM     21  C   UNL     1      -1.425  -6.479   1.202  0.00  0.00    +0.038 C 
BRANCH  20  24
ATOM     22  C   UNL     1       0.545  -4.489  -0.322  0.00  0.00    +0.245 C 
ATOM     23  O   UNL     1       0.250  -5.184  -1.274  0.00  0.00    -0.270 OA
ATOM     24  N   UNL     1       0.502  -5.000   0.924  0.00  0.00    -0.300 N 
ATOM     25  H   UNL     1       0.738  -4.444   1.684  0.00  0.00    +0.150 HD
BRANCH  22  30
ATOM     26  C   UNL     1       2.120   0.986  -1.135  0.00  0.00    +0.044 C 
ATOM     27  C   UNL     1       1.708  -0.447  -0.922  0.00  0.00    -0.050 A 
ATOM     28  C   UNL     1       1.373  -1.236  -2.008  0.00  0.00    +0.004 A 
ATOM     29  C   UNL     1       0.995  -2.550  -1.820  0.00  0.00    +0.013 A 
ATOM     30  C   UNL     1       0.950  -3.082  -0.531  0.00  0.00    +0.037 A 
ATOM     31  C   UNL     1       1.288  -2.281   0.561  0.00  0.00    +0.013 A 
ATOM     32  C   UNL     1       1.670  -0.971   0.358  0.00  0.00    +0.004 A 
ENDBRANCH  22  30
ENDBRANCH  20  24
ENDBRANCH   1  20
TORSDOF 3
