REMARK  Name = ZINC67081568
REMARK  5 active torsions:
REMARK  status: ('A' for Active; 'I' for Inactive)
REMARK    1  A    between atoms: C_1  and  C_2
REMARK    2  A    between atoms: C_3  and  C_7
REMARK    3  A    between atoms: N_9  and  C_10
REMARK    4  A    between atoms: N_18  and  C_19
REMARK    5  A    between atoms: C_19  and  C_20
REMARK                            x       y       z     vdW  Elec       q    Type
REMARK                         _______ _______ _______ _____ _____    ______ ____
ROOT
ATOM      1  C   UNL     1      -4.887  -0.927   0.025  0.00  0.00    +0.076 C 
ATOM      2  C   UNL     1      -5.337  -0.666   1.465  0.00  0.00    +0.041 C 
ATOM      3  C   UNL     1      -6.798  -0.207   1.464  0.00  0.00    +0.111 C 
ATOM      4  N   UNL     1      -7.607  -1.205   0.750  0.00  0.00    -0.286 N 
ATOM      5  C   UNL     1      -7.209  -1.596  -0.609  0.00  0.00    +0.111 C 
ATOM      6  C   UNL     1      -5.742  -2.039  -0.585  0.00  0.00    +0.041 C 
ATOM      7  C   UNL     1      -8.693  -1.752   1.331  0.00  0.00    +0.302 C 
ATOM      8  O   UNL     1      -8.958  -1.493   2.489  0.00  0.00    -0.253 OA
ATOM      9  N   UNL     1      -9.485  -2.586   0.629  0.00  0.00    -0.299 N 
ATOM     10  H   UNL     1      -9.236  -2.850  -0.270  0.00  0.00    +0.150 HD
ENDROOT
BRANCH   1  13
ATOM     11  C   UNL     1      -2.508  -0.400   0.019  0.00  0.00    +0.248 C 
ATOM     12  O   UNL     1      -2.800   0.781   0.023  0.00  0.00    -0.270 OA
ATOM     13  N   UNL     1      -3.480  -1.334   0.019  0.00  0.00    -0.308 N 
ATOM     14  H   UNL     1      -3.248  -2.276   0.016  0.00  0.00    +0.149 HD
BRANCH  11  17
ATOM     15  C   UNL     1      -0.021   1.512   0.015  0.00  0.00    +0.087 C 
ATOM     16  C   UNL     1       0.002   0.005   0.012  0.00  0.00    +0.114 A 
ATOM     17  C   UNL     1      -1.093  -0.810   0.013  0.00  0.00    +0.077 A 
ATOM     18  C   UNL     1      -0.564  -2.182   0.008  0.00  0.00    +0.054 A 
ATOM     19  C   UNL     1       0.772  -2.062   0.005  0.00  0.00    +0.196 A 
ATOM     20  O   UNL     1       1.097  -0.760   0.001  0.00  0.00    -0.467 OA
ENDBRANCH  11  17
ENDBRANCH   1  13
BRANCH   9  21
ATOM     21  C   UNL     1     -10.724  -3.094   1.224  0.00  0.00    +0.109 C 
BRANCH  21  22
ATOM     22  C   UNL     1     -11.430  -4.013   0.225  0.00  0.00    +0.010 C 
ATOM     23  C   UNL     1     -11.951  -3.198  -0.981  0.00  0.00    +0.009 C 
ATOM     24  C   UNL     1     -13.497  -3.401  -0.955  0.00  0.00    -0.010 C 
ATOM     25  C   UNL     1     -13.704  -4.885  -1.388  0.00  0.00    +0.004 C 
ATOM     26  C   UNL     1     -13.180  -5.716  -0.195  0.00  0.00    +0.004 C 
ATOM     27  C   UNL     1     -12.708  -4.633   0.867  0.00  0.00    -0.006 C 
ATOM     28  C   UNL     1     -13.752  -3.490   0.591  0.00  0.00    +0.007 C 
ENDBRANCH  21  22
ENDBRANCH   9  21
TORSDOF 4
