REMARK  Name = ZINC02358975
REMARK  7 active torsions:
REMARK  status: ('A' for Active; 'I' for Inactive)
REMARK    1  A    between atoms: C_1  and  C_2
REMARK    2  A    between atoms: C_9  and  N_30
REMARK    3  A    between atoms: C_10  and  C_13
REMARK    4  A    between atoms: N_17  and  C_21
REMARK    5  A    between atoms: C_21  and  C_22
REMARK    6  A    between atoms: C_25  and  O_28
REMARK    7  A    between atoms: O_28  and  C_29
REMARK                            x       y       z     vdW  Elec       q    Type
REMARK                         _______ _______ _______ _____ _____    ______ ____
ROOT
ATOM      1  C   UNL     1       3.423   1.356   0.366  0.00  0.00    +0.047 C 
ATOM      2  C   UNL     1       2.043   0.834   0.669  0.00  0.00    -0.007 A 
ATOM      3  C   UNL     1       1.873  -0.449   1.099  0.00  0.00    +0.008 A 
ATOM      4  C   UNL     1       0.583  -0.920   1.376  0.00  0.00    +0.019 A 
ATOM      5  C   UNL     1      -0.485  -0.106   1.217  0.00  0.00    +0.096 A 
ATOM      6  N   UNL     1      -0.326   1.177   0.787  0.00  0.00    -0.267 N 
ATOM      7  C   UNL     1       0.920   1.666   0.508  0.00  0.00    +0.145 A 
ATOM      8  N   UNL     1       1.095   2.918   0.086  0.00  0.00    -0.213 NA
ATOM      9  C   UNL     1       0.074   3.745  -0.083  0.00  0.00    +0.136 A 
ATOM     10  C   UNL     1      -1.240   3.295   0.191  0.00  0.00    +0.081 A 
ATOM     11  C   UNL     1      -1.415   1.962   0.633  0.00  0.00    +0.267 A 
ATOM     12  O   UNL     1      -2.529   1.531   0.876  0.00  0.00    -0.267 OA
ENDROOT
BRANCH  10  13
ATOM     13  C   UNL     1      -2.350   4.154   0.021  0.00  0.00    +0.037 C 
ATOM     14  C   UNL     1      -3.291   3.874  -0.928  0.00  0.00    +0.077 C 
ATOM     15  C   UNL     1      -3.305   2.845  -1.912  0.00  0.00    +0.259 C 
ATOM     16  O   UNL     1      -2.388   2.048  -1.999  0.00  0.00    -0.269 OA
ATOM     17  N   UNL     1      -4.343   2.779  -2.729  0.00  0.00    -0.251 N 
ATOM     18  C   UNL     1      -5.361   3.664  -2.632  0.00  0.00    +0.121 C 
ATOM     19  S   UNL     1      -6.787   3.765  -3.573  0.00  0.00    -0.027 S 
ATOM     20  S   UNL     1      -4.842   4.694  -1.268  0.00  0.00    -0.061 S 
BRANCH  17  21
ATOM     21  C   UNL     1      -4.390   1.733  -3.753  0.00  0.00    +0.150 C 
BRANCH  21  22
ATOM     22  C   UNL     1      -5.070   0.511  -3.191  0.00  0.00    -0.029 A 
ATOM     23  C   UNL     1      -4.322  -0.468  -2.563  0.00  0.00    +0.009 A 
ATOM     24  C   UNL     1      -4.944  -1.586  -2.042  0.00  0.00    +0.046 A 
ATOM     25  C   UNL     1      -6.318  -1.732  -2.160  0.00  0.00    +0.120 A 
ATOM     26  C   UNL     1      -7.066  -0.752  -2.796  0.00  0.00    +0.046 A 
ATOM     27  C   UNL     1      -6.440   0.367  -3.310  0.00  0.00    +0.009 A 
BRANCH  25  28
ATOM     28  O   UNL     1      -6.931  -2.834  -1.653  0.00  0.00    -0.495 OA
ATOM     29  C   UNL     1      -6.099  -3.803  -1.012  0.00  0.00    +0.277 C 
ENDBRANCH  25  28
ENDBRANCH  21  22
ENDBRANCH  17  21
ENDBRANCH  10  13
BRANCH   9  30
ATOM     30  N   UNL     1       0.289   5.033  -0.521  0.00  0.00    -0.310 N 
ATOM     31  C   UNL     1      -0.292   5.239  -1.856  0.00  0.00    +0.134 C 
ATOM     32  C   UNL     1      -0.084   6.696  -2.278  0.00  0.00    +0.178 C 
ATOM     33  O   UNL     1       1.313   7.002  -2.243  0.00  0.00    -0.377 OA
ATOM     34  C   UNL     1       1.911   6.812  -0.957  0.00  0.00    +0.178 C 
ATOM     35  C   UNL     1       1.723   5.357  -0.522  0.00  0.00    +0.134 C 
ENDBRANCH   9  30
TORSDOF 5
