REMARK  Name = ZINC34972237
REMARK  8 active torsions:
REMARK  status: ('A' for Active; 'I' for Inactive)
REMARK    1  A    between atoms: C_5  and  N_7
REMARK    2  A    between atoms: N_10  and  C_11
REMARK    3  A    between atoms: N_10  and  C_27
REMARK    4  A    between atoms: C_11  and  C_12
REMARK    5  A    between atoms: C_12  and  C_13
REMARK    6  A    between atoms: C_13  and  N_14
REMARK    7  A    between atoms: N_17  and  C_18
REMARK    8  A    between atoms: C_21  and  N_24
REMARK                            x       y       z     vdW  Elec       q    Type
REMARK                         _______ _______ _______ _____ _____    ______ ____
ROOT
ATOM      1  N   UNL     1      -1.086  -1.977  -0.070  0.00  0.00    -0.267 N 
ATOM      2  C   UNL     1       0.070  -2.667  -0.120  0.00  0.00    +0.311 C 
ATOM      3  O   UNL     1       1.133  -2.078  -0.077  0.00  0.00    -0.252 OA
ATOM      4  N   UNL     1       0.049  -4.011  -0.217  0.00  0.00    -0.255 N 
ATOM      5  H   UNL     1      -1.933  -2.449  -0.064  0.00  0.00    +0.156 HD
ENDROOT
BRANCH   1  10
ATOM      6  C   UNL     1       0.088   1.468   0.463  0.00  0.00    +0.002 A 
ATOM      7  C   UNL     1      -1.022   2.189   0.063  0.00  0.00    +0.003 A 
ATOM      8  C   UNL     1      -2.154   1.532  -0.382  0.00  0.00    +0.040 A 
ATOM      9  C   UNL     1      -2.179   0.150  -0.428  0.00  0.00    +0.145 A 
ATOM     10  C   UNL     1      -1.065  -0.577  -0.026  0.00  0.00    +0.070 A 
ATOM     11  C   UNL     1       0.070   0.087   0.420  0.00  0.00    +0.026 A 
ATOM     12  F   UNL     1      -3.286  -0.492  -0.862  0.00  0.00    -0.204 F 
ENDBRANCH   1  10
BRANCH   4  13
ATOM     13  C   UNL     1       1.246  -4.737  -0.160  0.00  0.00    +0.038 A 
ATOM     14  C   UNL     1       2.173  -4.629  -1.188  0.00  0.00    +0.026 A 
ATOM     15  C   UNL     1       3.353  -5.345  -1.130  0.00  0.00    +0.040 A 
ATOM     16  C   UNL     1       3.611  -6.169  -0.048  0.00  0.00    +0.124 A 
ATOM     17  C   UNL     1       2.687  -6.279   0.978  0.00  0.00    +0.040 A 
ATOM     18  C   UNL     1       1.509  -5.560   0.926  0.00  0.00    +0.026 A 
ATOM     19  F   UNL     1       4.766  -6.869   0.006  0.00  0.00    -0.205 F 
ENDBRANCH   4  13
BRANCH   4  20
ATOM     20  C   UNL     1      -1.226  -4.714  -0.382  0.00  0.00    +0.117 C 
BRANCH  20  21
ATOM     21  C   UNL     1      -1.541  -4.857  -1.872  0.00  0.00    +0.038 C 
BRANCH  21  22
ATOM     22  C   UNL     1      -2.873  -5.590  -2.044  0.00  0.00    +0.107 C 
BRANCH  22  23
ATOM     23  N   UNL     1      -3.174  -5.727  -3.471  0.00  0.00    -0.299 N 
ATOM     24  C   UNL     1      -4.305  -6.345  -3.865  0.00  0.00    +0.304 C 
ATOM     25  O   UNL     1      -5.075  -6.789  -3.035  0.00  0.00    -0.253 OA
ATOM     26  N   UNL     1      -4.582  -6.471  -5.178  0.00  0.00    -0.269 N 
ATOM     27  H   UNL     1      -2.559  -5.373  -4.133  0.00  0.00    +0.150 HD
ATOM     28  H   UNL     1      -3.940  -6.171  -5.840  0.00  0.00    +0.156 HD
BRANCH  26  29
ATOM     29  C   UNL     1      -5.796  -7.035  -5.585  0.00  0.00    +0.035 A 
ATOM     30  C   UNL     1      -5.862  -7.770  -6.762  0.00  0.00    +0.025 A 
ATOM     31  C   UNL     1      -7.062  -8.325  -7.162  0.00  0.00    +0.034 A 
ATOM     32  C   UNL     1      -8.197  -8.151  -6.391  0.00  0.00    +0.126 A 
ATOM     33  C   UNL     1      -8.135  -7.419  -5.219  0.00  0.00    +0.034 A 
ATOM     34  C   UNL     1      -6.937  -6.866  -4.811  0.00  0.00    +0.025 A 
BRANCH  32  35
ATOM     35  N   UNL     1      -9.481  -8.748  -6.822  0.00  0.00    +0.056 N 
ATOM     36  O   UNL     1      -9.537  -9.387  -7.847  0.00  0.00    -0.126 OA
ATOM     37  O   UNL     1     -10.474  -8.596  -6.150  0.00  0.00    -0.126 OA
ENDBRANCH  32  35
ENDBRANCH  26  29
ENDBRANCH  22  23
ENDBRANCH  21  22
ENDBRANCH  20  21
ENDBRANCH   4  20
TORSDOF 8
