REMARK  Name = ZINC10023425
REMARK  4 active torsions:
REMARK  status: ('A' for Active; 'I' for Inactive)
REMARK    1  A    between atoms: C_3  and  S_9
REMARK    2  A    between atoms: C_6  and  C_7
REMARK    3  A    between atoms: S_9  and  N_12
REMARK    4  A    between atoms: C_16  and  C_19
REMARK                            x       y       z     vdW  Elec       q    Type
REMARK                         _______ _______ _______ _____ _____    ______ ____
ROOT
ATOM      1  S   UNL     1       0.116   2.392   2.386  0.00  0.00    +0.061 S 
ATOM      2  O   UNL     1      -0.615   2.221   3.593  0.00  0.00    -0.153 OA
ATOM      3  O   UNL     1       1.482   2.021   2.265  0.00  0.00    -0.153 OA
ENDROOT
BRANCH   1   6
ATOM      4  C   UNL     1      -1.108   6.209   2.143  0.00  0.00    +0.021 A 
ATOM      5  C   UNL     1      -1.027   4.869   2.458  0.00  0.00    +0.030 A 
ATOM      6  C   UNL     1       0.021   4.104   1.978  0.00  0.00    +0.106 A 
ATOM      7  C   UNL     1       0.997   4.678   1.184  0.00  0.00    +0.030 A 
ATOM      8  C   UNL     1       0.926   6.016   0.856  0.00  0.00    +0.021 A 
ATOM      9  C   UNL     1      -0.129   6.794   1.337  0.00  0.00    +0.052 A 
BRANCH   9  10
ATOM     10  C   UNL     1      -0.206   8.185   1.006  0.00  0.00    +0.099 C 
ATOM     11  N   UNL     1      -0.268   9.288   0.743  0.00  0.00    -0.191 NA
ENDBRANCH   9  10
ENDBRANCH   1   6
BRANCH   1  12
ATOM     12  N   UNL     1      -0.706   1.562   1.213  0.00  0.00    -0.176 NA
ATOM     13  C   UNL     1      -0.013   1.086   0.008  0.00  0.00    +0.109 C 
ATOM     14  C   UNL     1      -0.759   1.596  -1.228  0.00  0.00    +0.018 C 
ATOM     15  C   UNL     1      -2.228   1.174  -1.143  0.00  0.00    +0.015 C 
ATOM     16  C   UNL     1      -2.868   1.797   0.099  0.00  0.00    +0.090 C 
ATOM     17  C   UNL     1      -2.146   1.289   1.351  0.00  0.00    +0.122 C 
BRANCH  16  18
ATOM     18  C   UNL     1      -4.323   1.407   0.164  0.00  0.00    +0.215 C 
ATOM     19  O   UNL     1      -4.742   0.787   1.118  0.00  0.00    -0.276 OA
ATOM     20  N   UNL     1      -5.157   1.748  -0.838  0.00  0.00    -0.329 N 
ATOM     21  H   UNL     1      -4.822   2.244  -1.601  0.00  0.00    +0.145 HD
ATOM     22  H   UNL     1      -6.093   1.497  -0.796  0.00  0.00    +0.145 HD
ENDBRANCH  16  18
ENDBRANCH   1  12
TORSDOF 4
