REMARK  Name = ZINC26038236
REMARK  7 active torsions:
REMARK  status: ('A' for Active; 'I' for Inactive)
REMARK    1  A    between atoms: C_1  and  C_2
REMARK    2  A    between atoms: C_2  and  C_20
REMARK    3  A    between atoms: N_5  and  C_9
REMARK    4  A    between atoms: C_9  and  C_10
REMARK    5  A    between atoms: C_10  and  O_11
REMARK    6  A    between atoms: O_11  and  C_12
REMARK    7  A    between atoms: C_23  and  N_26
REMARK                            x       y       z     vdW  Elec       q    Type
REMARK                         _______ _______ _______ _____ _____    ______ ____
ROOT
ATOM      1  C   UNL     1      -0.039  -0.533  -1.433  0.00  0.00    +0.047 C 
ATOM      2  C   UNL     1       0.002  -0.004   0.002  0.00  0.00    +0.135 C 
ATOM      3  C   UNL     1      -1.154  -0.558   0.811  0.00  0.00    +0.251 C 
ATOM      4  O   UNL     1      -2.337  -0.398   0.602  0.00  0.00    -0.272 OA
ATOM      5  N   UNL     1      -0.593  -1.264   1.812  0.00  0.00    -0.221 N 
ATOM      6  C   UNL     1       0.743  -1.234   1.749  0.00  0.00    +0.310 C 
ATOM      7  O   UNL     1       1.470  -1.797   2.544  0.00  0.00    -0.252 OA
ATOM      8  N   UNL     1       1.192  -0.510   0.708  0.00  0.00    -0.281 N 
ATOM      9  H   UNL     1       2.198  -0.262   0.337  0.00  0.00    +0.152 HD
ENDROOT
BRANCH   2  10
ATOM     10  C   UNL     1      -0.018   1.503   0.010  0.00  0.00    -0.015 A 
ATOM     11  C   UNL     1      -1.225   2.178   0.020  0.00  0.00    +0.008 A 
ATOM     12  C   UNL     1      -1.244   3.560   0.032  0.00  0.00    +0.033 A 
ATOM     13  C   UNL     1      -0.056   4.267   0.025  0.00  0.00    +0.126 A 
ATOM     14  C   UNL     1       1.151   3.592   0.010  0.00  0.00    +0.033 A 
ATOM     15  C   UNL     1       1.169   2.210   0.003  0.00  0.00    +0.008 A 
BRANCH  13  16
ATOM     16  N   UNL     1      -0.076   5.747   0.033  0.00  0.00    +0.056 N 
ATOM     17  O   UNL     1       0.971   6.370   0.027  0.00  0.00    -0.126 OA
ATOM     18  O   UNL     1      -1.139   6.342   0.045  0.00  0.00    -0.126 OA
ENDBRANCH  13  16
ENDBRANCH   2  10
BRANCH   5  19
ATOM     19  C   UNL     1      -1.352  -1.977   2.843  0.00  0.00    +0.159 C 
BRANCH  19  20
ATOM     20  C   UNL     1      -1.604  -1.044   4.028  0.00  0.00    +0.248 C 
BRANCH  20  21
ATOM     21  O   UNL     1      -2.447   0.034   3.616  0.00  0.00    -0.489 OA
BRANCH  21  22
ATOM     22  C   UNL     1      -2.770   0.960   4.557  0.00  0.00    +0.135 A 
ATOM     23  C   UNL     1      -2.286   0.834   5.850  0.00  0.00    +0.048 A 
ATOM     24  C   UNL     1      -2.615   1.776   6.805  0.00  0.00    +0.023 A 
ATOM     25  C   UNL     1      -3.428   2.846   6.472  0.00  0.00    +0.042 A 
ATOM     26  C   UNL     1      -3.912   2.974   5.183  0.00  0.00    +0.039 A 
ATOM     27  C   UNL     1      -3.581   2.036   4.223  0.00  0.00    +0.061 A 
ATOM     28 BR   UNL     1      -4.237   2.216   2.458  0.00  0.00    -0.046 Br
ATOM     29 CL   UNL     1      -3.840   4.029   7.675  0.00  0.00    -0.084 Cl
ENDBRANCH  21  22
ENDBRANCH  20  21
ENDBRANCH  19  20
ENDBRANCH   5  19
TORSDOF 6
