REMARK  Name = ZINC63348809
REMARK  9 active torsions:
REMARK  status: ('A' for Active; 'I' for Inactive)
REMARK    1  A    between atoms: C_1  and  C_2
REMARK    2  A    between atoms: C_2  and  C_3
REMARK    3  A    between atoms: C_3  and  S_4
REMARK    4  A    between atoms: S_4  and  C_5
REMARK    5  A    between atoms: C_10  and  N_15
REMARK    6  A    between atoms: C_16  and  C_18
REMARK    7  A    between atoms: C_18  and  N_19
REMARK    8  A    between atoms: N_28  and  C_33
REMARK    9  A    between atoms: N_31  and  C_32
REMARK                            x       y       z     vdW  Elec       q    Type
REMARK                         _______ _______ _______ _____ _____    ______ ____
ROOT
ATOM      1  N   UNL     1       2.724  -5.870  -7.172  0.00  0.00    -0.277 N 
ATOM      2  C   UNL     1       3.315  -5.996  -8.376  0.00  0.00    +0.233 C 
ATOM      3  O   UNL     1       4.461  -5.628  -8.531  0.00  0.00    -0.274 OA
ATOM      4  H   UNL     1       1.808  -6.164  -7.048  0.00  0.00    +0.152 HD
ENDROOT
BRANCH   1  10
ATOM      5  C   UNL     1       1.589  -2.718  -2.758  0.00  0.00    +0.010 A 
ATOM      6  C   UNL     1       2.071  -1.640  -3.618  0.00  0.00    +0.017 A 
ATOM      7  C   UNL     1       2.722  -1.903  -4.767  0.00  0.00    +0.028 A 
ATOM      8  C   UNL     1       2.952  -3.302  -5.161  0.00  0.00    +0.061 A 
ATOM      9  N   UNL     1       3.540  -3.832  -6.195  0.00  0.00    -0.348 N 
ATOM     10  C   UNL     1       3.465  -5.290  -6.049  0.00  0.00    +0.269 C 
ATOM     11  N   UNL     1       2.754  -5.545  -4.790  0.00  0.00    -0.348 N 
ATOM     12  C   UNL     1       2.453  -4.383  -4.269  0.00  0.00    +0.062 A 
ATOM     13  C   UNL     1       1.781  -4.026  -3.073  0.00  0.00    +0.042 A 
ATOM     14  H   UNL     1       3.952  -3.350  -6.929  0.00  0.00    +0.163 HD
ATOM     15  H   UNL     1       2.546  -6.414  -4.414  0.00  0.00    +0.163 HD
BRANCH   5  16
ATOM     16  S   UNL     1       0.743  -2.311  -1.267  0.00  0.00    -0.125 S 
BRANCH  16  17
ATOM     17  C   UNL     1       0.718  -0.497  -1.257  0.00  0.00    +0.074 C 
BRANCH  17  19
ATOM     18  C   UNL     1      -0.019   1.526   0.010  0.00  0.00    +0.004 C 
ATOM     19  C   UNL     1       0.002  -0.004   0.002  0.00  0.00    +0.008 C 
ENDBRANCH  17  19
ENDBRANCH  16  17
ENDBRANCH   5  16
ENDBRANCH   1  10
BRANCH   2  20
ATOM     20  C   UNL     1       2.553  -6.593  -9.531  0.00  0.00    +0.202 C 
BRANCH  20  21
ATOM     21  N   UNL     1       3.409  -6.619 -10.720  0.00  0.00    -0.298 N 
ATOM     22  C   UNL     1       3.566  -5.640 -11.699  0.00  0.00    +0.181 C 
ATOM     23  N   UNL     1       3.912  -6.146 -12.859  0.00  0.00    -0.252 NA
ATOM     24  C   UNL     1       3.977  -7.578 -12.694  0.00  0.00    +0.225 C 
ATOM     25  C   UNL     1       4.315  -7.675 -11.168  0.00  0.00    +0.204 C 
ATOM     26  C   UNL     1       4.035  -9.093 -10.796  0.00  0.00    +0.247 C 
ATOM     27  O   UNL     1       3.438  -9.396  -9.786  0.00  0.00    -0.273 OA
ATOM     28  N   UNL     1       4.503 -10.022 -11.680  0.00  0.00    -0.227 N 
ATOM     29  C   UNL     1       5.111  -9.661 -12.828  0.00  0.00    +0.312 C 
ATOM     30  O   UNL     1       5.842 -10.454 -13.387  0.00  0.00    -0.252 OA
ATOM     31  N   UNL     1       4.927  -8.420 -13.368  0.00  0.00    -0.264 N 
ATOM     32  C   UNL     1       5.657  -7.979 -14.560  0.00  0.00    +0.136 C 
ATOM     33  C   UNL     1       4.340 -11.445 -11.373  0.00  0.00    +0.143 C 
ENDBRANCH  20  21
ENDBRANCH   2  20
TORSDOF 6
