REMARK  Name = ZINC20258646
REMARK  9 active torsions:
REMARK  status: ('A' for Active; 'I' for Inactive)
REMARK    1  A    between atoms: C_1  and  O_2
REMARK    2  A    between atoms: O_2  and  C_3
REMARK    3  A    between atoms: C_6  and  C_20
REMARK    4  A    between atoms: C_8  and  C_9
REMARK    5  A    between atoms: C_9  and  O_10
REMARK    6  A    between atoms: O_10  and  C_11
REMARK    7  A    between atoms: C_16  and  C_17
REMARK    8  A    between atoms: N_21  and  N_22
REMARK    9  A    between atoms: C_23  and  C_25
REMARK                            x       y       z     vdW  Elec       q    Type
REMARK                         _______ _______ _______ _____ _____    ______ ____
ROOT
ATOM      1  C   UNL     1      -0.226   1.235   2.502  0.00  0.00    +0.127 A 
ATOM      2  C   UNL     1      -0.872   1.681   3.649  0.00  0.00    +0.046 A 
ATOM      3  C   UNL     1      -2.004   2.460   3.546  0.00  0.00    +0.013 A 
ATOM      4  C   UNL     1      -2.503   2.801   2.285  0.00  0.00    -0.005 A 
ATOM      5  C   UNL     1      -1.847   2.354   1.135  0.00  0.00    +0.020 A 
ATOM      6  C   UNL     1      -0.718   1.572   1.248  0.00  0.00    +0.032 A 
ENDROOT
BRANCH   1   8
ATOM      7  C   UNL     1       1.342   0.160   3.929  0.00  0.00    +0.277 C 
ATOM      8  O   UNL     1       0.890   0.468   2.609  0.00  0.00    -0.495 OA
ENDBRANCH   1   8
BRANCH   4   9
ATOM      9  C   UNL     1      -3.714   3.633   2.170  0.00  0.00    +0.138 C 
ATOM     10  N   UNL     1      -4.319   4.051   3.240  0.00  0.00    -0.187 NA
BRANCH  10  11
ATOM     11  N   UNL     1      -5.470   4.842   3.131  0.00  0.00    -0.203 N 
ATOM     12  C   UNL     1      -6.098   5.276   4.242  0.00  0.00    +0.263 C 
ATOM     13  O   UNL     1      -5.665   4.980   5.339  0.00  0.00    -0.268 OA
ATOM     14  H   UNL     1      -5.861   5.109   2.138  0.00  0.00    +0.178 HD
BRANCH  12  15
ATOM     15  C   UNL     1      -7.311   6.110   4.126  0.00  0.00    +0.038 A 
ATOM     16  C   UNL     1      -7.807   6.456   2.867  0.00  0.00    +0.014 A 
ATOM     17  C   UNL     1      -8.944   7.230   2.766  0.00  0.00    +0.016 A 
ATOM     18  C   UNL     1      -9.586   7.674   3.909  0.00  0.00    +0.018 A 
ATOM     19  C   UNL     1      -9.096   7.340   5.160  0.00  0.00    +0.016 A 
ATOM     20  C   UNL     1      -7.964   6.561   5.275  0.00  0.00    +0.014 A 
ATOM     21 BR   UNL     1     -11.140   8.742   3.761  0.00  0.00    -0.050 Br
ENDBRANCH  12  15
ENDBRANCH  10  11
ENDBRANCH   4   9
BRANCH   6  22
ATOM     22  C   UNL     1      -0.013   1.086   0.008  0.00  0.00    +0.268 C 
BRANCH  22  23
ATOM     23  O   UNL     1      -0.704   1.559  -1.150  0.00  0.00    -0.486 OA
BRANCH  23  24
ATOM     24  C   UNL     1      -0.195   1.208  -2.357  0.00  0.00    +0.133 A 
ATOM     25  C   UNL     1       0.950   0.429  -2.431  0.00  0.00    +0.046 A 
ATOM     26  C   UNL     1       1.463   0.067  -3.660  0.00  0.00    +0.004 A 
ATOM     27  C   UNL     1       0.848   0.489  -4.828  0.00  0.00    +0.001 A 
ATOM     28  C   UNL     1      -0.287   1.268  -4.774  0.00  0.00    +0.017 A 
ATOM     29  C   UNL     1      -0.820   1.636  -3.536  0.00  0.00    +0.078 A 
BRANCH  29  30
ATOM     30  C   UNL     1      -2.035   2.471  -3.470  0.00  0.00    +0.245 C 
ATOM     31  O   UNL     1      -2.496   2.790  -2.391  0.00  0.00    -0.270 OA
ATOM     32  N   UNL     1      -2.633   2.881  -4.606  0.00  0.00    -0.325 N 
ATOM     33  H   UNL     1      -3.539   3.503  -4.558  0.00  0.00    +0.145 HD
ATOM     34  H   UNL     1      -2.216   2.593  -5.582  0.00  0.00    +0.145 HD
ENDBRANCH  29  30
ENDBRANCH  23  24
ENDBRANCH  22  23
ENDBRANCH   6  22
TORSDOF 8
