REMARK  Name = ZINC06536575
REMARK  7 active torsions:
REMARK  status: ('A' for Active; 'I' for Inactive)
REMARK    1  A    between atoms: C_10  and  C_11
REMARK    2  A    between atoms: C_11  and  C_12
REMARK    3  A    between atoms: N_14  and  C_15
REMARK    4  A    between atoms: C_15  and  N_17
REMARK    5  A    between atoms: N_17  and  N_18
REMARK    6  A    between atoms: C_19  and  C_21
REMARK    7  A    between atoms: C_24  and  N_27
REMARK                            x       y       z     vdW  Elec       q    Type
REMARK                         _______ _______ _______ _____ _____    ______ ____
ROOT
ATOM      1  C   UNL     1       3.635  -4.865  -0.058  0.00  0.00    +0.153 C 
ATOM      2  S   UNL     1       3.667  -6.577  -0.067  0.00  0.00    -0.017 S 
ENDROOT
BRANCH   1   5
ATOM      3  C   UNL     1       5.968  -4.821  -0.080  0.00  0.00    +0.223 C 
ATOM      4  O   UNL     1       5.991  -6.034  -0.086  0.00  0.00    -0.275 OA
ATOM      5  N   UNL     1       4.789  -4.170  -0.066  0.00  0.00    -0.266 N 
ATOM      6  H   UNL     1       4.771  -3.200  -0.060  0.00  0.00    +0.157 HD
BRANCH   3   7
ATOM      7  C   UNL     1       7.259  -4.044  -0.089  0.00  0.00    +0.131 C 
BRANCH   7  17
ATOM      8  C   UNL     1       9.845  -6.589  -3.699  0.00  0.00    +0.001 A 
ATOM      9  C   UNL     1       8.768  -5.705  -3.704  0.00  0.00    +0.001 A 
ATOM     10  C   UNL     1       8.289  -5.178  -2.545  0.00  0.00    +0.009 A 
ATOM     11  C   UNL     1       8.885  -5.530  -1.322  0.00  0.00    -0.014 A 
ATOM     12  C   UNL     1       9.984  -6.426  -1.317  0.00  0.00    -0.018 A 
ATOM     13  C   UNL     1      10.450  -6.950  -2.535  0.00  0.00    +0.008 A 
ATOM     14  C   UNL     1      10.583  -6.775  -0.095  0.00  0.00    +0.008 A 
ATOM     15  C   UNL     1      10.104  -6.247   1.065  0.00  0.00    +0.001 A 
ATOM     16  C   UNL     1       9.027  -5.363   1.060  0.00  0.00    +0.005 A 
ATOM     17  C   UNL     1       8.423  -5.001  -0.105  0.00  0.00    -0.031 A 
ENDBRANCH   7  17
ENDBRANCH   3   7
ENDBRANCH   1   5
BRANCH   1  18
ATOM     18  N   UNL     1       2.455  -4.213  -0.043  0.00  0.00    -0.245 N 
ATOM     19  H   UNL     1       1.624  -4.714  -0.037  0.00  0.00    +0.172 HD
BRANCH  18  20
ATOM     20  N   UNL     1       2.429  -2.812  -0.036  0.00  0.00    -0.231 N 
ATOM     21  C   UNL     1       1.250  -2.160  -0.021  0.00  0.00    +0.260 C 
ATOM     22  O   UNL     1       0.208  -2.788  -0.014  0.00  0.00    -0.269 OA
ATOM     23  H   UNL     1       3.260  -2.312  -0.041  0.00  0.00    +0.173 HD
BRANCH  21  24
ATOM     24  C   UNL     1       1.222  -0.682  -0.013  0.00  0.00    +0.038 A 
ATOM     25  C   UNL     1       0.002  -0.004   0.002  0.00  0.00    +0.015 A 
ATOM     26  C   UNL     1      -0.017   1.375   0.010  0.00  0.00    +0.033 A 
ATOM     27  C   UNL     1       1.170   2.086   0.002  0.00  0.00    +0.126 A 
ATOM     28  C   UNL     1       2.383   1.420  -0.013  0.00  0.00    +0.033 A 
ATOM     29  C   UNL     1       2.416   0.041  -0.021  0.00  0.00    +0.015 A 
BRANCH  27  30
ATOM     30  N   UNL     1       1.143   3.566   0.010  0.00  0.00    +0.056 N 
ATOM     31  O   UNL     1       0.077   4.155   0.024  0.00  0.00    -0.126 OA
ATOM     32  O   UNL     1       2.186   4.195   0.004  0.00  0.00    -0.126 OA
ENDBRANCH  27  30
ENDBRANCH  21  24
ENDBRANCH  18  20
ENDBRANCH   1  18
TORSDOF 7
