REMARK  Name = ZINC31865540
REMARK  7 active torsions:
REMARK  status: ('A' for Active; 'I' for Inactive)
REMARK    1  A    between atoms: C_1  and  C_2
REMARK    2  A    between atoms: C_2  and  N_3
REMARK    3  A    between atoms: N_3  and  C_4
REMARK    4  A    between atoms: C_4  and  C_5
REMARK    5  A    between atoms: C_6  and  C_8
REMARK    6  A    between atoms: C_9  and  C_20
REMARK    7  A    between atoms: C_15  and  C_19
REMARK                            x       y       z     vdW  Elec       q    Type
REMARK                         _______ _______ _______ _____ _____    ______ ____
ROOT
ATOM      1  C   UNL     1      -1.358  -0.296  -2.600  0.00  0.00    +0.080 A 
ATOM      2  C   UNL     1      -2.102  -0.291  -3.743  0.00  0.00    -0.017 A 
ATOM      3  C   UNL     1      -3.456   0.049  -3.690  0.00  0.00    +0.076 A 
ATOM      4  C   UNL     1      -4.446   0.122  -4.789  0.00  0.00    +0.260 A 
ATOM      5  O   UNL     1      -4.127  -0.134  -5.936  0.00  0.00    -0.267 OA
ATOM      6  N   UNL     1      -5.710   0.478  -4.486  0.00  0.00    -0.311 N 
ATOM      7  H   UNL     1      -6.371   0.530  -5.194  0.00  0.00    +0.170 HD
ATOM      8  C   UNL     1      -6.077   0.764  -3.213  0.00  0.00    +0.108 A 
ATOM      9  N   UNL     1      -5.229   0.710  -2.221  0.00  0.00    -0.227 NA
ATOM     10  C   UNL     1      -3.960   0.369  -2.409  0.00  0.00    +0.116 A 
ATOM     11  S   UNL     1      -2.545   0.179  -1.355  0.00  0.00    -0.064 S 
ATOM     12  C   UNL     1      -7.505   1.157  -2.933  0.00  0.00    +0.086 C 
ATOM     13  C   UNL     1      -1.464  -0.649  -5.061  0.00  0.00    +0.046 C 
ENDROOT
BRANCH   1  15
ATOM     14  N   UNL     1       0.649  -0.480  -1.228  0.00  0.00    -0.298 N 
ATOM     15  C   UNL     1       0.062  -0.619  -2.434  0.00  0.00    +0.254 C 
ATOM     16  O   UNL     1       0.712  -1.012  -3.385  0.00  0.00    -0.269 OA
BRANCH  14  18
ATOM     17  C   UNL     1       2.365  -2.124  -0.650  0.00  0.00    +0.024 C 
ATOM     18  C   UNL     1       2.093  -0.684  -1.089  0.00  0.00    +0.105 C 
ENDBRANCH  14  18
BRANCH  14  19
ATOM     19  C   UNL     1      -0.158  -0.127  -0.058  0.00  0.00    +0.105 C 
ATOM     20  C   UNL     1      -0.341   1.391  -0.004  0.00  0.00    +0.024 C 
ENDBRANCH  14  19
ENDBRANCH   1  15
TORSDOF 3
