REMARK  Name = ZINC02657267
REMARK  7 active torsions:
REMARK  status: ('A' for Active; 'I' for Inactive)
REMARK    1  A    between atoms: C_1  and  C_2
REMARK    2  A    between atoms: C_5  and  N_8
REMARK    3  A    between atoms: C_11  and  C_14
REMARK    4  A    between atoms: C_14  and  O_15
REMARK    5  A    between atoms: O_15  and  C_16
REMARK    6  A    between atoms: C_16  and  C_18
REMARK    7  A    between atoms: C_18  and  C_19
REMARK                            x       y       z     vdW  Elec       q    Type
REMARK                         _______ _______ _______ _____ _____    ______ ____
ROOT
ATOM      1  O   UNL     1       1.751   2.603  -3.766  0.00  0.00    -0.458 OA
ENDROOT
BRANCH   1   2
ATOM      2  C   UNL     1       1.275   2.486  -2.517  0.00  0.00    +0.309 C 
ATOM      3  O   UNL     1       0.310   3.128  -2.175  0.00  0.00    -0.251 OA
BRANCH   2   4
ATOM      4  C   UNL     1       1.946   1.556  -1.539  0.00  0.00    +0.144 C 
BRANCH   4   5
ATOM      5  C   UNL     1       1.212   1.610  -0.198  0.00  0.00    +0.148 C 
ATOM      6  C   UNL     1       1.936   0.755   0.810  0.00  0.00    +0.231 C 
ATOM      7  O   UNL     1       2.689   1.297   1.591  0.00  0.00    -0.274 OA
ATOM      8  N   UNL     1       1.788  -0.563   0.885  0.00  0.00    -0.284 N 
ATOM      9  C   UNL     1       0.891  -1.340   0.159  0.00  0.00    +0.047 A 
ATOM     10  C   UNL     1       1.092  -2.715   0.080  0.00  0.00    +0.024 A 
ATOM     11  C   UNL     1       0.222  -3.506  -0.643  0.00  0.00    +0.002 A 
ATOM     12  C   UNL     1      -0.859  -2.943  -1.297  0.00  0.00    +0.001 A 
ATOM     13  C   UNL     1      -1.074  -1.579  -1.225  0.00  0.00    +0.016 A 
ATOM     14  C   UNL     1      -0.205  -0.781  -0.499  0.00  0.00    +0.030 A 
ATOM     15  S   UNL     1      -0.476   0.961  -0.397  0.00  0.00    -0.110 S 
ATOM     16  H   UNL     1       2.364  -1.031   1.510  0.00  0.00    +0.155 HD
ENDBRANCH   4   5
ENDBRANCH   2   4
ENDBRANCH   1   2
BRANCH   1  17
ATOM     17  C   UNL     1       1.055   3.518  -4.653  0.00  0.00    +0.288 C 
BRANCH  17  21
ATOM     18  N   UNL     1       1.518   5.007  -9.300  0.00  0.00    -0.294 N 
ATOM     19  C   UNL     1       1.855   4.281  -8.167  0.00  0.00    +0.163 A 
ATOM     20  N   UNL     1       1.273   4.276  -6.983  0.00  0.00    -0.226 NA
ATOM     21  C   UNL     1       1.727   3.518  -6.003  0.00  0.00    +0.088 A 
ATOM     22  C   UNL     1       2.813   2.743  -6.236  0.00  0.00    +0.075 A 
ATOM     23  S   UNL     1       3.151   3.148  -7.943  0.00  0.00    -0.060 S 
ATOM     24  H   UNL     1       0.817   5.676  -9.256  0.00  0.00    +0.154 HD
BRANCH  18  29
ATOM     25  C   UNL     1       4.240   4.064 -14.185  0.00  0.00    +0.044 C 
ATOM     26  C   UNL     1       3.516   4.314 -12.887  0.00  0.00    -0.050 A 
ATOM     27  C   UNL     1       3.294   3.270 -12.008  0.00  0.00    +0.005 A 
ATOM     28  C   UNL     1       2.631   3.496 -10.818  0.00  0.00    +0.023 A 
ATOM     29  C   UNL     1       2.188   4.775 -10.503  0.00  0.00    +0.033 A 
ATOM     30  C   UNL     1       2.409   5.821 -11.391  0.00  0.00    +0.023 A 
ATOM     31  C   UNL     1       3.077   5.588 -12.577  0.00  0.00    +0.005 A 
ENDBRANCH  18  29
ENDBRANCH  17  21
ENDBRANCH   1  17
TORSDOF 6
