REMARK  Name = ZINC27498455
REMARK  9 active torsions:
REMARK  status: ('A' for Active; 'I' for Inactive)
REMARK    1  A    between atoms: C_1  and  C_2
REMARK    2  A    between atoms: N_4  and  C_5
REMARK    3  A    between atoms: C_5  and  C_7
REMARK    4  A    between atoms: C_5  and  C_18
REMARK    5  A    between atoms: C_7  and  C_8
REMARK    6  A    between atoms: N_20  and  C_21
REMARK    7  A    between atoms: C_21  and  C_22
REMARK    8  A    between atoms: C_22  and  C_24
REMARK    9  A    between atoms: C_22  and  N_29
REMARK                            x       y       z     vdW  Elec       q    Type
REMARK                         _______ _______ _______ _____ _____    ______ ____
ROOT
ATOM      1  C   UNL     1       1.072  -2.876   0.412  0.00  0.00    +0.234 C 
ATOM      2  O   UNL     1       1.626  -2.361   1.360  0.00  0.00    -0.274 OA
ATOM      3  N   UNL     1       1.595  -3.980  -0.157  0.00  0.00    -0.315 N 
ATOM      4  H   UNL     1       1.093  -4.447  -1.016  0.00  0.00    +0.149 HD
ENDROOT
BRANCH   1   5
ATOM      5  C   UNL     1      -0.203  -2.282  -0.130  0.00  0.00    +0.163 C 
BRANCH   5   9
ATOM      6  C   UNL     1      -0.461   0.847   2.061  0.00  0.00    +0.109 C 
ATOM      7  C   UNL     1      -0.347  -0.589   1.617  0.00  0.00    +0.211 C 
ATOM      8  O   UNL     1      -0.287  -1.476   2.441  0.00  0.00    -0.276 OA
ATOM      9  N   UNL     1      -0.313  -0.886   0.303  0.00  0.00    -0.304 N 
ATOM     10  H   UNL     1      -0.368  -0.082  -0.445  0.00  0.00    +0.149 HD
ENDBRANCH   5   9
BRANCH   5  11
ATOM     11  C   UNL     1      -1.400  -3.075   0.398  0.00  0.00    +0.069 C 
BRANCH  11  12
ATOM     12  C   UNL     1      -2.664  -2.559  -0.239  0.00  0.00    -0.020 A 
ATOM     13  C   UNL     1      -3.503  -1.647   0.276  0.00  0.00    +0.087 A 
ATOM     14  N   UNL     1      -4.542  -1.427  -0.587  0.00  0.00    -0.360 N 
ATOM     15  H   UNL     1      -5.326  -0.700  -0.330  0.00  0.00    +0.165 HD
ATOM     16  C   UNL     1      -4.397  -2.220  -1.704  0.00  0.00    +0.047 A 
ATOM     17  C   UNL     1      -3.215  -2.964  -1.535  0.00  0.00    +0.003 A 
ATOM     18  C   UNL     1      -2.811  -3.863  -2.523  0.00  0.00    +0.010 A 
ATOM     19  C   UNL     1      -3.566  -4.016  -3.651  0.00  0.00    +0.001 A 
ATOM     20  C   UNL     1      -4.733  -3.285  -3.823  0.00  0.00    +0.002 A 
ATOM     21  C   UNL     1      -5.151  -2.392  -2.860  0.00  0.00    +0.026 A 
ENDBRANCH  11  12
ENDBRANCH   5  11
ENDBRANCH   1   5
BRANCH   3  22
ATOM     22  C   UNL     1       2.834  -4.558   0.370  0.00  0.00    +0.096 C 
BRANCH  22  23
ATOM     23  C   UNL     1       3.209  -5.795  -0.450  0.00  0.00    +0.016 C 
BRANCH  23  24
ATOM     24  N   UNL     1       2.081  -6.736  -0.458  0.00  0.00    +0.387 N 
ATOM     25  C   UNL     1       1.689  -7.100   0.909  0.00  0.00    -0.078 C 
ATOM     26  C   UNL     1       0.425  -7.962   0.867  0.00  0.00    -0.019 C 
ATOM     27  C   UNL     1       0.701  -9.223   0.043  0.00  0.00    -0.004 C 
ATOM     28  C   UNL     1       1.154  -8.816  -1.362  0.00  0.00    -0.019 C 
ATOM     29  C   UNL     1       2.397  -7.928  -1.255  0.00  0.00    -0.078 C 
ATOM     30  H   UNL     1       1.224  -6.235  -0.931  0.00  0.00    -0.081 HD
ENDBRANCH  23  24
BRANCH  23  31
ATOM     31  C   UNL     1       4.413  -6.460   0.166  0.00  0.00    +0.093 A 
ATOM     32  C   UNL     1       5.658  -6.460  -0.344  0.00  0.00    +0.043 A 
ATOM     33  C   UNL     1       6.468  -7.193   0.554  0.00  0.00    +0.041 A 
ATOM     34  C   UNL     1       5.668  -7.605   1.554  0.00  0.00    +0.195 A 
ATOM     35  O   UNL     1       4.424  -7.157   1.313  0.00  0.00    -0.469 OA
ENDBRANCH  23  31
ENDBRANCH  22  23
ENDBRANCH   3  22
TORSDOF 8
