REMARK  Name = ZINC43221483
REMARK  9 active torsions:
REMARK  status: ('A' for Active; 'I' for Inactive)
REMARK    1  A    between atoms: C_1  and  C_2
REMARK    2  A    between atoms: C_7  and  N_8
REMARK    3  A    between atoms: C_13  and  C_35
REMARK    4  A    between atoms: C_16  and  C_21
REMARK    5  A    between atoms: C_16  and  C_32
REMARK    6  A    between atoms: C_21  and  C_22
REMARK    7  A    between atoms: C_37  and  C_43
REMARK    8  A    between atoms: C_38  and  O_42
REMARK    9  A    between atoms: C_39  and  C_41
REMARK                            x       y       z     vdW  Elec       q    Type
REMARK                         _______ _______ _______ _____ _____    ______ ____
ROOT
ATOM      1  N   UNL     1       0.169  -0.072   2.400  0.00  0.00    -0.210 N 
ATOM      2  C   UNL     1      -1.003   0.254   3.037  0.00  0.00    +0.229 C 
ATOM      3  O   UNL     1      -2.114  -0.173   2.807  0.00  0.00    -0.275 OA
ATOM      4  C   UNL     1      -0.617   1.218   4.041  0.00  0.00    +0.077 C 
ATOM      5  C   UNL     1      -1.123   1.813   5.286  0.00  0.00    -0.027 C 
ATOM      6  N   UNL     1       0.097   2.390   5.942  0.00  0.00    +0.396 N 
ATOM      7  C   UNL     1       1.283   1.999   5.113  0.00  0.00    +0.052 C 
ATOM      8  C   UNL     1       0.806   0.680   4.470  0.00  0.00    +0.086 C 
ATOM      9  C   UNL     1       1.275   0.357   3.078  0.00  0.00    +0.229 C 
ATOM     10  O   UNL     1       2.403   0.458   2.646  0.00  0.00    -0.275 OA
ATOM     11  H   UNL     1       0.022   3.396   5.980  0.00  0.00    -0.083 HD
ATOM     12  H   UNL     1       0.193   2.017   6.875  0.00  0.00    -0.083 HD
ENDROOT
BRANCH   5  13
ATOM     13  C   UNL     1      -1.745   0.756   6.161  0.00  0.00    -0.060 A 
ATOM     14  C   UNL     1      -0.941  -0.058   6.937  0.00  0.00    +0.009 A 
ATOM     15  C   UNL     1      -1.509  -1.029   7.740  0.00  0.00    -0.009 A 
ATOM     16  C   UNL     1      -2.887  -1.185   7.767  0.00  0.00    +0.123 A 
ATOM     17  C   UNL     1      -3.692  -0.367   6.987  0.00  0.00    -0.009 A 
ATOM     18  C   UNL     1      -3.119   0.605   6.190  0.00  0.00    +0.009 A 
ATOM     19  C   UNL     1      -5.189  -0.534   7.014  0.00  0.00    +0.047 C 
ATOM     20  C   UNL     1      -0.632  -1.916   8.585  0.00  0.00    +0.047 C 
BRANCH  16  21
ATOM     21  O   UNL     1      -3.449  -2.139   8.555  0.00  0.00    -0.506 OA
ATOM     22  H   UNL     1      -3.664  -1.835   9.448  0.00  0.00    +0.292 HD
ENDBRANCH  16  21
ENDBRANCH   5  13
BRANCH   1  29
ATOM     23  C   UNL     1       0.154   1.422  -0.022  0.00  0.00    +0.045 C 
ATOM     24  C   UNL     1       0.220  -0.083  -0.016  0.00  0.00    -0.029 A 
ATOM     25  C   UNL     1       0.281  -0.777  -1.209  0.00  0.00    +0.005 A 
ATOM     26  C   UNL     1       0.341  -2.159  -1.204  0.00  0.00    +0.000 A 
ATOM     27  C   UNL     1       0.341  -2.849  -0.006  0.00  0.00    +0.002 A 
ATOM     28  C   UNL     1       0.281  -2.161   1.189  0.00  0.00    +0.024 A 
ATOM     29  C   UNL     1       0.225  -0.774   1.188  0.00  0.00    +0.047 A 
ENDBRANCH   1  29
BRANCH   7  30
ATOM     30  C   UNL     1       2.487   1.754   5.986  0.00  0.00    +0.347 C 
ATOM     31  O   UNL     1       2.407   1.909   7.192  0.00  0.00    -0.248 OA
ATOM     32  O   UNL     1       3.541   1.399   5.485  0.00  0.00    -0.248 OA
ENDBRANCH   7  30
BRANCH   7  33
ATOM     33  C   UNL     1       1.584   3.067   4.059  0.00  0.00    +0.037 C 
BRANCH  33  34
ATOM     34  C   UNL     1       1.819   4.391   4.739  0.00  0.00    -0.023 A 
ATOM     35  C   UNL     1       0.907   5.354   4.948  0.00  0.00    +0.087 A 
ATOM     36  N   UNL     1       1.485   6.412   5.594  0.00  0.00    -0.360 N 
ATOM     37  H   UNL     1       1.026   7.227   5.852  0.00  0.00    +0.165 HD
ATOM     38  C   UNL     1       2.817   6.150   5.823  0.00  0.00    +0.047 A 
ATOM     39  C   UNL     1       3.083   4.869   5.303  0.00  0.00    +0.003 A 
ATOM     40  C   UNL     1       4.367   4.331   5.400  0.00  0.00    +0.010 A 
ATOM     41  C   UNL     1       5.361   5.051   6.003  0.00  0.00    +0.001 A 
ATOM     42  C   UNL     1       5.103   6.312   6.520  0.00  0.00    +0.002 A 
ATOM     43  C   UNL     1       3.845   6.866   6.428  0.00  0.00    +0.026 A 
ENDBRANCH  33  34
ENDBRANCH   7  33
TORSDOF 6
