REMARK  Name = ZINC55185702
REMARK  1 active torsions:
REMARK  status: ('A' for Active; 'I' for Inactive)
REMARK    1  A    between atoms: C_2  and  C_7
REMARK                            x       y       z     vdW  Elec       q    Type
REMARK                         _______ _______ _______ _____ _____    ______ ____
ROOT
ATOM      1  C   UNL     1       1.800   3.450   0.003  0.00  0.00    +0.266 C 
ATOM      2  O   UNL     1       1.413   2.305   0.140  0.00  0.00    -0.268 OA
ATOM      3  N   UNL     1       3.119   3.705  -0.110  0.00  0.00    -0.296 N 
ATOM      4  C   UNL     1       4.087   2.608  -0.242  0.00  0.00    +0.108 C 
ATOM      5  C   UNL     1       5.159   2.765   0.840  0.00  0.00    +0.023 C 
ATOM      6  C   UNL     1       5.779   4.162   0.741  0.00  0.00    -0.005 C 
ATOM      7  C   UNL     1       6.871   4.304   1.804  0.00  0.00    +0.004 C 
ATOM      8  C   UNL     1       7.493   5.699   1.716  0.00  0.00    +0.000 C 
ATOM      9  C   UNL     1       6.410   6.753   1.956  0.00  0.00    +0.000 C 
ATOM     10  C   UNL     1       5.321   6.615   0.892  0.00  0.00    +0.005 C 
ATOM     11  C   UNL     1       4.697   5.219   0.972  0.00  0.00    +0.010 C 
ATOM     12  C   UNL     1       3.617   5.087  -0.110  0.00  0.00    +0.112 C 
ENDROOT
BRANCH   1  14
ATOM     13  C   UNL     1      -0.491   4.335   0.260  0.00  0.00    +0.081 A 
ATOM     14  C   UNL     1       0.830   4.555  -0.040  0.00  0.00    +0.135 A 
ATOM     15  N   UNL     1       1.222   5.788  -0.370  0.00  0.00    -0.221 NA
ATOM     16  C   UNL     1       0.365   6.788  -0.412  0.00  0.00    +0.156 A 
ATOM     17  S   UNL     1      -1.160   5.979   0.049  0.00  0.00    -0.060 S 
ATOM     18  N   UNL     1       0.588   8.117  -0.730  0.00  0.00    -0.338 N 
ATOM     19  H   UNL     1       1.480   8.417  -0.963  0.00  0.00    +0.144 HD
ATOM     20  H   UNL     1      -0.149   8.749  -0.719  0.00  0.00    +0.144 HD
ENDBRANCH   1  14
TORSDOF 1
