REMARK  Name = ZINC04236631
REMARK  13 active torsions:
REMARK  status: ('A' for Active; 'I' for Inactive)
REMARK    1  A    between atoms: C_1  and  C_2
REMARK    2  A    between atoms: C_8  and  C_10
REMARK    3  A    between atoms: C_10  and  C_11
REMARK    4  A    between atoms: C_13  and  O_36
REMARK    5  A    between atoms: C_19  and  C_35
REMARK    6  A    between atoms: C_22  and  O_28
REMARK    7  A    between atoms: C_24  and  C_25
REMARK    8  A    between atoms: C_24  and  C_26
REMARK    9  A    between atoms: C_26  and  O_27
REMARK   10  A    between atoms: O_28  and  C_29
REMARK   11  A    between atoms: N_31  and  C_32
REMARK   12  A    between atoms: C_32  and  C_33
REMARK   13  A    between atoms: C_32  and  C_34
REMARK                            x       y       z     vdW  Elec       q    Type
REMARK                         _______ _______ _______ _____ _____    ______ ____
ROOT
ATOM      1  C   UNL     1      -5.924  -2.068   5.938  0.00  0.00    +0.032 C 
ATOM      2  C   UNL     1      -5.346  -0.697   6.291  0.00  0.00    +0.119 C 
ATOM      3  C   UNL     1      -6.063   0.384   5.480  0.00  0.00    +0.032 C 
ATOM      4  C   UNL     1      -5.865   0.117   3.987  0.00  0.00    +0.007 C 
ATOM      5  C   UNL     1      -6.444  -1.255   3.633  0.00  0.00    +0.007 C 
ATOM      6  C   UNL     1      -5.726  -2.336   4.444  0.00  0.00    -0.023 C 
ATOM      7  C   UNL     1      -4.232  -2.313   4.116  0.00  0.00    +0.011 C 
ATOM      8  C   UNL     1      -4.034  -2.580   2.623  0.00  0.00    +0.046 C 
ATOM      9  C   UNL     1      -4.752  -1.500   1.811  0.00  0.00    +0.186 C 
ATOM     10  C   UNL     1      -6.246  -1.522   2.140  0.00  0.00    +0.031 C 
ATOM     11  C   UNL     1      -6.963  -0.442   1.329  0.00  0.00    +0.017 C 
ATOM     12  C   UNL     1      -6.305  -3.707   4.091  0.00  0.00    +0.012 C 
ENDROOT
BRANCH   2  13
ATOM     13  O   UNL     1      -5.530  -0.447   7.686  0.00  0.00    -0.391 OA
ATOM     14  H   UNL     1      -5.186   0.407   7.982  0.00  0.00    +0.210 HD
ENDBRANCH   2  13
BRANCH   1  15
ATOM     15  C   UNL     1      -7.418  -2.091   6.266  0.00  0.00    +0.102 C 
BRANCH  15  23
ATOM     16  C   UNL     1     -12.019   0.278   9.831  0.00  0.00    +0.007 C 
ATOM     17  C   UNL     1     -11.169  -0.909   9.373  0.00  0.00    -0.011 C 
ATOM     18  C   UNL     1      -9.870  -0.947  10.182  0.00  0.00    +0.022 C 
ATOM     19  C   UNL     1      -9.037  -2.157   9.745  0.00  0.00    +0.108 C 
ATOM     20  N   UNL     1      -8.841  -2.095   8.290  0.00  0.00    -0.301 N 
ATOM     21  C   UNL     1     -10.020  -1.959   7.423  0.00  0.00    +0.108 C 
ATOM     22  C   UNL     1     -10.842  -0.758   7.886  0.00  0.00    +0.022 C 
ATOM     23  C   UNL     1      -7.603  -2.156   7.761  0.00  0.00    +0.216 C 
ATOM     24  O   UNL     1      -6.638  -2.263   8.487  0.00  0.00    -0.276 OA
ENDBRANCH  15  23
ENDBRANCH   1  15
BRANCH  10  25
ATOM     25  C   UNL     1      -6.825  -2.894   1.786  0.00  0.00    +0.166 C 
BRANCH  25  26
ATOM     26  O   UNL     1      -6.797  -3.071   0.369  0.00  0.00    -0.394 OA
ATOM     27  H   UNL     1      -7.150  -3.921   0.072  0.00  0.00    +0.209 HD
ENDBRANCH  25  26
ENDBRANCH  10  25
BRANCH   9  28
ATOM     28  O   UNL     1      -4.564  -1.753   0.394  0.00  0.00    -0.446 OA
BRANCH  28  29
ATOM     29  C   UNL     1      -3.489  -1.191  -0.191  0.00  0.00    +0.401 C 
ATOM     30  O   UNL     1      -2.729  -0.506   0.466  0.00  0.00    -0.226 OA
ATOM     31  N   UNL     1      -3.257  -1.387  -1.504  0.00  0.00    -0.279 N 
ATOM     32  H   UNL     1      -3.863  -1.933  -2.027  0.00  0.00    +0.152 HD
BRANCH  31  33
ATOM     33  C   UNL     1      -2.088  -0.774  -2.140  0.00  0.00    +0.070 C 
ATOM     34  C   UNL     1      -2.428   0.656  -2.564  0.00  0.00    +0.027 C 
ATOM     35  C   UNL     1      -1.691  -1.591  -3.372  0.00  0.00    +0.027 C 
ENDBRANCH  31  33
ENDBRANCH  28  29
ENDBRANCH   9  28
TORSDOF 8
