REMARK  Name = ZINC20929061
REMARK  7 active torsions:
REMARK  status: ('A' for Active; 'I' for Inactive)
REMARK    1  A    between atoms: C_1  and  C_2
REMARK    2  A    between atoms: C_5  and  S_8
REMARK    3  A    between atoms: S_8  and  N_11
REMARK    4  A    between atoms: N_15  and  C_27
REMARK    5  A    between atoms: C_16  and  C_18
REMARK    6  A    between atoms: C_16  and  C_19
REMARK    7  A    between atoms: N_21  and  C_22
REMARK                            x       y       z     vdW  Elec       q    Type
REMARK                         _______ _______ _______ _____ _____    ______ ____
ROOT
ATOM      1  N   UNL     1      -1.575  -4.011   0.801  0.00  0.00    -0.165 NA
ATOM      2  C   UNL     1      -1.994  -3.973  -0.608  0.00  0.00    +0.205 C 
ATOM      3  C   UNL     1      -3.493  -4.085  -0.674  0.00  0.00    +0.236 C 
ATOM      4  O   UNL     1      -4.045  -3.839  -1.726  0.00  0.00    -0.274 OA
ATOM      5  N   UNL     1      -4.242  -4.440   0.370  0.00  0.00    -0.255 N 
ATOM      6  C   UNL     1      -3.730  -4.676   1.713  0.00  0.00    +0.129 C 
ATOM      7  C   UNL     1      -2.230  -5.000   1.674  0.00  0.00    +0.145 C 
ATOM      8  C   UNL     1      -3.955  -3.425   2.564  0.00  0.00    +0.043 C 
ENDROOT
BRANCH   5   9
ATOM      9  C   UNL     1      -5.617  -4.599   0.161  0.00  0.00    +0.038 A 
ATOM     10  C   UNL     1      -6.084  -5.636  -0.636  0.00  0.00    +0.025 A 
ATOM     11  C   UNL     1      -7.441  -5.793  -0.837  0.00  0.00    +0.022 A 
ATOM     12  C   UNL     1      -8.335  -4.911  -0.254  0.00  0.00    +0.041 A 
ATOM     13  C   UNL     1      -7.872  -3.874   0.536  0.00  0.00    +0.022 A 
ATOM     14  C   UNL     1      -6.516  -3.716   0.745  0.00  0.00    +0.025 A 
ATOM     15 CL   UNL     1     -10.040  -5.107  -0.515  0.00  0.00    -0.084 Cl
ENDBRANCH   5   9
BRANCH   6  16
ATOM     16  C   UNL     1      -4.470  -5.835   2.330  0.00  0.00    +0.238 C 
ATOM     17  O   UNL     1      -4.795  -5.795   3.498  0.00  0.00    -0.273 OA
ATOM     18  N   UNL     1      -4.770  -6.917   1.584  0.00  0.00    -0.311 N 
ATOM     19  H   UNL     1      -4.546  -6.921   0.507  0.00  0.00    +0.149 HD
BRANCH  18  20
ATOM     20  C   UNL     1      -5.394  -8.086   2.207  0.00  0.00    +0.073 C 
ATOM     21  C   UNL     1      -4.314  -8.987   2.841  0.00  0.00    +0.022 C 
ATOM     22  C   UNL     1      -4.820 -10.428   2.580  0.00  0.00    +0.002 C 
ATOM     23  C   UNL     1      -5.432 -10.324   1.161  0.00  0.00    +0.002 C 
ATOM     24  C   UNL     1      -6.105  -8.936   1.139  0.00  0.00    +0.022 C 
ENDBRANCH  18  20
ENDBRANCH   6  16
BRANCH   1  25
ATOM     25  S   UNL     1      -0.410  -2.987   1.381  0.00  0.00    +0.061 S 
ATOM     26  O   UNL     1       0.382  -2.600   0.267  0.00  0.00    -0.153 OA
ATOM     27  O   UNL     1       0.144  -3.612   2.530  0.00  0.00    -0.153 OA
BRANCH  25  32
ATOM     28  C   UNL     1      -3.213   1.994   3.315  0.00  0.00    +0.044 C 
ATOM     29  C   UNL     1      -2.513   0.750   2.832  0.00  0.00    -0.050 A 
ATOM     30  C   UNL     1      -2.082   0.664   1.521  0.00  0.00    +0.005 A 
ATOM     31  C   UNL     1      -1.436  -0.475   1.079  0.00  0.00    +0.029 A 
ATOM     32  C   UNL     1      -1.229  -1.532   1.946  0.00  0.00    +0.106 A 
ATOM     33  C   UNL     1      -1.665  -1.448   3.255  0.00  0.00    +0.029 A 
ATOM     34  C   UNL     1      -2.307  -0.307   3.698  0.00  0.00    +0.005 A 
ENDBRANCH  25  32
ENDBRANCH   1  25
TORSDOF 5
