REMARK  Name = ZINC61596557
REMARK  8 active torsions:
REMARK  status: ('A' for Active; 'I' for Inactive)
REMARK    1  A    between atoms: C_1  and  C_2
REMARK    2  A    between atoms: C_2  and  C_3
REMARK    3  A    between atoms: C_3  and  C_4
REMARK    4  A    between atoms: C_11  and  C_13
REMARK    5  A    between atoms: C_13  and  S_14
REMARK    6  A    between atoms: S_14  and  C_15
REMARK    7  A    between atoms: C_17  and  C_22
REMARK    8  A    between atoms: C_19  and  C_21
REMARK                            x       y       z     vdW  Elec       q    Type
REMARK                         _______ _______ _______ _____ _____    ______ ____
ROOT
ATOM      1  C   UNL     1       0.739  -2.027  -1.265  0.00  0.00    -0.009 C 
ATOM      2  C   UNL     1       1.233  -2.498  -2.630  0.00  0.00    +0.005 C 
ATOM      3  C   UNL     1       0.681  -3.873  -2.915  0.00  0.00    +0.019 C 
ATOM      4  C   UNL     1       1.670  -4.950  -2.432  0.00  0.00    +0.108 C 
ATOM      5  N   UNL     1       2.280  -4.603  -1.134  0.00  0.00    -0.301 N 
ATOM      6  C   UNL     1       1.523  -4.035  -0.041  0.00  0.00    +0.108 C 
ATOM      7  C   UNL     1       1.556  -2.490  -0.133  0.00  0.00    +0.022 C 
ATOM      8  C   UNL     1       3.598  -4.824  -0.959  0.00  0.00    +0.226 C 
ATOM      9  O   UNL     1       4.125  -4.548   0.098  0.00  0.00    -0.275 OA
ENDROOT
BRANCH   1  10
ATOM     10  C   UNL     1       0.718  -0.497  -1.257  0.00  0.00    +0.003 C 
BRANCH  10  12
ATOM     11  C   UNL     1      -0.019   1.526   0.010  0.00  0.00    +0.004 C 
ATOM     12  C   UNL     1       0.002  -0.004   0.002  0.00  0.00    -0.003 C 
ENDBRANCH  10  12
ENDBRANCH   1  10
BRANCH   8  13
ATOM     13  C   UNL     1       4.418  -5.415  -2.078  0.00  0.00    +0.173 C 
BRANCH  13  14
ATOM     14  S   UNL     1       6.141  -5.590  -1.538  0.00  0.00    -0.077 S 
BRANCH  14  15
ATOM     15  C   UNL     1       6.957  -6.284  -2.937  0.00  0.00    +0.189 A 
ATOM     16  N   UNL     1       6.259  -6.532  -4.036  0.00  0.00    -0.227 NA
ATOM     17  C   UNL     1       6.842  -7.052  -5.104  0.00  0.00    +0.043 A 
ATOM     18  C   UNL     1       8.198  -7.337  -5.063  0.00  0.00    +0.046 A 
ATOM     19  C   UNL     1       8.898  -7.065  -3.897  0.00  0.00    +0.043 A 
ATOM     20  N   UNL     1       8.256  -6.540  -2.867  0.00  0.00    -0.227 NA
ATOM     21  C   UNL     1      10.373  -7.359  -3.808  0.00  0.00    +0.066 C 
ATOM     22  C   UNL     1       6.041  -7.332  -6.349  0.00  0.00    +0.066 C 
ENDBRANCH  14  15
ENDBRANCH  13  14
ENDBRANCH   8  13
TORSDOF 5
