REMARK  Name = ZINC21252055
REMARK  11 active torsions:
REMARK  status: ('A' for Active; 'I' for Inactive)
REMARK    1  A    between atoms: C_1  and  C_2
REMARK    2  A    between atoms: C_2  and  C_3
REMARK    3  A    between atoms: C_2  and  C_4
REMARK    4  A    between atoms: C_4  and  O_5
REMARK    5  A    between atoms: O_5  and  C_6
REMARK    6  A    between atoms: C_9  and  C_12
REMARK    7  A    between atoms: C_17  and  C_22
REMARK    8  A    between atoms: C_24  and  O_30
REMARK    9  A    between atoms: C_27  and  O_28
REMARK   10  A    between atoms: O_28  and  C_29
REMARK   11  A    between atoms: O_30  and  C_31
REMARK                            x       y       z     vdW  Elec       q    Type
REMARK                         _______ _______ _______ _____ _____    ______ ____
ROOT
ATOM      1  C   UNL     1      -3.164   7.189   0.140  0.00  0.00    +0.136 C 
ATOM      2  C   UNL     1      -1.919   6.357  -0.059  0.00  0.00    +0.036 C 
ATOM      3  C   UNL     1      -1.410   5.970  -1.241  0.00  0.00    +0.017 C 
ATOM      4  C   UNL     1      -0.142   5.134  -1.297  0.00  0.00    +0.060 C 
ATOM      5  C   UNL     1      -0.067   4.220  -0.074  0.00  0.00    +0.036 C 
ATOM      6  C   UNL     1      -0.063   5.110   1.174  0.00  0.00    +0.088 C 
ATOM      7  C   UNL     1      -1.289   5.974   1.148  0.00  0.00    +0.163 C 
ATOM      8  O   UNL     1      -1.757   6.358   2.202  0.00  0.00    -0.292 OA
ATOM      9  N   UNL     1      -1.940   6.281  -2.451  0.00  0.00    -0.316 N 
ATOM     10  C   UNL     1      -3.288   6.177  -2.780  0.00  0.00    +0.052 A 
ATOM     11  C   UNL     1      -3.742   5.332  -3.778  0.00  0.00    +0.025 A 
ATOM     12  C   UNL     1      -5.080   5.361  -4.133  0.00  0.00    +0.002 A 
ATOM     13  C   UNL     1      -5.953   6.225  -3.497  0.00  0.00    +0.002 A 
ATOM     14  C   UNL     1      -5.504   7.054  -2.484  0.00  0.00    +0.025 A 
ATOM     15  C   UNL     1      -4.169   7.015  -2.113  0.00  0.00    +0.049 A 
ATOM     16  N   UNL     1      -3.679   7.797  -1.069  0.00  0.00    -0.331 N 
ATOM     17  H   UNL     1      -1.290   6.646  -3.259  0.00  0.00    +0.152 HD
ATOM     18  H   UNL     1      -3.688   8.892  -1.173  0.00  0.00    +0.147 HD
ENDROOT
BRANCH   1  22
ATOM     19  C   UNL     1      -6.208   4.696   1.806  0.00  0.00    +0.121 A 
ATOM     20  C   UNL     1      -5.706   4.428   0.541  0.00  0.00    +0.046 A 
ATOM     21  C   UNL     1      -4.722   5.236   0.004  0.00  0.00    +0.009 A 
ATOM     22  C   UNL     1      -4.237   6.310   0.727  0.00  0.00    -0.023 A 
ATOM     23  C   UNL     1      -4.732   6.575   1.991  0.00  0.00    +0.009 A 
ATOM     24  C   UNL     1      -5.720   5.774   2.530  0.00  0.00    +0.046 A 
BRANCH  19  25
ATOM     25  O   UNL     1      -7.176   3.903   2.336  0.00  0.00    -0.492 OA
BRANCH  25  26
ATOM     26  C   UNL     1      -7.646   4.238   3.643  0.00  0.00    +0.232 C 
BRANCH  26  28
ATOM     27  C   UNL     1      -8.108   1.848   4.205  0.00  0.00    +0.010 C 
ATOM     28  C   UNL     1      -8.726   3.241   4.069  0.00  0.00    +0.020 C 
ATOM     29  C   UNL     1      -9.316   3.671   5.413  0.00  0.00    +0.010 C 
ENDBRANCH  26  28
ENDBRANCH  25  26
ENDBRANCH  19  25
ENDBRANCH   1  22
BRANCH   5  30
ATOM     30  C   UNL     1       1.200   3.405  -0.124  0.00  0.00    +0.002 A 
ATOM     31  C   UNL     1       2.428   4.037  -0.139  0.00  0.00    +0.053 A 
ATOM     32  C   UNL     1       3.593   3.286  -0.185  0.00  0.00    +0.121 A 
ATOM     33  C   UNL     1       3.525   1.901  -0.216  0.00  0.00    +0.049 A 
ATOM     34  C   UNL     1       2.298   1.269  -0.195  0.00  0.00    +0.049 A 
ATOM     35  C   UNL     1       1.132   2.020  -0.155  0.00  0.00    +0.124 A 
BRANCH  35  36
ATOM     36  O   UNL     1      -0.077   1.398  -0.140  0.00  0.00    -0.495 OA
ATOM     37  C   UNL     1      -0.072  -0.031  -0.174  0.00  0.00    +0.277 C 
ENDBRANCH  35  36
BRANCH  32  38
ATOM     38  O   UNL     1       4.802   3.908  -0.200  0.00  0.00    -0.495 OA
ATOM     39  C   UNL     1       5.961   3.073  -0.247  0.00  0.00    +0.277 C 
ENDBRANCH  32  38
ENDBRANCH   5  30
TORSDOF 7
