REMARK  Name = ZINC63383782
REMARK  11 active torsions:
REMARK  status: ('A' for Active; 'I' for Inactive)
REMARK    1  A    between atoms: C_1  and  C_2
REMARK    2  A    between atoms: C_2  and  C_3
REMARK    3  A    between atoms: C_3  and  C_5
REMARK    4  A    between atoms: C_3  and  N_6
REMARK    5  A    between atoms: C_7  and  C_9
REMARK    6  A    between atoms: C_9  and  C_11
REMARK    7  A    between atoms: C_9  and  N_15
REMARK    8  A    between atoms: C_11  and  C_12
REMARK    9  A    between atoms: C_12  and  C_13
REMARK   10  A    between atoms: C_12  and  C_14
REMARK   11  A    between atoms: C_16  and  C_18
REMARK                            x       y       z     vdW  Elec       q    Type
REMARK                         _______ _______ _______ _____ _____    ______ ____
ROOT
ATOM      1  C   UNL     1       6.245   1.340  -5.527  0.00  0.00    +0.167 C 
ATOM      2  C   UNL     1       5.823   0.190  -6.463  0.00  0.00    +0.065 C 
ATOM      3  C   UNL     1       7.079  -0.332  -7.114  0.00  0.00    -0.034 C 
ATOM      4  C   UNL     1       7.363  -0.542  -8.397  0.00  0.00    -0.001 A 
ATOM      5  C   UNL     1       6.538  -0.433  -9.611  0.00  0.00    +0.010 A 
ATOM      6  C   UNL     1       7.162  -0.710 -10.786  0.00  0.00    +0.001 A 
ATOM      7  C   UNL     1       8.508  -1.081 -10.874  0.00  0.00    +0.002 A 
ATOM      8  C   UNL     1       9.338  -1.212  -9.809  0.00  0.00    +0.026 A 
ATOM      9  C   UNL     1       8.794  -0.953  -8.517  0.00  0.00    +0.043 A 
ATOM     10  N   UNL     1       9.348  -1.019  -7.343  0.00  0.00    -0.375 N 
ATOM     11  C   UNL     1       8.330  -0.714  -6.336  0.00  0.00    +0.131 C 
ATOM     12  C   UNL     1       8.714   0.487  -5.475  0.00  0.00    +0.134 C 
ATOM     13  N   UNL     1       7.693   1.537  -5.669  0.00  0.00    -0.276 N 
ATOM     14  C   UNL     1       8.314   2.683  -6.010  0.00  0.00    +0.248 C 
ATOM     15  O   UNL     1       7.770   3.764  -6.120  0.00  0.00    -0.270 OA
ATOM     16  C   UNL     1       9.740   2.434  -6.228  0.00  0.00    +0.042 A 
ATOM     17  C   UNL     1      10.023   1.070  -5.897  0.00  0.00    -0.013 A 
ATOM     18  C   UNL     1      11.284   0.526  -5.995  0.00  0.00    +0.006 A 
ATOM     19  C   UNL     1      12.305   1.370  -6.424  0.00  0.00    +0.000 A 
ATOM     20  C   UNL     1      12.071   2.694  -6.735  0.00  0.00    +0.001 A 
ATOM     21  C   UNL     1      10.759   3.286  -6.661  0.00  0.00    +0.013 A 
ATOM     22  H   UNL     1      10.277  -1.233  -7.164  0.00  0.00    +0.160 HD
ENDROOT
BRANCH   1  24
ATOM     23  N   UNL     1       4.640   0.741  -3.742  0.00  0.00    -0.302 N 
ATOM     24  C   UNL     1       5.917   0.981  -4.101  0.00  0.00    +0.235 C 
ATOM     25  O   UNL     1       6.803   0.909  -3.275  0.00  0.00    -0.274 OA
ATOM     26  H   UNL     1       3.942   0.729  -4.415  0.00  0.00    +0.150 HD
BRANCH  23  27
ATOM     27  C   UNL     1       4.307   0.499  -2.336  0.00  0.00    +0.159 C 
BRANCH  27  29
ATOM     28  N   UNL     1       2.603  -0.780  -1.080  0.00  0.00    -0.311 N 
ATOM     29  C   UNL     1       2.997  -0.239  -2.251  0.00  0.00    +0.234 C 
ATOM     30  O   UNL     1       2.296  -0.348  -3.235  0.00  0.00    -0.274 OA
ATOM     31  H   UNL     1       3.184  -0.734  -0.305  0.00  0.00    +0.149 HD
BRANCH  28  32
ATOM     32  C   UNL     1       1.298  -1.437  -0.979  0.00  0.00    +0.070 C 
ATOM     33  C   UNL     1       1.421  -2.890  -1.440  0.00  0.00    +0.028 C 
BRANCH  32  35
ATOM     34  C   UNL     1       0.577   0.048   0.896  0.00  0.00    +0.005 C 
ATOM     35  C   UNL     1       0.821  -1.402   0.474  0.00  0.00    +0.018 C 
ENDBRANCH  32  35
ENDBRANCH  28  32
ENDBRANCH  27  29
BRANCH  27  36
ATOM     36  C   UNL     1       4.188   1.837  -1.603  0.00  0.00    +0.034 C 
BRANCH  36  37
ATOM     37  C   UNL     1       3.906   1.583  -0.121  0.00  0.00    -0.015 C 
ATOM     38  C   UNL     1       5.122   0.911   0.521  0.00  0.00    +0.007 C 
ATOM     39  C   UNL     1       3.629   2.914   0.581  0.00  0.00    +0.007 C 
ENDBRANCH  36  37
ENDBRANCH  27  36
ENDBRANCH  23  27
ENDBRANCH   1  24
TORSDOF 7
