REMARK  Name = ZINC36207394
REMARK  16 active torsions:
REMARK  status: ('A' for Active; 'I' for Inactive)
REMARK    1  A    between atoms: C_1  and  C_2
REMARK    2  A    between atoms: C_8  and  C_19
REMARK    3  A    between atoms: C_12  and  C_13
REMARK    4  A    between atoms: C_13  and  O_15
REMARK    5  A    between atoms: O_15  and  C_16
REMARK    6  A    between atoms: C_16  and  C_17
REMARK    7  A    between atoms: C_16  and  C_18
REMARK    8  A    between atoms: C_19  and  N_20
REMARK    9  A    between atoms: N_20  and  C_21
REMARK   10  A    between atoms: N_20  and  C_28
REMARK   11  A    between atoms: C_21  and  C_22
REMARK   12  A    between atoms: C_28  and  C_29
REMARK   13  A    between atoms: C_29  and  C_31
REMARK   14  A    between atoms: C_29  and  O_35
REMARK   15  A    between atoms: C_31  and  C_32
REMARK   16  A    between atoms: C_32  and  C_33
REMARK                            x       y       z     vdW  Elec       q    Type
REMARK                         _______ _______ _______ _____ _____    ______ ____
ROOT
ATOM      1  C   UNL     1      -2.012   0.816   0.674  0.00  0.00    +0.046 C 
ATOM      2  C   UNL     1      -1.637  -0.634   0.513  0.00  0.00    -0.015 A 
ATOM      3  C   UNL     1      -1.329  -1.142  -0.750  0.00  0.00    +0.076 A 
ATOM      4  C   UNL     1      -1.306  -0.447  -2.058  0.00  0.00    +0.260 A 
ATOM      5  O   UNL     1      -1.580   0.737  -2.141  0.00  0.00    -0.267 OA
ATOM      6  N   UNL     1      -0.973  -1.158  -3.153  0.00  0.00    -0.312 N 
ATOM      7  H   UNL     1      -0.953  -0.718  -4.017  0.00  0.00    +0.170 HD
ATOM      8  C   UNL     1      -0.665  -2.476  -3.072  0.00  0.00    +0.094 A 
ATOM      9  N   UNL     1      -0.676  -3.119  -1.936  0.00  0.00    -0.229 NA
ATOM     10  C   UNL     1      -0.990  -2.514  -0.797  0.00  0.00    +0.116 A 
ATOM     11  S   UNL     1      -1.114  -3.023   0.899  0.00  0.00    -0.062 S 
ATOM     12  C   UNL     1      -1.591  -1.454   1.604  0.00  0.00    +0.102 A 
ENDROOT
BRANCH  12  13
ATOM     13  C   UNL     1      -1.868  -1.128   3.005  0.00  0.00    +0.346 C 
ATOM     14  O   UNL     1      -2.187   0.005   3.314  0.00  0.00    -0.244 OA
BRANCH  13  15
ATOM     15  O   UNL     1      -1.770  -2.083   3.952  0.00  0.00    -0.458 OA
BRANCH  15  16
ATOM     16  C   UNL     1      -2.054  -1.695   5.297  0.00  0.00    +0.171 C 
ATOM     17  C   UNL     1      -2.620  -2.891   6.065  0.00  0.00    +0.052 C 
ATOM     18  C   UNL     1      -0.767  -1.218   5.973  0.00  0.00    +0.052 C 
ENDBRANCH  15  16
ENDBRANCH  13  15
ENDBRANCH  12  13
BRANCH   8  19
ATOM     19  C   UNL     1      -0.301  -3.221  -4.330  0.00  0.00    -0.003 C 
BRANCH  19  20
ATOM     20  N   UNL     1       0.125  -4.584  -3.986  0.00  0.00    +0.389 N 
ATOM     21  H   UNL     1      -0.584  -5.025  -3.419  0.00  0.00    -0.081 HD
BRANCH  20  22
ATOM     22  C   UNL     1       1.387  -4.528  -3.237  0.00  0.00    -0.042 C 
BRANCH  22  23
ATOM     23  C   UNL     1       2.393  -3.712  -4.008  0.00  0.00    -0.064 A 
ATOM     24  C   UNL     1       3.155  -4.308  -4.996  0.00  0.00    +0.002 A 
ATOM     25  C   UNL     1       4.077  -3.560  -5.703  0.00  0.00    +0.000 A 
ATOM     26  C   UNL     1       4.238  -2.216  -5.423  0.00  0.00    +0.000 A 
ATOM     27  C   UNL     1       3.476  -1.620  -4.436  0.00  0.00    +0.000 A 
ATOM     28  C   UNL     1       2.550  -2.367  -3.732  0.00  0.00    +0.002 A 
ENDBRANCH  22  23
ENDBRANCH  20  22
BRANCH  20  29
ATOM     29  C   UNL     1       0.320  -5.361  -5.218  0.00  0.00    -0.046 C 
BRANCH  29  30
ATOM     30  C   UNL     1       0.203  -6.854  -4.902  0.00  0.00    +0.098 C 
BRANCH  30  31
ATOM     31  O   UNL     1       1.208  -7.221  -3.956  0.00  0.00    -0.394 OA
ATOM     32  H   UNL     1       2.112  -7.055  -4.257  0.00  0.00    +0.210 HD
ENDBRANCH  30  31
BRANCH  30  33
ATOM     33  C   UNL     1       0.392  -7.662  -6.187  0.00  0.00    +0.033 C 
BRANCH  33  34
ATOM     34  C   UNL     1       0.152  -9.145  -5.896  0.00  0.00    +0.029 C 
BRANCH  34  35
ATOM     35  C   UNL     1       0.338  -9.942  -7.162  0.00  0.00    -0.034 C 
ATOM     36  C   UNL     1       1.183 -10.943  -7.187  0.00  0.00    +0.004 C 
ENDBRANCH  34  35
ENDBRANCH  33  34
ENDBRANCH  30  33
ENDBRANCH  29  30
ENDBRANCH  20  29
ENDBRANCH  19  20
ENDBRANCH   8  19
TORSDOF 13
