REMARK  Name = ZINC32655225
REMARK  8 active torsions:
REMARK  status: ('A' for Active; 'I' for Inactive)
REMARK    1  A    between atoms: C_1  and  C_2
REMARK    2  A    between atoms: C_2  and  S_3
REMARK    3  A    between atoms: S_3  and  C_4
REMARK    4  A    between atoms: C_13  and  C_28
REMARK    5  A    between atoms: C_14  and  C_24
REMARK    6  A    between atoms: C_15  and  C_17
REMARK    7  A    between atoms: C_24  and  O_26
REMARK    8  A    between atoms: O_26  and  C_27
REMARK                            x       y       z     vdW  Elec       q    Type
REMARK                         _______ _______ _______ _____ _____    ______ ____
ROOT
ATOM      1  C   UNL     1       2.350   0.082  -0.014  0.00  0.00    +0.171 A 
ATOM      2  N   UNL     1       1.194  -0.637  -0.011  0.00  0.00    -0.302 N 
ATOM      3  H   UNL     1       1.230  -1.737  -0.019  0.00  0.00    +0.171 HD
ATOM      4  C   UNL     1       0.002  -0.004   0.002  0.00  0.00    +0.258 A 
ATOM      5  O   UNL     1      -1.040  -0.640   0.007  0.00  0.00    -0.267 OA
ATOM      6  C   UNL     1      -0.017   1.395   0.010  0.00  0.00    +0.069 A 
ATOM      7  C   UNL     1       1.186   2.080   0.002  0.00  0.00    +0.135 A 
ATOM      8  N   UNL     1       2.338   1.400  -0.007  0.00  0.00    -0.208 NA
ATOM      9  N   UNL     1       1.196   3.463  -0.001  0.00  0.00    -0.302 N 
ATOM     10  C   UNL     1       0.071   4.157  -0.349  0.00  0.00    +0.017 C 
ATOM     11  C   UNL     1      -1.137   3.571  -0.353  0.00  0.00    +0.065 C 
ATOM     12  C   UNL     1      -1.326   2.132   0.032  0.00  0.00    +0.096 C 
ATOM     13  C   UNL     1       0.190   5.609  -0.735  0.00  0.00    +0.061 C 
ATOM     14  H   UNL     1       2.111   4.007   0.278  0.00  0.00    +0.153 HD
ENDROOT
BRANCH  12  15
ATOM     15  C   UNL     1      -1.910   2.062   1.420  0.00  0.00    -0.035 A 
ATOM     16  C   UNL     1      -1.207   2.578   2.493  0.00  0.00    +0.005 A 
ATOM     17  C   UNL     1      -1.744   2.517   3.764  0.00  0.00    +0.015 A 
ATOM     18  C   UNL     1      -2.981   1.931   3.965  0.00  0.00    +0.018 A 
ATOM     19  C   UNL     1      -3.682   1.410   2.892  0.00  0.00    +0.015 A 
ATOM     20  C   UNL     1      -3.146   1.476   1.620  0.00  0.00    +0.005 A 
ATOM     21 BR   UNL     1      -3.714   1.843   5.706  0.00  0.00    -0.050 Br
ENDBRANCH  12  15
BRANCH  11  22
ATOM     22  C   UNL     1      -2.266   4.333  -0.730  0.00  0.00    +0.337 C 
ATOM     23  O   UNL     1      -2.134   5.502  -1.044  0.00  0.00    -0.245 OA
BRANCH  22  24
ATOM     24  O   UNL     1      -3.490   3.765  -0.742  0.00  0.00    -0.465 OA
ATOM     25  C   UNL     1      -4.586   4.595  -1.134  0.00  0.00    +0.280 C 
ENDBRANCH  22  24
ENDBRANCH  11  22
BRANCH   1  26
ATOM     26  S   UNL     1       3.895  -0.766  -0.027  0.00  0.00    -0.088 S 
BRANCH  26  28
ATOM     27  C   UNL     1       6.472   0.139  -0.037  0.00  0.00    +0.016 C 
ATOM     28  C   UNL     1       5.028   0.645  -0.026  0.00  0.00    +0.074 C 
ENDBRANCH  26  28
ENDBRANCH   1  26
TORSDOF 5
