REMARK  Name = ZINC05064832
REMARK  13 active torsions:
REMARK  status: ('A' for Active; 'I' for Inactive)
REMARK    1  A    between atoms: C_1  and  C_2
REMARK    2  A    between atoms: N_8  and  C_9
REMARK    3  A    between atoms: C_9  and  C_10
REMARK    4  A    between atoms: C_10  and  N_56
REMARK    5  A    between atoms: C_11  and  N_56
REMARK    6  A    between atoms: C_12  and  N_56
REMARK    7  A    between atoms: C_13  and  C_21
REMARK    8  A    between atoms: C_15  and  C_19
REMARK    9  A    between atoms: C_16  and  N_18
REMARK   10  A    between atoms: C_24  and  O_29
REMARK   11  A    between atoms: C_26  and  O_27
REMARK   12  A    between atoms: O_27  and  C_28
REMARK   13  A    between atoms: O_29  and  C_30
REMARK                            x       y       z     vdW  Elec       q    Type
REMARK                         _______ _______ _______ _____ _____    ______ ____
ROOT
ATOM      1  C   UNL     1      -1.299  -0.765   0.010  0.00  0.00    +0.064 C 
ATOM      2  C   UNL     1       0.002  -0.004   0.002  0.00  0.00    +0.022 A 
ATOM      3  C   UNL     1      -0.016   1.346   0.009  0.00  0.00    +0.068 A 
ATOM      4  C   UNL     1       1.198   2.063   0.002  0.00  0.00    +0.141 A 
ATOM      5  C   UNL     1       2.386   1.364  -0.014  0.00  0.00    +0.072 A 
ATOM      6  C   UNL     1       2.356  -0.037  -0.021  0.00  0.00    +0.259 A 
ATOM      7  O   UNL     1       3.401  -0.669  -0.035  0.00  0.00    -0.267 OA
ATOM      8  N   UNL     1       1.177  -0.686  -0.013  0.00  0.00    -0.314 N 
ATOM      9  C   UNL     1       3.705   2.088  -0.021  0.00  0.00    +0.107 C 
ATOM     10  C   UNL     1       3.503   3.527  -0.408  0.00  0.00    +0.098 C 
ATOM     11  C   UNL     1       2.276   4.098  -0.371  0.00  0.00    +0.199 C 
ATOM     12  O   UNL     1       1.183   3.413   0.010  0.00  0.00    -0.441 OA
ENDROOT
BRANCH   9  13
ATOM     13  C   UNL     1       4.319   2.022   1.354  0.00  0.00    +0.007 A 
ATOM     14  C   UNL     1       3.650   2.562   2.435  0.00  0.00    +0.012 A 
ATOM     15  C   UNL     1       4.208   2.498   3.698  0.00  0.00    +0.046 A 
ATOM     16  C   UNL     1       5.447   1.900   3.881  0.00  0.00    +0.124 A 
ATOM     17  C   UNL     1       6.122   1.362   2.796  0.00  0.00    +0.091 A 
ATOM     18  C   UNL     1       5.558   1.423   1.531  0.00  0.00    +0.128 A 
BRANCH  18  19
ATOM     19  O   UNL     1       6.218   0.897   0.466  0.00  0.00    -0.495 OA
ATOM     20  C   UNL     1       7.489   0.296   0.723  0.00  0.00    +0.277 C 
ENDBRANCH  18  19
BRANCH  16  21
ATOM     21  O   UNL     1       5.998   1.843   5.122  0.00  0.00    -0.495 OA
ATOM     22  C   UNL     1       5.246   2.417   6.192  0.00  0.00    +0.277 C 
ENDBRANCH  16  21
ENDBRANCH   9  13
BRANCH  11  23
ATOM     23  N   UNL     1       2.143   5.415  -0.733  0.00  0.00    -0.328 N 
ATOM     24  H   UNL     1       1.271   5.839  -0.711  0.00  0.00    +0.145 HD
ATOM     25  H   UNL     1       2.922   5.923  -1.009  0.00  0.00    +0.145 HD
ENDBRANCH  11  23
BRANCH  10  26
ATOM     26  C   UNL     1       4.629   4.308  -0.822  0.00  0.00    +0.101 C 
ATOM     27  N   UNL     1       5.522   4.927  -1.151  0.00  0.00    -0.191 NA
ENDBRANCH  10  26
BRANCH   8  28
ATOM     28  C   UNL     1       1.161  -2.151  -0.021  0.00  0.00    +0.106 C 
BRANCH  28  29
ATOM     29  C   UNL     1       1.141  -2.654  -1.465  0.00  0.00    -0.058 C 
BRANCH  29  32
ATOM     30  C   UNL     1      -0.129  -4.638  -0.906  0.00  0.00    -0.097 C 
ATOM     31  C   UNL     1       1.343  -4.645  -2.828  0.00  0.00    -0.097 C 
ATOM     32  N   UNL     1       1.146  -4.132  -1.456  0.00  0.00    +0.377 N 
ATOM     33  H   UNL     1       1.918  -4.459  -0.864  0.00  0.00    -0.083 HD
ENDBRANCH  29  32
ENDBRANCH  28  29
ENDBRANCH   8  28
TORSDOF 8
