REMARK  Name = ZINC09009230
REMARK  6 active torsions:
REMARK  status: ('A' for Active; 'I' for Inactive)
REMARK    1  A    between atoms: C_1  and  C_2
REMARK    2  A    between atoms: C_7  and  N_8
REMARK    3  A    between atoms: C_9  and  C_11
REMARK    4  A    between atoms: C_11  and  S_12
REMARK    5  A    between atoms: S_12  and  C_13
REMARK    6  A    between atoms: C_19  and  N_23
REMARK                            x       y       z     vdW  Elec       q    Type
REMARK                         _______ _______ _______ _____ _____    ______ ____
ROOT
ATOM      1  S   UNL     1      -0.259  -1.133   6.252  0.00  0.00    -0.079 S 
ENDROOT
BRANCH   1   2
ATOM      2  C   UNL     1      -0.384  -0.118   7.687  0.00  0.00    +0.168 A 
ATOM      3  N   UNL     1      -0.472  -0.580   8.970  0.00  0.00    -0.333 N 
ATOM      4  H   UNL     1      -0.478  -1.509   9.248  0.00  0.00    +0.168 HD
ATOM      5  C   UNL     1      -0.553   0.527   9.799  0.00  0.00    +0.067 A 
ATOM      6  C   UNL     1      -0.658   0.694  11.172  0.00  0.00    +0.030 A 
ATOM      7  C   UNL     1      -0.719   1.964  11.707  0.00  0.00    +0.035 A 
ATOM      8  C   UNL     1      -0.676   3.077  10.880  0.00  0.00    +0.128 A 
ATOM      9  C   UNL     1      -0.572   2.930   9.515  0.00  0.00    +0.062 A 
ATOM     10  C   UNL     1      -0.508   1.651   8.958  0.00  0.00    +0.092 A 
ATOM     11  N   UNL     1      -0.400   1.192   7.683  0.00  0.00    -0.222 NA
BRANCH   8  12
ATOM     12  N   UNL     1      -0.742   4.433  11.470  0.00  0.00    +0.056 N 
ATOM     13  O   UNL     1      -0.834   4.567  12.668  0.00  0.00    -0.126 OA
ATOM     14  O   UNL     1      -0.705   5.407  10.754  0.00  0.00    -0.126 OA
ENDBRANCH   8  12
ENDBRANCH   1   2
BRANCH   1  15
ATOM     15  C   UNL     1      -0.168   0.052   4.882  0.00  0.00    +0.173 C 
BRANCH  15  17
ATOM     16  N   UNL     1       0.025  -0.015   2.417  0.00  0.00    -0.285 N 
ATOM     17  C   UNL     1      -0.056  -0.694   3.578  0.00  0.00    +0.227 C 
ATOM     18  O   UNL     1      -0.040  -1.907   3.573  0.00  0.00    -0.275 OA
ATOM     19  H   UNL     1       0.078   0.954   2.425  0.00  0.00    +0.155 HD
BRANCH  16  26
ATOM     20  C   UNL     1      -1.264   1.184   0.181  0.00  0.00    +0.045 C 
ATOM     21  C   UNL     1      -0.584  -0.158   0.084  0.00  0.00    -0.029 A 
ATOM     22  C   UNL     1      -0.568  -0.840  -1.117  0.00  0.00    +0.005 A 
ATOM     23  C   UNL     1       0.055  -2.071  -1.206  0.00  0.00    +0.000 A 
ATOM     24  C   UNL     1       0.666  -2.622  -0.095  0.00  0.00    +0.002 A 
ATOM     25  C   UNL     1       0.655  -1.945   1.108  0.00  0.00    +0.023 A 
ATOM     26  C   UNL     1       0.034  -0.706   1.201  0.00  0.00    +0.036 A 
ENDBRANCH  16  26
ENDBRANCH  15  17
ENDBRANCH   1  15
TORSDOF 5
