REMARK  Name = ZINC13113272
REMARK  8 active torsions:
REMARK  status: ('A' for Active; 'I' for Inactive)
REMARK    1  A    between atoms: C_1  and  C_2
REMARK    2  A    between atoms: C_7  and  N_8
REMARK    3  A    between atoms: C_11  and  C_16
REMARK    4  A    between atoms: C_16  and  S_17
REMARK    5  A    between atoms: S_17  and  C_18
REMARK    6  A    between atoms: C_20  and  C_29
REMARK    7  A    between atoms: C_21  and  C_28
REMARK    8  A    between atoms: C_25  and  C_27
REMARK                            x       y       z     vdW  Elec       q    Type
REMARK                         _______ _______ _______ _____ _____    ______ ____
ROOT
ATOM      1  N   UNL     1       6.357  -6.386  -2.588  0.00  0.00    -0.283 N 
ATOM      2  C   UNL     1       5.776  -6.159  -1.355  0.00  0.00    +0.224 A 
ATOM      3  N   UNL     1       4.747  -5.321  -1.248  0.00  0.00    -0.198 NA
ATOM      4  C   UNL     1       4.195  -5.098  -0.069  0.00  0.00    +0.146 A 
ATOM      5  N   UNL     1       4.653  -5.714   1.007  0.00  0.00    -0.199 NA
ATOM      6  C   UNL     1       5.678  -6.558   0.907  0.00  0.00    +0.217 A 
ATOM      7  N   UNL     1       6.240  -6.780  -0.277  0.00  0.00    -0.181 NA
ATOM      8  N   UNL     1       6.156  -7.200   2.030  0.00  0.00    -0.327 N 
ATOM      9  H   UNL     1       5.967  -5.999  -3.387  0.00  0.00    +0.155 HD
ATOM     10  H   UNL     1       5.746  -7.037   2.894  0.00  0.00    +0.145 HD
ATOM     11  H   UNL     1       6.903  -7.815   1.957  0.00  0.00    +0.145 HD
ENDROOT
BRANCH   1  18
ATOM     12  C   UNL     1       6.777  -7.868  -4.980  0.00  0.00    +0.045 C 
ATOM     13  C   UNL     1       7.753  -7.913  -3.833  0.00  0.00    -0.029 A 
ATOM     14  C   UNL     1       8.892  -8.689  -3.924  0.00  0.00    +0.005 A 
ATOM     15  C   UNL     1       9.789  -8.730  -2.872  0.00  0.00    +0.000 A 
ATOM     16  C   UNL     1       9.549  -7.995  -1.726  0.00  0.00    +0.002 A 
ATOM     17  C   UNL     1       8.414  -7.213  -1.630  0.00  0.00    +0.023 A 
ATOM     18  C   UNL     1       7.509  -7.173  -2.683  0.00  0.00    +0.036 A 
ENDBRANCH   1  18
BRANCH   4  19
ATOM     19  C   UNL     1       3.034  -4.144   0.049  0.00  0.00    +0.152 C 
BRANCH  19  20
ATOM     20  S   UNL     1       3.656  -2.475   0.371  0.00  0.00    -0.097 S 
BRANCH  20  21
ATOM     21  C   UNL     1       2.133  -1.593   0.460  0.00  0.00    +0.109 A 
ATOM     22  C   UNL     1       2.125  -0.192   0.708  0.00  0.00    +0.043 A 
ATOM     23  C   UNL     1       3.236   0.721   0.917  0.00  0.00    -0.029 A 
ATOM     24  C   UNL     1       2.983   2.020   1.136  0.00  0.00    -0.008 A 
ATOM     25  S   UNL     1       1.204   2.114   1.075  0.00  0.00    -0.074 S 
ATOM     26  C   UNL     1       0.847   0.407   0.758  0.00  0.00    +0.113 A 
ATOM     27  N   UNL     1      -0.251  -0.302   0.585  0.00  0.00    -0.225 NA
ATOM     28  C   UNL     1      -0.180  -1.600   0.359  0.00  0.00    +0.128 A 
ATOM     29  N   UNL     1       0.981  -2.226   0.298  0.00  0.00    -0.225 NA
ATOM     30  C   UNL     1      -1.452  -2.385   0.165  0.00  0.00    +0.088 C 
ATOM     31  C   UNL     1       3.969   3.134   1.375  0.00  0.00    +0.052 C 
ATOM     32  C   UNL     1       4.654   0.213   0.889  0.00  0.00    +0.045 C 
ENDBRANCH  20  21
ENDBRANCH  19  20
ENDBRANCH   4  19
TORSDOF 4
