REMARK  Name = ZINC37760972
REMARK  8 active torsions:
REMARK  status: ('A' for Active; 'I' for Inactive)
REMARK    1  A    between atoms: C_1  and  C_2
REMARK    2  A    between atoms: C_2  and  N_9
REMARK    3  A    between atoms: C_12  and  N_20
REMARK    4  A    between atoms: C_13  and  C_16
REMARK    5  A    between atoms: N_14  and  C_15
REMARK    6  A    between atoms: C_16  and  C_17
REMARK    7  A    between atoms: C_16  and  C_18
REMARK    8  A    between atoms: C_16  and  C_19
REMARK                            x       y       z     vdW  Elec       q    Type
REMARK                         _______ _______ _______ _____ _____    ______ ____
ROOT
ATOM      1  N   UNL     1      -1.373  -0.504  -0.092  0.00  0.00    -0.241 N 
ATOM      2  C   UNL     1      -1.776  -1.790  -0.053  0.00  0.00    +0.289 A 
ATOM      3  O   UNL     1      -1.060  -2.773   0.011  0.00  0.00    -0.264 OA
ATOM      4  C   UNL     1      -3.239  -1.781  -0.100  0.00  0.00    +0.113 A 
ATOM      5  C   UNL     1      -3.630  -0.490  -0.165  0.00  0.00    +0.067 A 
ATOM      6  N   UNL     1      -2.512   0.307  -0.156  0.00  0.00    -0.285 N 
ATOM      7  C   UNL     1      -2.511   1.771  -0.208  0.00  0.00    +0.170 C 
ENDROOT
BRANCH   1   9
ATOM      8  C   UNL     1       0.942  -1.254  -0.113  0.00  0.00    +0.038 C 
ATOM      9  C   UNL     1       0.016  -0.037  -0.067  0.00  0.00    +0.083 C 
ATOM     10  C   UNL     1       0.253   0.711   1.244  0.00  0.00    +0.054 C 
ATOM     11  C   UNL     1       1.361   1.785   1.059  0.00  0.00    +0.168 C 
ATOM     12  S   UNL     1       0.912   2.403  -0.622  0.00  0.00    -0.029 S 
ATOM     13  O   UNL     1      -0.156   3.333  -0.509  0.00  0.00    -0.174 OA
ATOM     14  O   UNL     1       2.096   2.773  -1.315  0.00  0.00    -0.174 OA
ATOM     15  C   UNL     1       0.270   0.825  -1.320  0.00  0.00    +0.195 C 
ENDBRANCH   1   9
BRANCH   5  16
ATOM     16  C   UNL     1      -5.055  -0.004  -0.232  0.00  0.00    +0.006 C 
ATOM     17  C   UNL     1      -5.996  -1.202  -0.373  0.00  0.00    +0.017 C 
ATOM     18  C   UNL     1      -5.393   0.761   1.049  0.00  0.00    +0.017 C 
ATOM     19  C   UNL     1      -5.223   0.921  -1.438  0.00  0.00    +0.017 C 
ENDBRANCH   5  16
BRANCH   4  20
ATOM     20  N   UNL     1      -4.085  -2.910  -0.081  0.00  0.00    -0.352 N 
ATOM     21  H   UNL     1      -3.708  -3.796   0.045  0.00  0.00    +0.143 HD
ATOM     22  H   UNL     1      -5.042  -2.802  -0.193  0.00  0.00    +0.143 HD
ENDBRANCH   4  20
TORSDOF 3
