REMARK  Name = ZINC63376032
REMARK  10 active torsions:
REMARK  status: ('A' for Active; 'I' for Inactive)
REMARK    1  A    between atoms: C_1  and  O_2
REMARK    2  A    between atoms: O_2  and  C_3
REMARK    3  A    between atoms: C_10  and  C_18
REMARK    4  A    between atoms: C_20  and  O_39
REMARK    5  A    between atoms: N_22  and  C_28
REMARK    6  A    between atoms: C_28  and  C_29
REMARK    7  A    between atoms: C_31  and  O_37
REMARK    8  A    between atoms: C_33  and  O_35
REMARK    9  A    between atoms: O_35  and  C_36
REMARK   10  A    between atoms: O_37  and  C_38
REMARK                            x       y       z     vdW  Elec       q    Type
REMARK                         _______ _______ _______ _____ _____    ______ ____
ROOT
ATOM      1  C   UNL     1       4.122  -5.036   5.081  0.00  0.00    +0.141 C 
ATOM      2  C   UNL     1       5.455  -5.772   4.925  0.00  0.00    +0.220 C 
ATOM      3  N   UNL     1       5.203  -7.171   4.573  0.00  0.00    -0.255 N 
ATOM      4  C   UNL     1       4.152  -7.832   5.084  0.00  0.00    +0.311 C 
ATOM      5  O   UNL     1       4.030  -9.020   4.854  0.00  0.00    -0.252 OA
ATOM      6  N   UNL     1       3.232  -7.213   5.843  0.00  0.00    -0.240 N 
ATOM      7  C   UNL     1       3.190  -5.870   5.925  0.00  0.00    +0.229 C 
ATOM      8  O   UNL     1       2.407  -5.331   6.676  0.00  0.00    -0.275 OA
ATOM      9  H   UNL     1       2.588  -7.742   6.339  0.00  0.00    +0.159 HD
ENDROOT
BRANCH   1  16
ATOM     10  C   UNL     1       0.626  -0.619   1.042  0.00  0.00    +0.121 A 
ATOM     11  C   UNL     1       1.202   0.173   2.051  0.00  0.00    +0.047 A 
ATOM     12  C   UNL     1       1.834  -0.360   3.118  0.00  0.00    +0.029 A 
ATOM     13  C   UNL     1       1.938  -1.815   3.253  0.00  0.00    +0.043 A 
ATOM     14  N   UNL     1       2.509  -2.572   4.162  0.00  0.00    -0.376 N 
ATOM     15  C   UNL     1       2.226  -3.968   3.844  0.00  0.00    +0.124 C 
ATOM     16  C   UNL     1       3.498  -4.809   3.703  0.00  0.00    +0.096 C 
ATOM     17  N   UNL     1       3.133  -6.103   3.104  0.00  0.00    -0.310 NA
ATOM     18  C   UNL     1       2.669  -5.988   1.718  0.00  0.00    +0.085 C 
ATOM     19  C   UNL     1       1.347  -5.199   1.668  0.00  0.00    +0.048 C 
ATOM     20  C   UNL     1       1.553  -3.941   2.481  0.00  0.00    -0.036 C 
ATOM     21  C   UNL     1       1.340  -2.654   2.184  0.00  0.00    +0.003 A 
ATOM     22  C   UNL     1       0.666  -1.971   1.072  0.00  0.00    +0.055 A 
ATOM     23  H   UNL     1       3.893  -6.762   3.177  0.00  0.00    +0.122 HD
ATOM     24  H   UNL     1       3.030  -2.257   4.917  0.00  0.00    +0.160 HD
BRANCH  10  26
ATOM     25  C   UNL     1      -0.017   1.425   0.010  0.00  0.00    +0.277 C 
ATOM     26  O   UNL     1       0.002  -0.004   0.002  0.00  0.00    -0.495 OA
ENDBRANCH  10  26
ENDBRANCH   1  16
BRANCH   2  27
ATOM     27  O   UNL     1       6.222  -5.152   3.891  0.00  0.00    -0.373 OA
ATOM     28  H   UNL     1       7.082  -5.567   3.736  0.00  0.00    +0.212 HD
ENDBRANCH   2  27
BRANCH   3  29
ATOM     29  C   UNL     1       6.110  -7.858   3.650  0.00  0.00    +0.147 C 
BRANCH  29  30
ATOM     30  C   UNL     1       7.219  -8.513   4.431  0.00  0.00    -0.023 A 
ATOM     31  C   UNL     1       8.382  -7.815   4.697  0.00  0.00    +0.051 A 
ATOM     32  C   UNL     1       9.405  -8.416   5.416  0.00  0.00    +0.124 A 
ATOM     33  C   UNL     1       9.260  -9.719   5.868  0.00  0.00    +0.091 A 
ATOM     34  C   UNL     1       8.093 -10.417   5.600  0.00  0.00    +0.124 A 
ATOM     35  C   UNL     1       7.070  -9.810   4.886  0.00  0.00    +0.051 A 
BRANCH  34  36
ATOM     36  O   UNL     1       7.948 -11.694   6.042  0.00  0.00    -0.495 OA
ATOM     37  C   UNL     1       9.039 -12.255   6.776  0.00  0.00    +0.277 C 
ENDBRANCH  34  36
BRANCH  32  38
ATOM     38  O   UNL     1      10.548  -7.729   5.677  0.00  0.00    -0.495 OA
ATOM     39  C   UNL     1      11.559  -8.410   6.422  0.00  0.00    +0.277 C 
ENDBRANCH  32  38
ENDBRANCH  29  30
ENDBRANCH   3  29
TORSDOF 7
