REMARK  Name = ZINC64002299
REMARK  6 active torsions:
REMARK  status: ('A' for Active; 'I' for Inactive)
REMARK    1  A    between atoms: C_1  and  C_2
REMARK    2  A    between atoms: C_2  and  C_4
REMARK    3  A    between atoms: C_2  and  N_13
REMARK    4  A    between atoms: C_14  and  C_16
REMARK    5  A    between atoms: C_19  and  C_27
REMARK    6  A    between atoms: C_21  and  N_22
REMARK                            x       y       z     vdW  Elec       q    Type
REMARK                         _______ _______ _______ _____ _____    ______ ____
ROOT
ATOM      1  N   UNL     1      -1.361  -0.538   0.006  0.00  0.00    -0.305 N 
ATOM      2  C   UNL     1      -2.040  -0.673  -1.151  0.00  0.00    +0.248 C 
ATOM      3  O   UNL     1      -1.507  -0.386  -2.206  0.00  0.00    -0.270 OA
ATOM      4  H   UNL     1      -1.787  -0.767   0.847  0.00  0.00    +0.149 HD
ENDROOT
BRANCH   2   5
ATOM      5  C   UNL     1      -3.426  -1.167  -1.137  0.00  0.00    +0.077 A 
ATOM      6  C   UNL     1      -4.012  -1.611   0.058  0.00  0.00    +0.018 A 
ATOM      7  C   UNL     1      -5.303  -2.062   0.027  0.00  0.00    +0.030 A 
ATOM      8  C   UNL     1      -6.001  -2.070  -1.185  0.00  0.00    +0.080 A 
ATOM      9  N   UNL     1      -5.428  -1.645  -2.308  0.00  0.00    -0.231 NA
ATOM     10  C   UNL     1      -4.185  -1.195  -2.321  0.00  0.00    +0.134 A 
BRANCH  10  11
ATOM     11  N   UNL     1      -3.626  -0.756  -3.507  0.00  0.00    -0.315 N 
ATOM     12  C   UNL     1      -3.589   0.638  -3.972  0.00  0.00    +0.106 C 
ATOM     13  C   UNL     1      -2.893   0.643  -5.350  0.00  0.00    +0.020 C 
ATOM     14  C   UNL     1      -3.083  -0.817  -5.840  0.00  0.00    +0.020 C 
ATOM     15  C   UNL     1      -2.962  -1.607  -4.511  0.00  0.00    +0.106 C 
ENDBRANCH  10  11
BRANCH   8  16
ATOM     16  C   UNL     1      -7.392  -2.557  -1.219  0.00  0.00    +0.038 A 
ATOM     17  C   UNL     1      -8.248  -2.655  -2.286  0.00  0.00    +0.017 A 
ATOM     18  C   UNL     1      -9.515  -3.145  -2.074  0.00  0.00    +0.008 A 
ATOM     19  C   UNL     1      -9.881  -3.516  -0.818  0.00  0.00    +0.046 A 
ATOM     20  S   UNL     1      -8.399  -3.179   0.118  0.00  0.00    -0.095 S 
ENDBRANCH   8  16
ENDBRANCH   2   5
BRANCH   1  22
ATOM     21  C   UNL     1       0.015   1.484  -0.013  0.00  0.00    +0.032 C 
ATOM     22  C   UNL     1       0.018  -0.046  -0.007  0.00  0.00    +0.113 C 
BRANCH  22  23
ATOM     23  C   UNL     1       0.752  -0.549   1.238  0.00  0.00    +0.194 C 
ATOM     24  N   UNL     1       0.122  -0.006   2.447  0.00  0.00    -0.362 N 
ATOM     25  C   UNL     1       1.020   0.703   3.070  0.00  0.00    +0.060 A 
ATOM     26  C   UNL     1       0.991   1.480   4.316  0.00  0.00    +0.027 A 
ATOM     27  C   UNL     1       2.102   2.126   4.723  0.00  0.00    +0.002 A 
ATOM     28  C   UNL     1       3.307   2.092   3.999  0.00  0.00    +0.002 A 
ATOM     29  C   UNL     1       3.441   1.410   2.844  0.00  0.00    +0.027 A 
ATOM     30  C   UNL     1       2.296   0.666   2.304  0.00  0.00    +0.060 A 
ATOM     31  N   UNL     1       2.137  -0.064   1.237  0.00  0.00    -0.362 N 
ATOM     32  H   UNL     1      -0.794  -0.148   2.731  0.00  0.00    +0.162 HD
ATOM     33  H   UNL     1       2.811  -0.252   0.566  0.00  0.00    +0.162 HD
ENDBRANCH  22  23
ENDBRANCH   1  22
TORSDOF 5
