REMARK  Name = ZINC43726303
REMARK  13 active torsions:
REMARK  status: ('A' for Active; 'I' for Inactive)
REMARK    1  A    between atoms: C_1  and  C_2
REMARK    2  A    between atoms: C_7  and  O_39
REMARK    3  A    between atoms: C_12  and  C_38
REMARK    4  A    between atoms: C_15  and  O_23
REMARK    5  A    between atoms: C_18  and  O_22
REMARK    6  A    between atoms: C_19  and  O_21
REMARK    7  A    between atoms: O_23  and  C_24
REMARK    8  A    between atoms: C_24  and  C_26
REMARK    9  A    between atoms: C_27  and  O_34
REMARK   10  A    between atoms: C_31  and  C_32
REMARK   11  A    between atoms: C_31  and  C_33
REMARK   12  A    between atoms: O_34  and  C_35
REMARK   13  A    between atoms: C_35  and  C_37
REMARK                            x       y       z     vdW  Elec       q    Type
REMARK                         _______ _______ _______ _____ _____    ______ ____
ROOT
ATOM      1  C   UNL     1      -1.121   1.581  -1.943  0.00  0.00    +0.018 C 
ATOM      2  C   UNL     1      -0.904   0.104  -1.598  0.00  0.00    +0.087 C 
ATOM      3  C   UNL     1       0.121  -0.504  -2.541  0.00  0.00    +0.150 C 
ATOM      4  O   UNL     1       0.003  -0.625  -3.738  0.00  0.00    -0.296 OA
ATOM      5  C   UNL     1       1.300  -0.919  -1.696  0.00  0.00    +0.090 C 
ATOM      6  C   UNL     1       2.625  -0.691  -2.388  0.00  0.00    +0.131 C 
ATOM      7  C   UNL     1       2.817  -1.773  -3.456  0.00  0.00    +0.037 C 
ATOM      8  C   UNL     1       2.930  -3.139  -2.760  0.00  0.00    +0.007 C 
ATOM      9  C   UNL     1       1.595  -3.469  -2.099  0.00  0.00    +0.016 C 
ATOM     10  C   UNL     1       1.132  -2.339  -1.181  0.00  0.00    +0.058 C 
ATOM     11  C   UNL     1      -0.286  -2.523  -0.650  0.00  0.00    +0.184 C 
ATOM     12  C   UNL     1      -0.637  -1.431   0.366  0.00  0.00    +0.083 C 
ATOM     13  C   UNL     1      -0.312  -0.034  -0.178  0.00  0.00    +0.105 C 
ATOM     14  C   UNL     1       1.220  -0.005  -0.438  0.00  0.00    +0.163 C 
ATOM     15  C   UNL     1       0.521  -3.867  -3.097  0.00  0.00    +0.183 C 
ATOM     16  C   UNL     1       1.012  -4.794  -4.205  0.00  0.00    +0.046 C 
ATOM     17  C   UNL     1       2.292  -4.303  -4.858  0.00  0.00    +0.010 C 
ATOM     18  C   UNL     1       3.388  -4.151  -3.802  0.00  0.00    -0.031 C 
ATOM     19  C   UNL     1       4.662  -3.644  -4.510  0.00  0.00    +0.011 C 
ATOM     20  C   UNL     1       3.752  -5.515  -3.220  0.00  0.00    +0.011 C 
ATOM     21  C   UNL     1       1.793  -4.668  -1.134  0.00  0.00    +0.015 C 
ENDROOT
BRANCH  14  22
ATOM     22  O   UNL     1       1.688   1.313  -0.705  0.00  0.00    -0.388 OA
ATOM     23  H   UNL     1       1.651   1.906   0.058  0.00  0.00    +0.210 HD
ENDBRANCH  14  22
BRANCH  13  24
ATOM     24  O   UNL     1      -0.742   1.011   0.700  0.00  0.00    -0.385 OA
ATOM     25  H   UNL     1      -1.698   1.038   0.842  0.00  0.00    +0.210 HD
ENDBRANCH  13  24
BRANCH   6  26
ATOM     26  O   UNL     1       2.626   0.588  -3.025  0.00  0.00    -0.391 OA
ATOM     27  H   UNL     1       3.449   0.796  -3.488  0.00  0.00    +0.210 HD
ENDBRANCH   6  26
BRANCH  11  28
ATOM     28  O   UNL     1      -1.262  -2.490  -1.689  0.00  0.00    -0.461 OA
BRANCH  28  29
ATOM     29  C   UNL     1      -2.436  -3.092  -1.442  0.00  0.00    +0.304 C 
ATOM     30  O   UNL     1      -2.662  -3.549  -0.346  0.00  0.00    -0.251 OA
ATOM     31  C   UNL     1      -3.472  -3.198  -2.531  0.00  0.00    +0.136 C 
ENDBRANCH  28  29
ENDBRANCH  11  28
BRANCH  15  32
ATOM     32  O   UNL     1      -0.493  -4.620  -2.394  0.00  0.00    -0.461 OA
BRANCH  32  33
ATOM     33  C   UNL     1      -0.208  -5.897  -2.098  0.00  0.00    +0.304 C 
ATOM     34  O   UNL     1       0.892  -6.340  -2.329  0.00  0.00    -0.251 OA
ATOM     35  C   UNL     1      -1.260  -6.780  -1.476  0.00  0.00    +0.136 C 
ENDBRANCH  32  33
ENDBRANCH  15  32
TORSDOF 7
