REMARK  Name = ZINC39687295
REMARK  11 active torsions:
REMARK  status: ('A' for Active; 'I' for Inactive)
REMARK    1  A    between atoms: C_1  and  C_2
REMARK    2  A    between atoms: C_2  and  C_3
REMARK    3  A    between atoms: C_3  and  C_4
REMARK    4  A    between atoms: C_4  and  C_5
REMARK    5  A    between atoms: C_5  and  C_7
REMARK    6  A    between atoms: C_5  and  C_8
REMARK    7  A    between atoms: C_12  and  C_21
REMARK    8  A    between atoms: N_23  and  C_24
REMARK    9  A    between atoms: C_24  and  C_26
REMARK   10  A    between atoms: C_24  and  C_33
REMARK   11  A    between atoms: C_26  and  C_27
REMARK                            x       y       z     vdW  Elec       q    Type
REMARK                         _______ _______ _______ _____ _____    ______ ____
ROOT
ATOM      1  C   UNL     1       1.754  -3.386   2.562  0.00  0.00    +0.218 C 
ATOM      2  O   UNL     1       1.122  -3.715   1.580  0.00  0.00    -0.275 OA
ATOM      3  N   UNL     1       2.144  -4.316   3.455  0.00  0.00    -0.300 N 
ATOM      4  C   UNL     1       2.911  -4.109   4.706  0.00  0.00    +0.121 C 
ATOM      5  C   UNL     1       2.262  -5.073   5.725  0.00  0.00    +0.100 C 
ATOM      6  C   UNL     1       1.605  -6.167   4.867  0.00  0.00    -0.004 C 
ATOM      7  C   UNL     1       1.898  -5.778   3.411  0.00  0.00    +0.115 C 
ATOM      8  C   UNL     1       0.098  -6.192   5.107  0.00  0.00    -0.010 C 
ATOM      9  C   UNL     1      -0.525  -7.325   4.286  0.00  0.00    -0.082 C 
ATOM     10  N   UNL     1       0.075  -8.605   4.681  0.00  0.00    +0.379 N 
ATOM     11  C   UNL     1       1.508  -8.606   4.361  0.00  0.00    -0.082 C 
ATOM     12  C   UNL     1       2.217  -7.528   5.185  0.00  0.00    -0.010 C 
ATOM     13  H   UNL     1      -0.047  -8.741   5.673  0.00  0.00    -0.086 HD
ATOM     14  H   UNL     1      -0.380  -9.356   4.183  0.00  0.00    -0.086 HD
ENDROOT
BRANCH   5  15
ATOM     15  C   UNL     1       1.224  -4.351   6.544  0.00  0.00    +0.219 C 
ATOM     16  O   UNL     1       1.196  -4.491   7.748  0.00  0.00    -0.275 OA
ATOM     17  N   UNL     1       0.327  -3.547   5.938  0.00  0.00    -0.303 N 
ATOM     18  H   UNL     1       0.350  -3.435   4.975  0.00  0.00    +0.149 HD
BRANCH  17  19
ATOM     19  C   UNL     1      -0.682  -2.845   6.734  0.00  0.00    +0.163 C 
BRANCH  19  20
ATOM     20  C   UNL     1      -1.880  -2.540   5.871  0.00  0.00    +0.236 C 
ATOM     21  O   UNL     1      -1.765  -2.510   4.664  0.00  0.00    -0.274 OA
ATOM     22  N   UNL     1      -3.077  -2.301   6.441  0.00  0.00    -0.300 N 
ATOM     23  C   UNL     1      -3.256  -2.434   7.893  0.00  0.00    +0.108 C 
ATOM     24  C   UNL     1      -3.853  -1.132   8.438  0.00  0.00    +0.019 C 
ATOM     25  C   UNL     1      -5.138  -0.807   7.674  0.00  0.00    +0.003 C 
ATOM     26  C   UNL     1      -4.816  -0.607   6.191  0.00  0.00    +0.019 C 
ATOM     27  C   UNL     1      -4.229  -1.897   5.622  0.00  0.00    +0.108 C 
ENDBRANCH  19  20
BRANCH  19  28
ATOM     28  C   UNL     1      -0.092  -1.538   7.267  0.00  0.00    +0.067 C 
BRANCH  28  29
ATOM     29  C   UNL     1       1.008  -1.847   8.249  0.00  0.00    -0.045 A 
ATOM     30  C   UNL     1       0.715  -1.999   9.591  0.00  0.00    +0.004 A 
ATOM     31  C   UNL     1       1.724  -2.283  10.492  0.00  0.00    +0.000 A 
ATOM     32  C   UNL     1       3.027  -2.416  10.050  0.00  0.00    +0.000 A 
ATOM     33  C   UNL     1       3.321  -2.265   8.708  0.00  0.00    +0.000 A 
ATOM     34  C   UNL     1       2.311  -1.985   7.807  0.00  0.00    +0.004 A 
ENDBRANCH  28  29
ENDBRANCH  19  28
ENDBRANCH  17  19
ENDBRANCH   5  15
BRANCH   1  35
ATOM     35  C   UNL     1       2.104  -1.937   2.782  0.00  0.00    +0.072 C 
ATOM     36  C   UNL     1       3.625  -1.781   2.837  0.00  0.00    +0.017 C 
BRANCH  35  37
ATOM     37  C   UNL     1       1.547  -1.097   1.631  0.00  0.00    +0.012 C 
BRANCH  37  38
ATOM     38  C   UNL     1       1.792   0.386   1.916  0.00  0.00    +0.000 C 
BRANCH  38  40
ATOM     39  C   UNL     1       1.481   2.709   1.050  0.00  0.00    +0.004 C 
ATOM     40  C   UNL     1       1.235   1.226   0.765  0.00  0.00    -0.003 C 
ENDBRANCH  38  40
ENDBRANCH  37  38
ENDBRANCH  35  37
ENDBRANCH   1  35
TORSDOF 9
