REMARK  Name = ZINC01276549
REMARK  12 active torsions:
REMARK  status: ('A' for Active; 'I' for Inactive)
REMARK    1  A    between atoms: C_1  and  C_2
REMARK    2  A    between atoms: C_2  and  C_43
REMARK    3  A    between atoms: C_6  and  C_17
REMARK    4  A    between atoms: C_11  and  C_15
REMARK    5  A    between atoms: C_11  and  C_16
REMARK    6  A    between atoms: C_20  and  O_38
REMARK    7  A    between atoms: C_21  and  C_23
REMARK    8  A    between atoms: C_23  and  N_24
REMARK    9  A    between atoms: N_27  and  C_30
REMARK   10  A    between atoms: C_35  and  O_36
REMARK   11  A    between atoms: O_36  and  C_37
REMARK   12  A    between atoms: O_38  and  C_39
REMARK                            x       y       z     vdW  Elec       q    Type
REMARK                         _______ _______ _______ _____ _____    ______ ____
ROOT
ATOM      1  C   UNL     1      -0.875  -4.690   2.042  0.00  0.00    -0.035 A 
ATOM      2  C   UNL     1      -2.144  -4.355   2.478  0.00  0.00    +0.008 A 
ATOM      3  C   UNL     1      -2.589  -4.789   3.711  0.00  0.00    +0.046 A 
ATOM      4  C   UNL     1      -1.762  -5.562   4.513  0.00  0.00    +0.121 A 
ATOM      5  C   UNL     1      -0.490  -5.898   4.073  0.00  0.00    -0.022 A 
ATOM      6  C   UNL     1      -0.051  -5.466   2.836  0.00  0.00    +0.010 A 
ENDROOT
BRANCH   1  12
ATOM      7  C   UNL     1      -0.019   1.526   0.010  0.00  0.00    +0.012 C 
ATOM      8  C   UNL     1       0.002  -0.004   0.002  0.00  0.00    -0.021 C 
ATOM      9  C   UNL     1      -1.432  -0.538   0.038  0.00  0.00    +0.081 C 
ATOM     10  C   UNL     1      -1.410  -2.047   0.073  0.00  0.00    +0.113 C 
ATOM     11  C   UNL     1      -0.398  -2.707   0.667  0.00  0.00    +0.045 C 
ATOM     12  C   UNL     1      -0.392  -4.215   0.696  0.00  0.00    +0.092 C 
ATOM     13  C   UNL     1      -1.296  -4.762  -0.381  0.00  0.00    +0.045 C 
ATOM     14  C   UNL     1      -2.257  -3.986  -0.915  0.00  0.00    +0.113 C 
ATOM     15  O   UNL     1      -2.425  -2.718  -0.500  0.00  0.00    -0.464 OA
ATOM     16  C   UNL     1      -3.174  -4.520  -1.989  0.00  0.00    +0.081 C 
ATOM     17  C   UNL     1      -2.433  -5.566  -2.825  0.00  0.00    -0.021 C 
ATOM     18  C   UNL     1      -1.960  -6.687  -1.892  0.00  0.00    +0.086 C 
ATOM     19  C   UNL     1      -1.106  -6.090  -0.807  0.00  0.00    +0.164 C 
ATOM     20  O   UNL     1      -0.238  -6.766  -0.290  0.00  0.00    -0.292 OA
ATOM     21  C   UNL     1      -3.377  -6.142  -3.882  0.00  0.00    +0.012 C 
ATOM     22  C   UNL     1      -1.225  -4.920  -3.505  0.00  0.00    +0.012 C 
ATOM     23  C   UNL     1       0.674  -2.019   1.266  0.00  0.00    +0.164 C 
ATOM     24  O   UNL     1       1.558  -2.649   1.811  0.00  0.00    -0.292 OA
ATOM     25  C   UNL     1       0.743  -0.516   1.242  0.00  0.00    +0.086 C 
ATOM     26  C   UNL     1       0.709  -0.502  -1.260  0.00  0.00    +0.012 C 
ENDBRANCH   1  12
BRANCH   4  27
ATOM     27  O   UNL     1      -2.197  -5.990   5.727  0.00  0.00    -0.495 OA
ATOM     28  C   UNL     1      -3.518  -5.606   6.115  0.00  0.00    +0.277 C 
ENDBRANCH   4  27
BRANCH   5  29
ATOM     29  C   UNL     1       0.411  -6.738   4.941  0.00  0.00    -0.039 C 
BRANCH  29  30
ATOM     30  N   UNL     1       0.937  -5.917   6.040  0.00  0.00    +0.384 N 
ATOM     31  C   UNL     1       1.789  -4.855   5.491  0.00  0.00    -0.059 C 
ATOM     32  C   UNL     1       2.245  -3.930   6.625  0.00  0.00    +0.086 C 
ATOM     33  N   UNL     1       2.888  -4.748   7.664  0.00  0.00    -0.331 N 
ATOM     34  C   UNL     1       2.169  -5.933   8.157  0.00  0.00    +0.086 C 
ATOM     35  C   UNL     1       1.717  -6.763   6.952  0.00  0.00    -0.059 C 
ATOM     36  H   UNL     1       0.168  -5.501   6.545  0.00  0.00    -0.081 HD
BRANCH  33  37
ATOM     37  C   UNL     1       4.148  -4.409   8.171  0.00  0.00    +0.072 A 
ATOM     38  C   UNL     1       4.252  -3.575   9.275  0.00  0.00    +0.027 A 
ATOM     39  C   UNL     1       5.498  -3.242   9.773  0.00  0.00    +0.002 A 
ATOM     40  C   UNL     1       6.641  -3.737   9.173  0.00  0.00    +0.004 A 
ATOM     41  C   UNL     1       6.545  -4.568   8.072  0.00  0.00    +0.047 A 
ATOM     42  C   UNL     1       5.300  -4.911   7.570  0.00  0.00    +0.141 A 
BRANCH  42  43
ATOM     43  O   UNL     1       5.204  -5.732   6.490  0.00  0.00    -0.493 OA
ATOM     44  C   UNL     1       6.427  -6.210   5.927  0.00  0.00    +0.277 C 
ENDBRANCH  42  43
ENDBRANCH  33  37
ENDBRANCH  29  30
ENDBRANCH   5  29
TORSDOF 6
