REMARK  Name = ZINC33371690
REMARK  5 active torsions:
REMARK  status: ('A' for Active; 'I' for Inactive)
REMARK    1  A    between atoms: C_1  and  C_2
REMARK    2  A    between atoms: C_2  and  C_3
REMARK    3  A    between atoms: C_2  and  C_4
REMARK    4  A    between atoms: C_7  and  N_10
REMARK    5  A    between atoms: C_19  and  C_33
REMARK                            x       y       z     vdW  Elec       q    Type
REMARK                         _______ _______ _______ _____ _____    ______ ____
ROOT
ATOM      1  N   UNL     1      -5.323  -1.969   0.042  0.00  0.00    -0.210 N 
ATOM      2  C   UNL     1      -6.226  -1.690   1.039  0.00  0.00    +0.231 C 
ATOM      3  O   UNL     1      -5.998  -1.179   2.115  0.00  0.00    -0.274 OA
ATOM      4  C   UNL     1      -7.531  -2.144   0.525  0.00  0.00    +0.101 C 
ATOM      5  C   UNL     1      -7.054  -3.327  -0.357  0.00  0.00    +0.114 C 
ATOM      6  C   UNL     1      -5.846  -2.770  -0.951  0.00  0.00    +0.232 C 
ATOM      7  O   UNL     1      -5.400  -2.968  -2.060  0.00  0.00    -0.274 OA
ATOM      8  C   UNL     1      -8.209  -4.126  -0.801  0.00  0.00    +0.134 C 
ATOM      9  C   UNL     1      -9.446  -3.268  -0.970  0.00  0.00    -0.022 A 
ATOM     10  C   UNL     1     -10.207  -3.204  -2.104  0.00  0.00    +0.005 A 
ATOM     11  C   UNL     1     -11.346  -2.411  -2.106  0.00  0.00    +0.000 A 
ATOM     12  C   UNL     1     -11.713  -1.698  -0.979  0.00  0.00    +0.000 A 
ATOM     13  C   UNL     1     -10.928  -1.750   0.168  0.00  0.00    +0.004 A 
ATOM     14  C   UNL     1      -9.801  -2.510   0.149  0.00  0.00    -0.035 A 
ATOM     15  C   UNL     1      -8.742  -2.583   1.299  0.00  0.00    +0.062 C 
ATOM     16  C   UNL     1      -8.694  -4.083   1.574  0.00  0.00    -0.035 A 
ATOM     17  C   UNL     1      -8.506  -4.903   0.488  0.00  0.00    -0.022 A 
ATOM     18  C   UNL     1      -8.542  -6.255   0.611  0.00  0.00    +0.005 A 
ATOM     19  C   UNL     1      -8.768  -6.801   1.870  0.00  0.00    +0.000 A 
ATOM     20  C   UNL     1      -8.947  -5.974   2.963  0.00  0.00    +0.000 A 
ATOM     21  C   UNL     1      -8.869  -4.636   2.814  0.00  0.00    +0.004 A 
ENDROOT
BRANCH   1  25
ATOM     22  C   UNL     1      -1.412  -0.526   0.013  0.00  0.00    -0.045 A 
ATOM     23  C   UNL     1      -2.258  -0.203   1.058  0.00  0.00    +0.006 A 
ATOM     24  C   UNL     1      -3.555  -0.680   1.070  0.00  0.00    +0.024 A 
ATOM     25  C   UNL     1      -4.008  -1.483   0.032  0.00  0.00    +0.044 A 
ATOM     26  C   UNL     1      -3.155  -1.805  -1.016  0.00  0.00    +0.024 A 
ATOM     27  C   UNL     1      -1.862  -1.321  -1.025  0.00  0.00    +0.006 A 
BRANCH  22  29
ATOM     28  C   UNL     1      -0.019   1.526   0.010  0.00  0.00    +0.012 C 
ATOM     29  C   UNL     1       0.002  -0.004   0.002  0.00  0.00    +0.013 C 
ATOM     30  C   UNL     1       0.742  -0.511   1.242  0.00  0.00    +0.012 C 
ENDBRANCH  22  29
ENDBRANCH   1  25
BRANCH   8  31
ATOM     31  C   UNL     1      -7.906  -5.005  -1.986  0.00  0.00    +0.371 C 
ATOM     32  O   UNL     1      -8.499  -6.061  -2.129  0.00  0.00    -0.245 OA
ATOM     33  O   UNL     1      -7.068  -4.662  -2.802  0.00  0.00    -0.245 OA
ENDBRANCH   8  31
TORSDOF 3
