REMARK  Name = ZINC10769326
REMARK  9 active torsions:
REMARK  status: ('A' for Active; 'I' for Inactive)
REMARK    1  A    between atoms: C_1  and  C_2
REMARK    2  A    between atoms: C_2  and  C_4
REMARK    3  A    between atoms: C_2  and  N_21
REMARK    4  A    between atoms: N_6  and  C_7
REMARK    5  A    between atoms: C_10  and  S_13
REMARK    6  A    between atoms: S_13  and  N_16
REMARK    7  A    between atoms: N_21  and  C_22
REMARK    8  A    between atoms: C_25  and  N_28
REMARK    9  A    between atoms: C_29  and  C_31
REMARK                            x       y       z     vdW  Elec       q    Type
REMARK                         _______ _______ _______ _____ _____    ______ ____
ROOT
ATOM      1  C   UNL     1      -0.928   1.242  -1.124  0.00  0.00    +0.237 C 
ATOM      2  O   UNL     1      -0.537   1.975  -2.008  0.00  0.00    -0.273 OA
ATOM      3  N   UNL     1      -2.214   0.838  -1.103  0.00  0.00    -0.284 N 
ATOM      4  H   UNL     1      -2.545   0.313  -0.357  0.00  0.00    +0.155 HD
ENDROOT
BRANCH   3   5
ATOM      5  C   UNL     1      -3.071   1.175  -2.156  0.00  0.00    +0.034 A 
ATOM      6  C   UNL     1      -4.419   1.400  -1.912  0.00  0.00    +0.025 A 
ATOM      7  C   UNL     1      -5.261   1.738  -2.953  0.00  0.00    +0.030 A 
ATOM      8  C   UNL     1      -4.765   1.842  -4.239  0.00  0.00    +0.106 A 
ATOM      9  C   UNL     1      -3.424   1.614  -4.487  0.00  0.00    +0.030 A 
ATOM     10  C   UNL     1      -2.576   1.281  -3.450  0.00  0.00    +0.025 A 
BRANCH   8  11
ATOM     11  S   UNL     1      -5.845   2.267  -5.566  0.00  0.00    +0.061 S 
ATOM     12  O   UNL     1      -6.941   2.963  -4.990  0.00  0.00    -0.153 OA
ATOM     13  O   UNL     1      -5.032   2.834  -6.585  0.00  0.00    -0.153 OA
BRANCH  11  14
ATOM     14  N   UNL     1      -6.450   0.852  -6.176  0.00  0.00    -0.177 NA
ATOM     15  C   UNL     1      -5.851   0.061  -7.262  0.00  0.00    +0.109 C 
ATOM     16  C   UNL     1      -6.771  -1.154  -7.505  0.00  0.00    +0.018 C 
ATOM     17  C   UNL     1      -8.133  -0.675  -6.938  0.00  0.00    +0.018 C 
ATOM     18  C   UNL     1      -7.683   0.179  -5.726  0.00  0.00    +0.109 C 
ENDBRANCH  11  14
ENDBRANCH   8  11
ENDBRANCH   3   5
BRANCH   1  20
ATOM     19  C   UNL     1      -0.487   1.246   1.316  0.00  0.00    +0.038 C 
ATOM     20  C   UNL     1       0.024   0.782  -0.050  0.00  0.00    +0.154 C 
BRANCH  20  21
ATOM     21  N   UNL     1       1.350   1.355  -0.295  0.00  0.00    -0.333 N 
ATOM     22  H   UNL     1       1.437   2.178  -0.801  0.00  0.00    +0.147 HD
BRANCH  21  23
ATOM     23  C   UNL     1       2.491   0.714   0.199  0.00  0.00    +0.028 A 
ATOM     24  C   UNL     1       2.366  -0.463   0.927  0.00  0.00    +0.025 A 
ATOM     25  C   UNL     1       3.493  -1.098   1.410  0.00  0.00    +0.025 A 
ATOM     26  C   UNL     1       4.749  -0.556   1.177  0.00  0.00    +0.034 A 
ATOM     27  C   UNL     1       4.874   0.623   0.454  0.00  0.00    +0.025 A 
ATOM     28  C   UNL     1       3.748   1.256  -0.034  0.00  0.00    +0.025 A 
BRANCH  26  29
ATOM     29  N   UNL     1       5.892  -1.198   1.672  0.00  0.00    -0.285 N 
ATOM     30  C   UNL     1       6.958  -0.471   2.062  0.00  0.00    +0.220 C 
ATOM     31  O   UNL     1       6.895   0.740   2.071  0.00  0.00    -0.275 OA
ATOM     32  H   UNL     1       5.916  -2.166   1.735  0.00  0.00    +0.155 HD
BRANCH  30  33
ATOM     33  C   UNL     1       8.228  -1.163   2.485  0.00  0.00    +0.075 C 
ATOM     34  C   UNL     1       8.620  -1.079   3.962  0.00  0.00    +0.013 C 
ATOM     35  C   UNL     1       9.403  -0.282   2.916  0.00  0.00    +0.013 C 
ENDBRANCH  30  33
ENDBRANCH  26  29
ENDBRANCH  21  23
ENDBRANCH  20  21
ENDBRANCH   1  20
TORSDOF 8
