REMARK  Name = ZINC13058517
REMARK  8 active torsions:
REMARK  status: ('A' for Active; 'I' for Inactive)
REMARK    1  A    between atoms: C_1  and  C_2
REMARK    2  A    between atoms: C_2  and  C_4
REMARK    3  A    between atoms: C_2  and  N_16
REMARK    4  A    between atoms: N_19  and  S_22
REMARK    5  A    between atoms: S_22  and  C_25
REMARK    6  A    between atoms: C_28  and  C_31
REMARK    7  A    between atoms: C_31  and  C_32
REMARK    8  A    between atoms: C_31  and  C_33
REMARK                            x       y       z     vdW  Elec       q    Type
REMARK                         _______ _______ _______ _____ _____    ______ ____
ROOT
ATOM      1  N   UNL     1       0.593  -0.451   1.270  0.00  0.00    -0.290 NA
ATOM      2  C   UNL     1       0.848  -1.898   1.251  0.00  0.00    +0.102 C 
ATOM      3  C   UNL     1       1.626  -2.293   2.511  0.00  0.00    +0.125 C 
ATOM      4  N   UNL     1       0.888  -1.807   3.687  0.00  0.00    -0.174 NA
ATOM      5  C   UNL     1       0.477  -0.395   3.716  0.00  0.00    +0.125 C 
ATOM      6  C   UNL     1      -0.256  -0.075   2.409  0.00  0.00    +0.102 C 
ENDROOT
BRANCH   4   7
ATOM      7  S   UNL     1       0.531  -2.822   4.946  0.00  0.00    +0.061 S 
ATOM      8  O   UNL     1      -0.599  -2.269   5.605  0.00  0.00    -0.153 OA
ATOM      9  O   UNL     1       0.535  -4.141   4.417  0.00  0.00    -0.153 OA
BRANCH   7  10
ATOM     10  C   UNL     1       1.873  -2.732   6.084  0.00  0.00    +0.105 A 
ATOM     11  C   UNL     1       2.947  -3.593   5.956  0.00  0.00    +0.029 A 
ATOM     12  C   UNL     1       3.999  -3.523   6.849  0.00  0.00    +0.006 A 
ATOM     13  C   UNL     1       3.978  -2.591   7.870  0.00  0.00    -0.045 A 
ATOM     14  C   UNL     1       2.905  -1.730   7.998  0.00  0.00    +0.006 A 
ATOM     15  C   UNL     1       1.854  -1.798   7.102  0.00  0.00    +0.029 A 
BRANCH  13  16
ATOM     16  C   UNL     1       5.125  -2.515   8.845  0.00  0.00    +0.013 C 
ATOM     17  C   UNL     1       5.758  -1.124   8.780  0.00  0.00    +0.012 C 
ATOM     18  C   UNL     1       4.609  -2.775  10.262  0.00  0.00    +0.012 C 
ENDBRANCH  13  16
ENDBRANCH   7  10
ENDBRANCH   4   7
BRANCH   1  20
ATOM     19  C   UNL     1      -1.463  -0.440  -0.059  0.00  0.00    +0.032 C 
ATOM     20  C   UNL     1       0.002  -0.004   0.002  0.00  0.00    +0.120 C 
BRANCH  20  21
ATOM     21  C   UNL     1       0.084   1.498  -0.088  0.00  0.00    +0.127 A 
ATOM     22  N   UNL     1      -0.526   2.115  -1.133  0.00  0.00    -0.309 N 
ATOM     23  H   UNL     1      -0.998   1.585  -1.796  0.00  0.00    +0.170 HD
ATOM     24  C   UNL     1      -0.483   3.462  -1.260  0.00  0.00    +0.259 A 
ATOM     25  O   UNL     1      -1.026   4.028  -2.191  0.00  0.00    -0.267 OA
ATOM     26  C   UNL     1       0.245   4.215  -0.228  0.00  0.00    +0.065 A 
ATOM     27  C   UNL     1       0.350   5.604  -0.265  0.00  0.00    +0.015 A 
ATOM     28  C   UNL     1       1.045   6.259   0.728  0.00  0.00    +0.001 A 
ATOM     29  C   UNL     1       1.639   5.547   1.762  0.00  0.00    +0.002 A 
ATOM     30  C   UNL     1       1.548   4.175   1.817  0.00  0.00    +0.028 A 
ATOM     31  C   UNL     1       0.849   3.488   0.822  0.00  0.00    +0.078 A 
ATOM     32  N   UNL     1       0.729   2.137   0.840  0.00  0.00    -0.232 NA
ENDBRANCH  20  21
ENDBRANCH   1  20
TORSDOF 5
