REMARK  Name = ZINC04914120
REMARK  3 active torsions:
REMARK  status: ('A' for Active; 'I' for Inactive)
REMARK    1  A    between atoms: C_3  and  C_6
REMARK    2  A    between atoms: C_11  and  C_17
REMARK    3  A    between atoms: C_20  and  N_23
REMARK                            x       y       z     vdW  Elec       q    Type
REMARK                         _______ _______ _______ _____ _____    ______ ____
ROOT
ATOM      1  C   UNL     1      -5.949   6.713  -3.164  0.00  0.00    +0.039 C 
ATOM      2  C   UNL     1      -4.668   7.019  -2.386  0.00  0.00    +0.060 C 
ATOM      3  C   UNL     1      -4.588   6.131  -1.170  0.00  0.00    +0.018 C 
ATOM      4  C   UNL     1      -5.133   4.896  -1.178  0.00  0.00    +0.020 C 
ATOM      5  C   UNL     1      -5.034   4.022   0.050  0.00  0.00    +0.063 C 
ATOM      6  C   UNL     1      -5.120   4.895   1.303  0.00  0.00    +0.109 C 
ATOM      7  C   UNL     1      -4.175   6.060   1.159  0.00  0.00    +0.218 C 
ATOM      8  O   UNL     1      -3.615   6.509   2.136  0.00  0.00    -0.275 OA
ATOM      9  N   UNL     1      -3.951   6.602  -0.051  0.00  0.00    -0.289 N 
ATOM     10  C   UNL     1      -5.798   4.398  -2.311  0.00  0.00    +0.162 C 
ATOM     11  O   UNL     1      -6.265   3.276  -2.285  0.00  0.00    -0.292 OA
ATOM     12  C   UNL     1      -5.941   5.231  -3.556  0.00  0.00    +0.088 C 
ATOM     13  H   UNL     1      -3.326   7.340  -0.133  0.00  0.00    +0.155 HD
ENDROOT
BRANCH   5  14
ATOM     14  C   UNL     1      -3.719   3.286   0.038  0.00  0.00    -0.039 A 
ATOM     15  C   UNL     1      -3.700   1.904   0.030  0.00  0.00    +0.006 A 
ATOM     16  C   UNL     1      -2.494   1.229   0.021  0.00  0.00    +0.033 A 
ATOM     17  C   UNL     1      -1.306   1.936   0.019  0.00  0.00    +0.126 A 
ATOM     18  C   UNL     1      -1.325   3.319   0.032  0.00  0.00    +0.033 A 
ATOM     19  C   UNL     1      -2.531   3.993   0.037  0.00  0.00    +0.006 A 
BRANCH  17  20
ATOM     20  N   UNL     1      -0.014   1.214   0.009  0.00  0.00    +0.056 N 
ATOM     21  O   UNL     1       0.002  -0.004   0.002  0.00  0.00    -0.126 OA
ATOM     22  O   UNL     1       1.032   1.837   0.002  0.00  0.00    -0.126 OA
ENDBRANCH  17  20
ENDBRANCH   5  14
BRANCH   1  25
ATOM     23  C   UNL     1      -6.781   9.156  -5.966  0.00  0.00    +0.008 A 
ATOM     24  C   UNL     1      -6.937   8.482  -4.770  0.00  0.00    +0.011 A 
ATOM     25  C   UNL     1      -6.005   7.567  -4.404  0.00  0.00    -0.006 A 
ATOM     26  S   UNL     1      -4.858   7.643  -5.770  0.00  0.00    -0.101 S 
ATOM     27  C   UNL     1      -5.702   8.882  -6.739  0.00  0.00    +0.045 A 
ENDBRANCH   1  25
TORSDOF 3
