REMARK  Name = ZINC44779619
REMARK  7 active torsions:
REMARK  status: ('A' for Active; 'I' for Inactive)
REMARK    1  A    between atoms: C_1  and  C_2
REMARK    2  A    between atoms: C_2  and  C_4
REMARK    3  A    between atoms: C_2  and  N_10
REMARK    4  A    between atoms: C_4  and  N_5
REMARK    5  A    between atoms: C_11  and  C_13
REMARK    6  A    between atoms: C_13  and  C_20
REMARK    7  A    between atoms: C_20  and  N_22
REMARK                            x       y       z     vdW  Elec       q    Type
REMARK                         _______ _______ _______ _____ _____    ______ ____
ROOT
ATOM      1  N   UNL     1      -1.408  -0.309  -0.072  0.00  0.00    -0.314 N 
ATOM      2  C   UNL     1      -2.033  -0.675  -1.208  0.00  0.00    +0.225 C 
ATOM      3  O   UNL     1      -1.482  -0.526  -2.278  0.00  0.00    -0.275 OA
ATOM      4  H   UNL     1      -1.871  -0.368   0.778  0.00  0.00    +0.149 HD
ENDROOT
BRANCH   2   5
ATOM      5  C   UNL     1      -3.417  -1.269  -1.149  0.00  0.00    +0.091 C 
ATOM      6  C   UNL     1      -4.305  -0.377  -0.258  0.00  0.00    +0.023 C 
ATOM      7  C   UNL     1      -3.992   1.063  -0.559  0.00  0.00    +0.001 C 
ATOM      8  C   UNL     1      -4.940   1.665  -1.613  0.00  0.00    +0.000 C 
ATOM      9  C   UNL     1      -5.227   0.699  -2.779  0.00  0.00    +0.000 C 
ATOM     10  C   UNL     1      -3.996  -0.036  -3.235  0.00  0.00    +0.001 C 
ATOM     11  C   UNL     1      -3.935  -1.392  -2.503  0.00  0.00    +0.023 C 
BRANCH   5  12
ATOM     12  C   UNL     1      -3.332  -2.642  -0.532  0.00  0.00    +0.061 C 
ATOM     13  S   UNL     1      -3.636  -3.937  -1.418  0.00  0.00    -0.040 S 
BRANCH  12  14
ATOM     14  N   UNL     1      -2.999  -2.777   0.767  0.00  0.00    -0.355 N 
ATOM     15  H   UNL     1      -2.747  -1.998   1.287  0.00  0.00    +0.143 HD
ATOM     16  H   UNL     1      -3.011  -3.654   1.182  0.00  0.00    +0.143 HD
ENDBRANCH  12  14
ENDBRANCH   5  12
ENDBRANCH   2   5
BRANCH   1  18
ATOM     17  C   UNL     1      -0.026   1.677  -0.430  0.00  0.00    +0.026 C 
ATOM     18  C   UNL     1      -0.027   0.179  -0.120  0.00  0.00    +0.053 C 
BRANCH  18  19
ATOM     19  C   UNL     1       0.647  -0.062   1.232  0.00  0.00    -0.057 C 
BRANCH  19  20
ATOM     20  N   UNL     1       0.540  -1.484   1.585  0.00  0.00    +0.381 N 
ATOM     21  C   UNL     1       1.378  -2.303   0.673  0.00  0.00    -0.079 C 
ATOM     22  C   UNL     1       1.612  -3.605   1.479  0.00  0.00    -0.020 C 
ATOM     23  C   UNL     1       1.768  -3.091   2.928  0.00  0.00    -0.020 C 
ATOM     24  C   UNL     1       1.080  -1.714   2.943  0.00  0.00    -0.079 C 
ATOM     25  H   UNL     1      -0.422  -1.783   1.538  0.00  0.00    -0.082 HD
ENDBRANCH  19  20
ENDBRANCH  18  19
ENDBRANCH   1  18
TORSDOF 6
