REMARK  Name = ZINC40322122
REMARK  10 active torsions:
REMARK  status: ('A' for Active; 'I' for Inactive)
REMARK    1  A    between atoms: C_1  and  C_2
REMARK    2  A    between atoms: C_2  and  C_3
REMARK    3  A    between atoms: C_2  and  C_4
REMARK    4  A    between atoms: C_7  and  C_10
REMARK    5  A    between atoms: C_10  and  C_12
REMARK    6  A    between atoms: C_10  and  N_31
REMARK    7  A    between atoms: C_12  and  N_13
REMARK    8  A    between atoms: C_14  and  C_16
REMARK    9  A    between atoms: C_19  and  S_21
REMARK   10  A    between atoms: S_21  and  C_24
REMARK                            x       y       z     vdW  Elec       q    Type
REMARK                         _______ _______ _______ _____ _____    ______ ____
ROOT
ATOM      1  N   UNL     1       2.856   0.316   5.637  0.00  0.00    -0.310 N 
ATOM      2  C   UNL     1       2.612   1.257   6.571  0.00  0.00    +0.279 C 
ATOM      3  O   UNL     1       1.911   0.994   7.531  0.00  0.00    -0.267 OA
ATOM      4  H   UNL     1       3.415   0.526   4.873  0.00  0.00    +0.149 HD
ENDROOT
BRANCH   2   5
ATOM      5  C   UNL     1       3.191   2.597   6.431  0.00  0.00    +0.192 A 
ATOM      6  C   UNL     1       3.029   3.636   7.303  0.00  0.00    +0.056 A 
ATOM      7  C   UNL     1       3.754   4.718   6.779  0.00  0.00    +0.070 A 
ATOM      8  C   UNL     1       4.319   4.297   5.626  0.00  0.00    +0.246 A 
ATOM      9  O   UNL     1       3.982   3.017   5.423  0.00  0.00    -0.433 OA
BRANCH   8  10
ATOM     10  S   UNL     1       5.337   5.271   4.567  0.00  0.00    +0.058 S 
ATOM     11  O   UNL     1       5.251   4.689   3.274  0.00  0.00    -0.161 OA
ATOM     12  O   UNL     1       5.000   6.629   4.816  0.00  0.00    -0.161 OA
BRANCH  10  13
ATOM     13  C   UNL     1       7.001   5.059   5.105  0.00  0.00    +0.097 A 
ATOM     14  C   UNL     1       7.532   5.904   6.062  0.00  0.00    +0.029 A 
ATOM     15  C   UNL     1       8.837   5.738   6.484  0.00  0.00    +0.022 A 
ATOM     16  C   UNL     1       9.613   4.726   5.949  0.00  0.00    +0.041 A 
ATOM     17  C   UNL     1       9.082   3.880   4.992  0.00  0.00    +0.022 A 
ATOM     18  C   UNL     1       7.775   4.043   4.575  0.00  0.00    +0.029 A 
ATOM     19 CL   UNL     1      11.253   4.517   6.479  0.00  0.00    -0.084 Cl
ENDBRANCH  10  13
ENDBRANCH   8  10
ENDBRANCH   2   5
BRANCH   1  20
ATOM     20  C   UNL     1       2.278  -1.022   5.777  0.00  0.00    +0.094 C 
BRANCH  20  21
ATOM     21  C   UNL     1       2.597  -1.849   4.530  0.00  0.00    -0.020 C 
BRANCH  21  22
ATOM     22  N   UNL     1       2.086  -3.215   4.704  0.00  0.00    +0.385 N 
ATOM     23  C   UNL     1       2.758  -3.846   5.846  0.00  0.00    -0.078 C 
ATOM     24  C   UNL     1       2.172  -5.239   6.081  0.00  0.00    -0.019 C 
ATOM     25  C   UNL     1       2.382  -6.094   4.828  0.00  0.00    -0.004 C 
ATOM     26  C   UNL     1       1.741  -5.390   3.629  0.00  0.00    -0.019 C 
ATOM     27  C   UNL     1       2.343  -3.991   3.484  0.00  0.00    -0.078 C 
ATOM     28  H   UNL     1       1.093  -3.182   4.877  0.00  0.00    -0.081 HD
ENDBRANCH  21  22
BRANCH  21  32
ATOM     29  C   UNL     1       0.746  -0.060   1.121  0.00  0.00    -0.045 A 
ATOM     30  C   UNL     1       2.090   0.152   1.369  0.00  0.00    +0.004 A 
ATOM     31  C   UNL     1       2.689  -0.427   2.472  0.00  0.00    +0.002 A 
ATOM     32  C   UNL     1       1.944  -1.217   3.328  0.00  0.00    -0.059 A 
ATOM     33  C   UNL     1       0.600  -1.428   3.081  0.00  0.00    +0.002 A 
ATOM     34  C   UNL     1       0.000  -0.846   1.980  0.00  0.00    +0.004 A 
BRANCH  29  36
ATOM     35  C   UNL     1       0.223   2.093   0.008  0.00  0.00    +0.012 C 
ATOM     36  C   UNL     1       0.093   0.571  -0.082  0.00  0.00    +0.013 C 
ATOM     37  C   UNL     1       0.781   0.075  -1.355  0.00  0.00    +0.012 C 
ENDBRANCH  29  36
ENDBRANCH  21  32
ENDBRANCH  20  21
ENDBRANCH   1  20
TORSDOF 8
