REMARK  Name = ZINC15968016
REMARK  4 active torsions:
REMARK  status: ('A' for Active; 'I' for Inactive)
REMARK    1  A    between atoms: C_16  and  C_19
REMARK    2  A    between atoms: C_19  and  C_20
REMARK    3  A    between atoms: N_25  and  C_28
REMARK    4  A    between atoms: C_28  and  C_29
REMARK                            x       y       z     vdW  Elec       q    Type
REMARK                         _______ _______ _______ _____ _____    ______ ____
ROOT
ATOM      1  C   UNL     1      -0.017   1.379   0.010  0.00  0.00    +0.002 A 
ATOM      2  C   UNL     1       1.174   2.084   0.002  0.00  0.00    +0.008 A 
ATOM      3  C   UNL     1       2.375   1.410  -0.014  0.00  0.00    +0.005 A 
ATOM      4  C   UNL     1       2.407   0.018  -0.022  0.00  0.00    +0.057 A 
ATOM      5  C   UNL     1       1.204  -0.684  -0.014  0.00  0.00    +0.062 A 
ATOM      6  C   UNL     1       0.002  -0.004   0.002  0.00  0.00    +0.022 A 
ATOM      7 CL   UNL     1       1.215  -2.421  -0.024  0.00  0.00    -0.082 Cl
ATOM      8  N   UNL     1       3.729  -0.434  -0.038  0.00  0.00    -0.282 N 
ATOM      9  C   UNL     1       4.613   0.582  -0.039  0.00  0.00    +0.243 C 
ATOM     10  O   UNL     1       5.823   0.489  -0.049  0.00  0.00    -0.273 OA
ATOM     11  C   UNL     1       3.810   1.854  -0.025  0.00  0.00    +0.136 C 
ATOM     12  C   UNL     1       4.120   2.726  -1.248  0.00  0.00    +0.122 C 
ATOM     13  C   UNL     1       5.145   3.774  -0.730  0.00  0.00    +0.107 C 
ATOM     14  C   UNL     1       5.371   3.409   0.752  0.00  0.00    +0.076 C 
ATOM     15  N   UNL     1       4.130   2.680   1.154  0.00  0.00    -0.295 NA
ATOM     16  C   UNL     1       4.390   5.079  -0.830  0.00  0.00    +0.227 C 
ATOM     17  O   UNL     1       4.826   6.166  -0.516  0.00  0.00    -0.275 OA
ATOM     18  N   UNL     1       3.166   4.849  -1.320  0.00  0.00    -0.237 N 
ATOM     19  C   UNL     1       2.904   3.552  -1.603  0.00  0.00    +0.229 C 
ATOM     20  O   UNL     1       1.870   3.115  -2.062  0.00  0.00    -0.275 OA
ATOM     21  H   UNL     1       3.980  -1.371  -0.048  0.00  0.00    +0.155 HD
ATOM     22  H   UNL     1       3.377   3.318   1.363  0.00  0.00    +0.124 HD
ENDROOT
BRANCH  14  23
ATOM     23  C   UNL     1       5.524   4.676   1.595  0.00  0.00    +0.115 C 
BRANCH  23  24
ATOM     24  C   UNL     1       5.866   4.298   3.014  0.00  0.00    +0.212 C 
ATOM     25  O   UNL     1       5.975   3.130   3.320  0.00  0.00    -0.276 OA
ATOM     26  N   UNL     1       6.049   5.258   3.941  0.00  0.00    -0.329 N 
ATOM     27  H   UNL     1       5.962   6.193   3.696  0.00  0.00    +0.145 HD
ATOM     28  H   UNL     1       6.269   5.015   4.854  0.00  0.00    +0.145 HD
ENDBRANCH  23  24
ENDBRANCH  14  23
BRANCH  18  29
ATOM     29  C   UNL     1       2.187   5.916  -1.539  0.00  0.00    +0.151 C 
BRANCH  29  30
ATOM     30  C   UNL     1       2.345   6.463  -2.934  0.00  0.00    -0.026 A 
ATOM     31  C   UNL     1       3.209   7.516  -3.169  0.00  0.00    +0.009 A 
ATOM     32  C   UNL     1       3.358   8.022  -4.447  0.00  0.00    +0.050 A 
ATOM     33  C   UNL     1       2.640   7.473  -5.497  0.00  0.00    +0.166 A 
ATOM     34  C   UNL     1       1.769   6.412  -5.261  0.00  0.00    +0.167 A 
ATOM     35  C   UNL     1       1.629   5.908  -3.978  0.00  0.00    +0.054 A 
ATOM     36  O   UNL     1       1.186   6.055  -6.443  0.00  0.00    -0.453 OA
ATOM     37  C   UNL     1       1.400   7.169  -7.329  0.00  0.00    +0.466 C 
ATOM     38  O   UNL     1       2.603   7.780  -6.827  0.00  0.00    -0.453 OA
ENDBRANCH  29  30
ENDBRANCH  18  29
TORSDOF 4
