REMARK  Name = ZINC35288734
REMARK  5 active torsions:
REMARK  status: ('A' for Active; 'I' for Inactive)
REMARK    1  A    between atoms: C_1  and  C_2
REMARK    2  A    between atoms: C_7  and  N_26
REMARK    3  A    between atoms: C_8  and  C_16
REMARK    4  A    between atoms: C_14  and  C_15
REMARK    5  A    between atoms: C_22  and  C_25
REMARK                            x       y       z     vdW  Elec       q    Type
REMARK                         _______ _______ _______ _____ _____    ______ ____
ROOT
ATOM      1  C   UNL     1      -1.805   0.999   0.606  0.00  0.00    +0.044 C 
ATOM      2  C   UNL     1      -1.123  -0.327   0.383  0.00  0.00    -0.047 A 
ATOM      3  C   UNL     1      -1.459  -1.080  -0.699  0.00  0.00    +0.013 A 
ATOM      4  C   UNL     1      -0.825  -2.319  -0.911  0.00  0.00    -0.001 A 
ATOM      5  C   UNL     1      -1.150  -3.114  -2.015  0.00  0.00    +0.022 A 
ATOM      6  C   UNL     1      -0.490  -4.343  -2.186  0.00  0.00    +0.028 A 
ATOM      7  C   UNL     1      -0.668  -5.322  -3.252  0.00  0.00    +0.053 A 
ATOM      8  C   UNL     1       0.091  -6.468  -3.222  0.00  0.00    +0.097 A 
ATOM      9  S   UNL     1       1.080  -6.276  -1.752  0.00  0.00    -0.064 S 
ATOM     10  C   UNL     1       0.478  -4.696  -1.206  0.00  0.00    +0.088 A 
ATOM     11  N   UNL     1       0.768  -3.936  -0.179  0.00  0.00    -0.349 N 
ATOM     12  C   UNL     1       0.159  -2.762   0.012  0.00  0.00    +0.047 A 
ATOM     13  C   UNL     1       0.477  -1.954   1.117  0.00  0.00    +0.029 A 
ATOM     14  C   UNL     1      -0.153  -0.760   1.286  0.00  0.00    -0.046 A 
ATOM     15  C   UNL     1       0.198   0.104   2.469  0.00  0.00    +0.044 C 
ATOM     16  H   UNL     1       1.438  -4.232   0.456  0.00  0.00    +0.166 HD
ENDROOT
BRANCH   8  17
ATOM     17  C   UNL     1       0.088  -7.546  -4.141  0.00  0.00    +0.255 C 
ATOM     18  O   UNL     1      -0.025  -7.329  -5.334  0.00  0.00    -0.269 OA
ATOM     19  N   UNL     1       0.210  -8.812  -3.695  0.00  0.00    -0.297 N 
ATOM     20  C   UNL     1       0.216  -9.101  -2.254  0.00  0.00    +0.108 C 
ATOM     21  C   UNL     1      -0.855 -10.155  -1.958  0.00  0.00    +0.019 C 
ATOM     22  C   UNL     1      -0.620 -11.379  -2.845  0.00  0.00    +0.006 C 
ATOM     23  C   UNL     1      -0.734 -10.975  -4.317  0.00  0.00    +0.003 C 
ATOM     24  C   UNL     1       0.332  -9.930  -4.640  0.00  0.00    +0.111 C 
ATOM     25  C   UNL     1      -0.532 -12.206  -5.202  0.00  0.00    +0.009 C 
ENDBRANCH   8  17
BRANCH   7  26
ATOM     26  N   UNL     1      -1.581  -5.102  -4.272  0.00  0.00    -0.356 N 
ATOM     27  H   UNL     1      -2.111  -4.290  -4.282  0.00  0.00    +0.142 HD
ATOM     28  H   UNL     1      -1.690  -5.761  -4.976  0.00  0.00    +0.142 HD
ENDBRANCH   7  26
TORSDOF 2
