REMARK  Name = ZINC34746710
REMARK  13 active torsions:
REMARK  status: ('A' for Active; 'I' for Inactive)
REMARK    1  A    between atoms: C_1  and  C_2
REMARK    2  A    between atoms: C_3  and  C_33
REMARK    3  A    between atoms: C_4  and  C_11
REMARK    4  A    between atoms: N_9  and  C_10
REMARK    5  A    between atoms: C_14  and  N_17
REMARK    6  A    between atoms: C_18  and  C_20
REMARK    7  A    between atoms: C_20  and  C_21
REMARK    8  A    between atoms: C_20  and  C_27
REMARK    9  A    between atoms: C_33  and  O_35
REMARK   10  A    between atoms: O_35  and  C_36
REMARK   11  A    between atoms: C_36  and  C_37
REMARK   12  A    between atoms: C_37  and  C_38
REMARK   13  A    between atoms: C_37  and  C_39
REMARK                            x       y       z     vdW  Elec       q    Type
REMARK                         _______ _______ _______ _____ _____    ______ ____
ROOT
ATOM      1  C   UNL     1      -3.332  -3.138   5.030  0.00  0.00    -0.022 A 
ATOM      2  C   UNL     1      -2.974  -3.811   6.184  0.00  0.00    +0.007 A 
ATOM      3  C   UNL     1      -3.720  -4.891   6.615  0.00  0.00    +0.023 A 
ATOM      4  C   UNL     1      -4.830  -5.300   5.889  0.00  0.00    +0.033 A 
ATOM      5  C   UNL     1      -5.188  -4.622   4.731  0.00  0.00    +0.023 A 
ATOM      6  C   UNL     1      -4.441  -3.540   4.308  0.00  0.00    +0.007 A 
ENDROOT
BRANCH   1  10
ATOM      7  C   UNL     1      -2.332   1.085   6.920  0.00  0.00    +0.061 C 
ATOM      8  C   UNL     1      -1.967  -0.120   6.092  0.00  0.00    +0.021 C 
ATOM      9  C   UNL     1      -2.926  -0.753   5.382  0.00  0.00    +0.078 C 
ATOM     10  C   UNL     1      -2.516  -1.960   4.563  0.00  0.00    +0.141 C 
ATOM     11  N   UNL     1      -1.096  -2.346   4.609  0.00  0.00    -0.315 N 
ATOM     12  C   UNL     1      -0.256  -1.613   5.366  0.00  0.00    +0.137 C 
ATOM     13  S   UNL     1       1.398  -2.050   5.429  0.00  0.00    -0.018 S 
ATOM     14  N   UNL     1      -0.672  -0.550   6.067  0.00  0.00    -0.289 N 
ATOM     15  C   UNL     1       0.317   0.188   6.856  0.00  0.00    +0.137 C 
ATOM     16  H   UNL     1      -0.772  -3.110   4.106  0.00  0.00    +0.149 HD
BRANCH   9  17
ATOM     17  C   UNL     1      -4.267  -0.305   5.403  0.00  0.00    +0.339 C 
ATOM     18  O   UNL     1      -4.574   0.666   6.069  0.00  0.00    -0.245 OA
BRANCH  17  19
ATOM     19  O   UNL     1      -5.207  -0.955   4.685  0.00  0.00    -0.461 OA
BRANCH  19  20
ATOM     20  C   UNL     1      -6.541  -0.448   4.753  0.00  0.00    +0.235 C 
BRANCH  20  21
ATOM     21  C   UNL     1      -7.459  -1.307   3.881  0.00  0.00    +0.020 C 
ATOM     22  C   UNL     1      -8.906  -0.842   4.050  0.00  0.00    +0.010 C 
ATOM     23  C   UNL     1      -7.047  -1.167   2.414  0.00  0.00    +0.010 C 
ENDBRANCH  20  21
ENDBRANCH  19  20
ENDBRANCH  17  19
ENDBRANCH   9  17
ENDBRANCH   1  10
BRANCH   4  24
ATOM     24  N   UNL     1      -5.588  -6.394   6.323  0.00  0.00    -0.285 N 
ATOM     25  C   UNL     1      -4.984  -7.429   6.939  0.00  0.00    +0.229 C 
ATOM     26  O   UNL     1      -3.775  -7.455   7.038  0.00  0.00    -0.274 OA
ATOM     27  H   UNL     1      -6.547  -6.407   6.179  0.00  0.00    +0.155 HD
BRANCH  25  28
ATOM     28  C   UNL     1      -5.811  -8.554   7.506  0.00  0.00    +0.135 C 
BRANCH  28  29
ATOM     29  C   UNL     1      -6.604  -9.201   6.401  0.00  0.00    -0.031 A 
ATOM     30  C   UNL     1      -5.974  -9.584   5.231  0.00  0.00    +0.005 A 
ATOM     31  C   UNL     1      -6.702 -10.177   4.216  0.00  0.00    +0.000 A 
ATOM     32  C   UNL     1      -8.059 -10.389   4.372  0.00  0.00    +0.000 A 
ATOM     33  C   UNL     1      -8.689 -10.008   5.542  0.00  0.00    +0.000 A 
ATOM     34  C   UNL     1      -7.960  -9.418   6.558  0.00  0.00    +0.005 A 
ENDBRANCH  28  29
BRANCH  28  35
ATOM     35  C   UNL     1      -4.902  -9.577   8.137  0.00  0.00    -0.031 A 
ATOM     36  C   UNL     1      -3.935 -10.207   7.375  0.00  0.00    +0.005 A 
ATOM     37  C   UNL     1      -3.102 -11.145   7.954  0.00  0.00    +0.000 A 
ATOM     38  C   UNL     1      -3.234 -11.453   9.295  0.00  0.00    +0.000 A 
ATOM     39  C   UNL     1      -4.199 -10.823  10.058  0.00  0.00    +0.000 A 
ATOM     40  C   UNL     1      -5.030  -9.882   9.480  0.00  0.00    +0.005 A 
ENDBRANCH  28  35
ENDBRANCH  25  28
ENDBRANCH   4  24
TORSDOF 9
