REMARK  Name = ZINC20530589
REMARK  11 active torsions:
REMARK  status: ('A' for Active; 'I' for Inactive)
REMARK    1  A    between atoms: C_4  and  N_7
REMARK    2  A    between atoms: C_8  and  C_24
REMARK    3  A    between atoms: C_11  and  S_12
REMARK    4  A    between atoms: S_12  and  C_13
REMARK    5  A    between atoms: C_13  and  C_14
REMARK    6  A    between atoms: C_14  and  C_16
REMARK    7  A    between atoms: C_19  and  O_23
REMARK    8  A    between atoms: C_20  and  O_22
REMARK    9  A    between atoms: C_24  and  O_25
REMARK   10  A    between atoms: O_25  and  C_26
REMARK   11  A    between atoms: C_29  and  C_32
REMARK                            x       y       z     vdW  Elec       q    Type
REMARK                         _______ _______ _______ _____ _____    ______ ____
ROOT
ATOM      1  N   UNL     1      -1.240   2.070   0.019  0.00  0.00    -0.271 N 
ATOM      2  C   UNL     1      -1.732   2.872   1.015  0.00  0.00    +0.176 A 
ATOM      3  N   UNL     1      -2.894   3.310   0.621  0.00  0.00    -0.130 NA
ATOM      4  N   UNL     1      -3.170   2.845  -0.545  0.00  0.00    -0.122 NA
ATOM      5  C   UNL     1      -2.188   2.083  -0.967  0.00  0.00    +0.197 A 
ENDROOT
BRANCH   1   9
ATOM      6  C   UNL     1       2.396   0.031  -0.021  0.00  0.00    +0.000 A 
ATOM      7  C   UNL     1       1.208  -0.677  -0.013  0.00  0.00    +0.002 A 
ATOM      8  C   UNL     1       0.002  -0.004   0.002  0.00  0.00    +0.026 A 
ATOM      9  C   UNL     1      -0.017   1.384   0.010  0.00  0.00    +0.050 A 
ATOM     10  C   UNL     1       1.177   2.092   0.002  0.00  0.00    +0.026 A 
ATOM     11  C   UNL     1       2.381   1.413  -0.013  0.00  0.00    +0.002 A 
ENDBRANCH   1   9
BRANCH   5  12
ATOM     12  S   UNL     1      -2.109   1.234  -2.509  0.00  0.00    -0.078 S 
BRANCH  12  13
ATOM     13  C   UNL     1      -3.691   1.738  -3.227  0.00  0.00    +0.157 C 
BRANCH  13  14
ATOM     14  C   UNL     1      -3.846   1.113  -4.590  0.00  0.00    +0.173 C 
ATOM     15  O   UNL     1      -2.973   0.397  -5.031  0.00  0.00    -0.291 OA
BRANCH  14  16
ATOM     16  C   UNL     1      -5.055   1.372  -5.383  0.00  0.00    +0.022 A 
ATOM     17  C   UNL     1      -6.067   2.193  -4.872  0.00  0.00    +0.015 A 
ATOM     18  C   UNL     1      -7.197   2.439  -5.621  0.00  0.00    +0.050 A 
ATOM     19  C   UNL     1      -7.341   1.863  -6.877  0.00  0.00    +0.158 A 
ATOM     20  C   UNL     1      -6.340   1.038  -7.390  0.00  0.00    +0.159 A 
ATOM     21  C   UNL     1      -5.202   0.792  -6.649  0.00  0.00    +0.060 A 
BRANCH  20  22
ATOM     22  O   UNL     1      -6.486   0.477  -8.620  0.00  0.00    -0.503 OA
ATOM     23  H   UNL     1      -5.696  -0.173  -9.024  0.00  0.00    +0.292 HD
ENDBRANCH  20  22
BRANCH  19  24
ATOM     24  O   UNL     1      -8.460   2.105  -7.607  0.00  0.00    -0.503 OA
ATOM     25  H   UNL     1      -8.575   1.649  -8.602  0.00  0.00    +0.292 HD
ENDBRANCH  19  24
ENDBRANCH  14  16
ENDBRANCH  13  14
ENDBRANCH  12  13
ENDBRANCH   5  12
BRANCH   2  26
ATOM     26  C   UNL     1      -1.054   3.188   2.324  0.00  0.00    +0.305 C 
BRANCH  26  27
ATOM     27  O   UNL     1      -0.245   4.356   2.171  0.00  0.00    -0.484 OA
BRANCH  27  28
ATOM     28  C   UNL     1       0.439   4.779   3.267  0.00  0.00    +0.121 A 
ATOM     29  C   UNL     1       0.329   4.089   4.465  0.00  0.00    +0.046 A 
ATOM     30  C   UNL     1       1.031   4.518   5.575  0.00  0.00    +0.007 A 
ATOM     31  C   UNL     1       1.832   5.642   5.496  0.00  0.00    -0.044 A 
ATOM     32  C   UNL     1       1.939   6.335   4.304  0.00  0.00    +0.007 A 
ATOM     33  C   UNL     1       1.244   5.907   3.190  0.00  0.00    +0.046 A 
BRANCH  31  34
ATOM     34  C   UNL     1       2.591   6.112   6.710  0.00  0.00    +0.019 C 
ATOM     35  C   UNL     1       3.544   5.008   7.174  0.00  0.00    +0.008 C 
ATOM     36  C   UNL     1       4.314   5.485   8.407  0.00  0.00    +0.001 C 
ATOM     37  C   UNL     1       3.327   5.812   9.530  0.00  0.00    +0.000 C 
ATOM     38  C   UNL     1       2.374   6.916   9.066  0.00  0.00    +0.001 C 
ATOM     39  C   UNL     1       1.604   6.439   7.833  0.00  0.00    +0.008 C 
ENDBRANCH  31  34
ENDBRANCH  27  28
ENDBRANCH  26  27
ENDBRANCH   2  26
TORSDOF 11
