REMARK  Name = ZINC28648199
REMARK  2 active torsions:
REMARK  status: ('A' for Active; 'I' for Inactive)
REMARK    1  A    between atoms: C_9  and  C_16
REMARK    2  A    between atoms: C_10  and  C_14
REMARK                            x       y       z     vdW  Elec       q    Type
REMARK                         _______ _______ _______ _____ _____    ______ ____
ROOT
ATOM      1  C   UNL     1      -0.013   1.076   0.008  0.00  0.00    +0.001 A 
ATOM      2  C   UNL     1      -1.226   1.747   0.017  0.00  0.00    +0.001 A 
ATOM      3  C   UNL     1      -1.264   3.128   0.021  0.00  0.00    +0.015 A 
ATOM      4  C   UNL     1      -0.076   3.844   0.005  0.00  0.00    +0.017 A 
ATOM      5  C   UNL     1       1.150   3.172   0.007  0.00  0.00    +0.014 A 
ATOM      6  C   UNL     1       1.176   1.776   0.000  0.00  0.00    +0.011 A 
ATOM      7  C   UNL     1       2.398   3.953   0.035  0.00  0.00    +0.077 A 
ATOM      8  C   UNL     1       2.589   4.933   0.981  0.00  0.00    -0.012 A 
ATOM      9  C   UNL     1       3.731   5.747   0.924  0.00  0.00    +0.007 A 
ATOM     10  C   UNL     1       4.682   5.516  -0.089  0.00  0.00    +0.092 A 
ATOM     11  C   UNL     1       4.476   4.446  -0.990  0.00  0.00    +0.126 A 
ATOM     12  S   UNL     1       5.646   4.106  -2.193  0.00  0.00    -0.029 SA
ATOM     13  N   UNL     1       3.365   3.695  -0.905  0.00  0.00    -0.238 NA
ATOM     14  C   UNL     1       1.585   5.138   2.077  0.00  0.00    +0.049 C 
ATOM     15  C   UNL     1       0.440   6.065   1.653  0.00  0.00    +0.079 C 
ATOM     16  S   UNL     1      -0.083   5.607  -0.029  0.00  0.00    -0.124 S 
ENDROOT
BRANCH   9  17
ATOM     17  C   UNL     1       3.933   6.830   1.912  0.00  0.00    -0.016 A 
ATOM     18  C   UNL     1       3.061   7.919   1.945  0.00  0.00    +0.009 A 
ATOM     19  C   UNL     1       3.250   8.923   2.872  0.00  0.00    +0.016 A 
ATOM     20  C   UNL     1       4.310   8.857   3.761  0.00  0.00    +0.018 A 
ATOM     21  C   UNL     1       5.181   7.781   3.729  0.00  0.00    +0.016 A 
ATOM     22  C   UNL     1       4.998   6.769   2.811  0.00  0.00    +0.009 A 
ATOM     23 BR   UNL     1       4.568  10.241   5.023  0.00  0.00    -0.050 Br
ENDBRANCH   9  17
BRANCH  10  24
ATOM     24  C   UNL     1       5.839   6.352  -0.204  0.00  0.00    +0.102 C 
ATOM     25  N   UNL     1       6.757   7.015  -0.295  0.00  0.00    -0.191 NA
ENDBRANCH  10  24
TORSDOF 2
