REMARK  Name = ZINC37149445
REMARK  5 active torsions:
REMARK  status: ('A' for Active; 'I' for Inactive)
REMARK    1  A    between atoms: C_1  and  C_2
REMARK    2  A    between atoms: C_4  and  C_7
REMARK    3  A    between atoms: C_7  and  C_9
REMARK    4  A    between atoms: C_7  and  S_10
REMARK    5  A    between atoms: S_10  and  C_11
REMARK                            x       y       z     vdW  Elec       q    Type
REMARK                         _______ _______ _______ _____ _____    ______ ____
ROOT
ATOM      1  C   UNL     1      -1.129  -5.672  -2.404  0.00  0.00    +0.171 A 
ATOM      2  N   UNL     1      -1.931  -6.771  -2.298  0.00  0.00    -0.301 N 
ATOM      3  H   UNL     1      -2.505  -6.868  -1.522  0.00  0.00    +0.171 HD
ATOM      4  C   UNL     1      -1.941  -7.723  -3.249  0.00  0.00    +0.261 A 
ATOM      5  O   UNL     1      -2.664  -8.699  -3.139  0.00  0.00    -0.267 OA
ATOM      6  C   UNL     1      -1.093  -7.574  -4.391  0.00  0.00    +0.075 A 
ATOM      7  C   UNL     1      -0.942  -8.477  -5.534  0.00  0.00    -0.023 A 
ATOM      8  C   UNL     1      -0.068  -8.109  -6.493  0.00  0.00    -0.004 A 
ATOM      9  S   UNL     1       0.597  -6.562  -5.942  0.00  0.00    -0.073 S 
ATOM     10  C   UNL     1      -0.302  -6.412  -4.419  0.00  0.00    +0.117 A 
ATOM     11  N   UNL     1      -0.343  -5.507  -3.448  0.00  0.00    -0.216 NA
ATOM     12  C   UNL     1       0.265  -8.852  -7.751  0.00  0.00    +0.043 C 
ATOM     13  C   UNL     1      -0.261 -10.289  -7.618  0.00  0.00    +0.005 C 
ATOM     14  C   UNL     1      -1.706 -10.238  -7.112  0.00  0.00    +0.005 C 
ATOM     15  C   UNL     1      -1.728  -9.779  -5.653  0.00  0.00    +0.037 C 
ENDROOT
BRANCH   1  16
ATOM     16  S   UNL     1      -1.152  -4.453  -1.132  0.00  0.00    -0.075 S 
BRANCH  16  17
ATOM     17  C   UNL     1       0.038  -3.206  -1.697  0.00  0.00    +0.140 C 
ATOM     18  C   UNL     1       1.439  -3.818  -1.734  0.00  0.00    +0.029 C 
BRANCH  17  22
ATOM     19  C   UNL     1      -0.018   1.503   0.010  0.00  0.00    +0.091 C 
ATOM     20  C   UNL     1       0.002  -0.004   0.002  0.00  0.00    +0.169 A 
ATOM     21  N   UNL     1       0.008  -0.776  -1.091  0.00  0.00    -0.195 NA
ATOM     22  C   UNL     1       0.026  -2.034  -0.750  0.00  0.00    +0.240 A 
ATOM     23  O   UNL     1       0.033  -2.107   0.587  0.00  0.00    -0.337 OA
ATOM     24  N   UNL     1       0.023  -0.767   1.057  0.00  0.00    -0.062 NA
ENDBRANCH  17  22
ENDBRANCH  16  17
ENDBRANCH   1  16
TORSDOF 3
