REMARK  Name = ZINC16249528
REMARK  11 active torsions:
REMARK  status: ('A' for Active; 'I' for Inactive)
REMARK    1  A    between atoms: C_1  and  C_2
REMARK    2  A    between atoms: C_3  and  C_29
REMARK    3  A    between atoms: C_4  and  N_28
REMARK    4  A    between atoms: C_9  and  C_10
REMARK    5  A    between atoms: C_15  and  O_16
REMARK    6  A    between atoms: O_16  and  C_17
REMARK    7  A    between atoms: C_17  and  C_18
REMARK    8  A    between atoms: C_18  and  O_20
REMARK    9  A    between atoms: O_20  and  C_21
REMARK   10  A    between atoms: C_23  and  C_27
REMARK   11  A    between atoms: C_24  and  C_25
REMARK                            x       y       z     vdW  Elec       q    Type
REMARK                         _______ _______ _______ _____ _____    ______ ____
ROOT
ATOM      1  C   UNL     1      -6.913  -1.770  -0.595  0.00  0.00    +0.046 C 
ATOM      2  C   UNL     1      -8.189  -2.030   0.164  0.00  0.00    -0.020 A 
ATOM      3  C   UNL     1      -9.164  -2.895  -0.345  0.00  0.00    +0.095 A 
ATOM      4  C   UNL     1     -10.342  -3.110   0.397  0.00  0.00    +0.135 A 
ATOM      5  N   UNL     1     -10.535  -2.510   1.556  0.00  0.00    -0.230 NA
ATOM      6  C   UNL     1      -9.633  -1.681   2.075  0.00  0.00    +0.092 A 
ATOM      7  C   UNL     1      -8.428  -1.418   1.387  0.00  0.00    +0.013 A 
ATOM      8  C   UNL     1      -7.655  -0.471   2.216  0.00  0.00    -0.011 C 
ATOM      9  C   UNL     1      -6.410   0.050   1.913  0.00  0.00    +0.020 C 
ATOM     10  C   UNL     1      -8.411  -0.199   3.378  0.00  0.00    -0.023 C 
ATOM     11  C   UNL     1      -9.599  -0.899   3.322  0.00  0.00    +0.081 C 
ATOM     12  C   UNL     1      -7.990   0.716   4.498  0.00  0.00    +0.046 C 
ENDROOT
BRANCH   9  13
ATOM     13  C   UNL     1      -5.863   1.147   2.709  0.00  0.00    +0.018 A 
ATOM     14  C   UNL     1      -6.644   2.281   2.980  0.00  0.00    +0.026 A 
ATOM     15  C   UNL     1      -6.119   3.312   3.727  0.00  0.00    +0.019 A 
ATOM     16  C   UNL     1      -4.823   3.234   4.216  0.00  0.00    +0.019 A 
ATOM     17  C   UNL     1      -4.043   2.123   3.960  0.00  0.00    +0.047 A 
ATOM     18  C   UNL     1      -4.551   1.073   3.212  0.00  0.00    +0.128 A 
ATOM     19 BR   UNL     1      -7.170   4.842   4.087  0.00  0.00    -0.050 Br
BRANCH  18  20
ATOM     20  O   UNL     1      -3.785  -0.018   2.961  0.00  0.00    -0.480 OA
BRANCH  20  21
ATOM     21  C   UNL     1      -2.462  -0.019   3.499  0.00  0.00    +0.349 C 
BRANCH  21  22
ATOM     22  C   UNL     1      -1.767  -1.302   3.120  0.00  0.00    +0.345 C 
ATOM     23  O   UNL     1      -2.346  -2.130   2.458  0.00  0.00    -0.247 OA
BRANCH  22  24
ATOM     24  O   UNL     1      -0.505  -1.525   3.519  0.00  0.00    -0.466 OA
ATOM     25  C   UNL     1       0.102  -2.781   3.118  0.00  0.00    +0.280 C 
ENDBRANCH  22  24
ENDBRANCH  21  22
ENDBRANCH  20  21
ENDBRANCH  18  20
ENDBRANCH   9  13
BRANCH   4  26
ATOM     26  N   UNL     1     -11.313  -3.964  -0.099  0.00  0.00    -0.342 N 
ATOM     27  H   UNL     1     -12.236  -4.138   0.473  0.00  0.00    +0.144 HD
ATOM     28  H   UNL     1     -11.161  -4.468  -1.065  0.00  0.00    +0.144 HD
ENDBRANCH   4  26
BRANCH  11  29
ATOM     29  C   UNL     1     -10.628  -0.874   4.318  0.00  0.00    +0.102 C 
ATOM     30  N   UNL     1     -11.444  -0.854   5.107  0.00  0.00    -0.191 NA
ENDBRANCH  11  29
BRANCH   3  31
ATOM     31  C   UNL     1      -8.967  -3.552  -1.602  0.00  0.00    +0.103 C 
ATOM     32  N   UNL     1      -8.811  -4.073  -2.599  0.00  0.00    -0.191 NA
ENDBRANCH   3  31
TORSDOF 8
