REMARK  Name = ZINC45575303
REMARK  9 active torsions:
REMARK  status: ('A' for Active; 'I' for Inactive)
REMARK    1  A    between atoms: C_1  and  O_2
REMARK    2  A    between atoms: O_2  and  C_3
REMARK    3  A    between atoms: C_7  and  C_11
REMARK    4  A    between atoms: C_8  and  O_9
REMARK    5  A    between atoms: O_9  and  C_10
REMARK    6  A    between atoms: C_11  and  C_13
REMARK    7  A    between atoms: C_11  and  C_28
REMARK    8  A    between atoms: C_13  and  N_14
REMARK    9  A    between atoms: C_15  and  C_17
REMARK                            x       y       z     vdW  Elec       q    Type
REMARK                         _______ _______ _______ _____ _____    ______ ____
ROOT
ATOM      1  C   UNL     1       1.329  -4.110  -2.298  0.00  0.00    +0.072 C 
ENDROOT
BRANCH   1   2
ATOM      2  C   UNL     1       0.628  -4.568  -3.550  0.00  0.00    -0.013 A 
ATOM      3  C   UNL     1       0.955  -4.246  -4.812  0.00  0.00    +0.088 A 
ATOM      4  N   UNL     1       0.092  -4.850  -5.686  0.00  0.00    -0.360 N 
ATOM      5  H   UNL     1       0.127  -4.766  -6.651  0.00  0.00    +0.165 HD
ATOM      6  C   UNL     1      -0.835  -5.594  -4.990  0.00  0.00    +0.047 A 
ATOM      7  C   UNL     1      -0.536  -5.455  -3.622  0.00  0.00    +0.003 A 
ATOM      8  C   UNL     1      -1.315  -6.112  -2.669  0.00  0.00    +0.010 A 
ATOM      9  C   UNL     1      -2.365  -6.890  -3.070  0.00  0.00    +0.001 A 
ATOM     10  C   UNL     1      -2.662  -7.033  -4.418  0.00  0.00    +0.002 A 
ATOM     11  C   UNL     1      -1.911  -6.386  -5.375  0.00  0.00    +0.026 A 
ENDBRANCH   1   2
BRANCH   1  16
ATOM     12  C   UNL     1       0.606  -0.608  -1.056  0.00  0.00    +0.162 A 
ATOM     13  C   UNL     1       1.173   0.159  -2.062  0.00  0.00    +0.049 A 
ATOM     14  C   UNL     1       1.787  -0.456  -3.137  0.00  0.00    +0.004 A 
ATOM     15  C   UNL     1       1.837  -1.836  -3.212  0.00  0.00    +0.008 A 
ATOM     16  C   UNL     1       1.273  -2.606  -2.212  0.00  0.00    +0.007 A 
ATOM     17  C   UNL     1       0.662  -1.996  -1.129  0.00  0.00    +0.165 A 
BRANCH  12  19
ATOM     18  C   UNL     1      -0.017   1.425   0.010  0.00  0.00    +0.277 C 
ATOM     19  O   UNL     1       0.002  -0.004   0.002  0.00  0.00    -0.491 OA
ENDBRANCH  12  19
BRANCH  17  20
ATOM     20  O   UNL     1       0.112  -2.753  -0.142  0.00  0.00    -0.491 OA
ATOM     21  C   UNL     1      -1.259  -3.125  -0.297  0.00  0.00    +0.277 C 
ENDBRANCH  17  20
ENDBRANCH   1  16
BRANCH   1  22
ATOM     22  C   UNL     1       2.790  -4.564  -2.336  0.00  0.00    +0.117 C 
BRANCH  22  23
ATOM     23  N   UNL     1       3.440  -4.223  -1.068  0.00  0.00    -0.310 N 
ATOM     24  C   UNL     1       4.738  -4.530  -0.873  0.00  0.00    +0.244 C 
ATOM     25  O   UNL     1       5.369  -5.090  -1.748  0.00  0.00    -0.270 OA
ATOM     26  H   UNL     1       2.937  -3.777  -0.369  0.00  0.00    +0.149 HD
BRANCH  24  27
ATOM     27  C   UNL     1       5.393  -4.187   0.404  0.00  0.00    +0.039 A 
ATOM     28  C   UNL     1       4.665  -3.549   1.412  0.00  0.00    +0.014 A 
ATOM     29  C   UNL     1       5.279  -3.232   2.603  0.00  0.00    +0.017 A 
ATOM     30  C   UNL     1       6.617  -3.545   2.801  0.00  0.00    +0.030 A 
ATOM     31  C   UNL     1       7.359  -4.181   1.800  0.00  0.00    +0.048 A 
ATOM     32  C   UNL     1       6.738  -4.506   0.605  0.00  0.00    +0.037 A 
ATOM     33  N   UNL     1       8.705  -4.492   1.977  0.00  0.00    -0.284 N 
ATOM     34  C   UNL     1       9.334  -4.628   3.141  0.00  0.00    +0.227 C 
ATOM     35  O   UNL     1      10.513  -4.914   3.125  0.00  0.00    -0.275 OA
ATOM     36  C   UNL     1       8.665  -4.448   4.476  0.00  0.00    +0.170 C 
ATOM     37  S   UNL     1       7.406  -3.144   4.329  0.00  0.00    -0.114 S 
ATOM     38  H   UNL     1       9.234  -4.622   1.175  0.00  0.00    +0.155 HD
ENDBRANCH  24  27
ENDBRANCH  22  23
ENDBRANCH   1  22
TORSDOF 7
