REMARK  Name = ZINC08876716
REMARK  2 active torsions:
REMARK  status: ('A' for Active; 'I' for Inactive)
REMARK    1  A    between atoms: C_8  and  C_25
REMARK    2  A    between atoms: C_25  and  C_27
REMARK                            x       y       z     vdW  Elec       q    Type
REMARK                         _______ _______ _______ _____ _____    ______ ____
ROOT
ATOM      1  C   UNL     1       0.721   5.100   1.967  0.00  0.00    +0.000 A 
ATOM      2  C   UNL     1       1.034   4.836   3.288  0.00  0.00    +0.002 A 
ATOM      3  C   UNL     1       0.746   3.605   3.840  0.00  0.00    +0.023 A 
ATOM      4  C   UNL     1       0.136   2.617   3.069  0.00  0.00    +0.038 A 
ATOM      5  C   UNL     1      -0.174   2.894   1.741  0.00  0.00    -0.011 A 
ATOM      6  C   UNL     1       0.116   4.124   1.195  0.00  0.00    +0.006 A 
ATOM      7  C   UNL     1      -0.810   1.645   1.200  0.00  0.00    +0.085 C 
ATOM      8  C   UNL     1      -0.013   1.086   0.008  0.00  0.00    +0.066 C 
ATOM      9  C   UNL     1      -0.815   1.600  -1.215  0.00  0.00    -0.055 C 
ATOM     10  C   UNL     1      -0.699   0.574  -2.354  0.00  0.00    -0.016 C 
ATOM     11  C   UNL     1      -1.849  -0.427  -2.132  0.00  0.00    -0.020 C 
ATOM     12  C   UNL     1      -2.563   0.056  -0.854  0.00  0.00    -0.076 C 
ATOM     13  C   UNL     1      -2.217   1.902   0.670  0.00  0.00    +0.060 C 
ATOM     14  C   UNL     1      -3.249   1.146   1.462  0.00  0.00    -0.027 A 
ATOM     15  C   UNL     1      -3.449  -0.192   1.720  0.00  0.00    +0.004 A 
ATOM     16  C   UNL     1      -4.514  -0.594   2.506  0.00  0.00    +0.000 A 
ATOM     17  C   UNL     1      -5.377   0.350   3.031  0.00  0.00    +0.002 A 
ATOM     18  C   UNL     1      -5.181   1.692   2.776  0.00  0.00    +0.023 A 
ATOM     19  C   UNL     1      -4.110   2.105   1.986  0.00  0.00    +0.036 A 
ATOM     20  N   UNL     1      -3.707   3.382   1.591  0.00  0.00    -0.286 N 
ATOM     21  C   UNL     1      -2.604   3.351   0.820  0.00  0.00    +0.212 C 
ATOM     22  O   UNL     1      -2.032   4.306   0.338  0.00  0.00    -0.277 OA
ATOM     23  C   UNL     1      -0.813   0.677   2.351  0.00  0.00    +0.228 C 
ATOM     24  O   UNL     1      -1.240  -0.459   2.341  0.00  0.00    -0.275 OA
ATOM     25  N   UNL     1      -0.250   1.315   3.394  0.00  0.00    -0.285 N 
ATOM     26  H   UNL     1      -4.168   4.197   1.844  0.00  0.00    +0.155 HD
ATOM     27  H   UNL     1      -0.127   0.917   4.270  0.00  0.00    +0.155 HD
ATOM     28  N   UNL     1      -2.185   1.473  -0.745  0.00  0.00    +0.395 N 
ATOM     29  H   UNL     1      -2.818   2.054  -1.307  0.00  0.00    -0.079 HD
ENDROOT
BRANCH   8  30
ATOM     30  C   UNL     1       1.390   1.637  -0.002  0.00  0.00    +0.172 C 
ATOM     31  O   UNL     1       1.647   2.631  -0.651  0.00  0.00    -0.291 OA
BRANCH  30  32
ATOM     32  C   UNL     1       2.405   0.998   0.742  0.00  0.00    +0.055 A 
ATOM     33  C   UNL     1       3.750   1.336   0.863  0.00  0.00    +0.019 A 
ATOM     34  C   UNL     1       4.523   0.537   1.663  0.00  0.00    +0.008 A 
ATOM     35  C   UNL     1       3.955  -0.534   2.281  0.00  0.00    +0.046 A 
ATOM     36  S   UNL     1       2.301  -0.459   1.767  0.00  0.00    -0.094 S 
ENDBRANCH  30  32
ENDBRANCH   8  30
TORSDOF 2
