REMARK  Name = ZINC21656300
REMARK  6 active torsions:
REMARK  status: ('A' for Active; 'I' for Inactive)
REMARK    1  A    between atoms: C_1  and  C_2
REMARK    2  A    between atoms: C_3  and  N_12
REMARK    3  A    between atoms: C_13  and  C_15
REMARK    4  A    between atoms: C_15  and  C_16
REMARK    5  A    between atoms: C_16  and  C_17
REMARK    6  A    between atoms: C_16  and  C_18
REMARK                            x       y       z     vdW  Elec       q    Type
REMARK                         _______ _______ _______ _____ _____    ______ ____
ROOT
ATOM      1  C   UNL     1      -2.051   0.341  -1.894  0.00  0.00    +0.068 C 
ATOM      2  C   UNL     1      -2.206   1.448  -0.884  0.00  0.00    +0.068 A 
ATOM      3  C   UNL     1      -1.197   1.722   0.021  0.00  0.00    +0.120 A 
ATOM      4  C   UNL     1      -1.364   2.752   0.954  0.00  0.00    +0.280 A 
ATOM      5  O   UNL     1      -0.480   2.997   1.760  0.00  0.00    -0.265 OA
ATOM      6  N   UNL     1      -2.517   3.485   0.958  0.00  0.00    -0.260 N 
ATOM      7  C   UNL     1      -2.826   4.525   1.803  0.00  0.00    +0.104 A 
ATOM      8  C   UNL     1      -3.993   5.163   1.711  0.00  0.00    +0.067 A 
ATOM      9  S   UNL     1      -4.777   4.299   0.358  0.00  0.00    -0.058 S 
ATOM     10  C   UNL     1      -3.462   3.145   0.027  0.00  0.00    +0.180 A 
ATOM     11  N   UNL     1      -3.317   2.181  -0.846  0.00  0.00    -0.226 NA
ENDROOT
BRANCH   3  12
ATOM     12  N   UNL     1      -0.011   0.966   0.007  0.00  0.00    -0.280 N 
ATOM     13  C   UNL     1       1.176   1.577  -0.178  0.00  0.00    +0.218 C 
ATOM     14  O   UNL     1       1.215   2.765  -0.421  0.00  0.00    -0.275 OA
ATOM     15  H   UNL     1      -0.052  -0.124   0.149  0.00  0.00    +0.155 HD
BRANCH  13  16
ATOM     16  C   UNL     1       2.454   0.785  -0.085  0.00  0.00    +0.099 C 
BRANCH  16  17
ATOM     17  C   UNL     1       3.647   1.710  -0.335  0.00  0.00    -0.008 C 
ATOM     18  C   UNL     1       3.731   2.748   0.786  0.00  0.00    +0.008 C 
ATOM     19  C   UNL     1       4.935   0.885  -0.363  0.00  0.00    +0.008 C 
ENDBRANCH  16  17
ENDBRANCH  13  16
ENDBRANCH   3  12
TORSDOF 3
