REMARK  Name = ZINC59410708
REMARK  12 active torsions:
REMARK  status: ('A' for Active; 'I' for Inactive)
REMARK    1  A    between atoms: C_1  and  C_2
REMARK    2  A    between atoms: C_3  and  C_13
REMARK    3  A    between atoms: C_4  and  C_12
REMARK    4  A    between atoms: C_9  and  C_10
REMARK    5  A    between atoms: C_13  and  C_14
REMARK    6  A    between atoms: C_14  and  C_15
REMARK    7  A    between atoms: N_17  and  C_18
REMARK    8  A    between atoms: C_18  and  C_19
REMARK    9  A    between atoms: C_22  and  C_25
REMARK   10  A    between atoms: C_25  and  N_26
REMARK   11  A    between atoms: C_28  and  C_35
REMARK   12  A    between atoms: C_31  and  C_34
REMARK                            x       y       z     vdW  Elec       q    Type
REMARK                         _______ _______ _______ _____ _____    ______ ____
ROOT
ATOM      1  C   UNL     1      -4.212   1.070   1.465  0.00  0.00    +0.214 C 
ATOM      2  O   UNL     1      -4.792   1.287   0.422  0.00  0.00    -0.276 OA
ATOM      3  N   UNL     1      -4.748   1.477   2.632  0.00  0.00    -0.311 N 
ATOM      4  H   UNL     1      -4.284   1.303   3.466  0.00  0.00    +0.149 HD
ENDROOT
BRANCH   1   5
ATOM      5  C   UNL     1      -2.891   0.344   1.455  0.00  0.00    +0.100 C 
BRANCH   5   6
ATOM      6  C   UNL     1      -2.511  -0.004   0.014  0.00  0.00    +0.046 C 
BRANCH   6   9
ATOM      7  C   UNL     1      -0.018   1.503   0.010  0.00  0.00    +0.045 C 
ATOM      8  C   UNL     1       0.002  -0.004   0.002  0.00  0.00    -0.023 A 
ATOM      9  C   UNL     1      -1.190  -0.729   0.004  0.00  0.00    -0.024 A 
ATOM     10  C   UNL     1      -1.163  -2.086  -0.003  0.00  0.00    +0.019 A 
ATOM     11  N   UNL     1       0.010  -2.764  -0.012  0.00  0.00    -0.325 N 
ATOM     12  H   UNL     1      -0.000  -3.734  -0.017  0.00  0.00    +0.169 HD
ATOM     13  C   UNL     1       1.189  -2.114  -0.015  0.00  0.00    +0.267 A 
ATOM     14  O   UNL     1       2.234  -2.742  -0.023  0.00  0.00    -0.266 OA
ATOM     15  C   UNL     1       1.211  -0.695  -0.013  0.00  0.00    +0.119 A 
ATOM     16  C   UNL     1      -2.461  -2.851  -0.001  0.00  0.00    +0.063 C 
BRANCH  15  17
ATOM     17  C   UNL     1       2.455   0.014  -0.021  0.00  0.00    +0.105 C 
ATOM     18  N   UNL     1       3.442   0.577  -0.028  0.00  0.00    -0.191 NA
ENDBRANCH  15  17
ENDBRANCH   6   9
ENDBRANCH   5   6
ENDBRANCH   1   5
BRANCH   3  19
ATOM     19  C   UNL     1      -6.032   2.182   2.642  0.00  0.00    +0.139 C 
BRANCH  19  20
ATOM     20  C   UNL     1      -6.406   2.525   4.061  0.00  0.00    -0.030 A 
ATOM     21  C   UNL     1      -7.147   1.634   4.815  0.00  0.00    +0.005 A 
ATOM     22  C   UNL     1      -7.490   1.948   6.117  0.00  0.00    +0.002 A 
ATOM     23  C   UNL     1      -7.092   3.153   6.665  0.00  0.00    -0.064 A 
ATOM     24  C   UNL     1      -6.351   4.044   5.911  0.00  0.00    +0.002 A 
ATOM     25  C   UNL     1      -6.004   3.728   4.611  0.00  0.00    +0.005 A 
BRANCH  23  26
ATOM     26  C   UNL     1      -7.467   3.497   8.083  0.00  0.00    -0.043 C 
BRANCH  26  27
ATOM     27  N   UNL     1      -6.420   3.017   8.996  0.00  0.00    +0.383 N 
ATOM     28  C   UNL     1      -6.362   1.552   8.944  0.00  0.00    -0.075 C 
ATOM     29  C   UNL     1      -5.220   1.051   9.832  0.00  0.00    -0.031 C 
ATOM     30  C   UNL     1      -5.465   1.504  11.274  0.00  0.00    +0.003 C 
ATOM     31  C   UNL     1      -5.598   3.029  11.304  0.00  0.00    -0.031 C 
ATOM     32  C   UNL     1      -6.726   3.456  10.363  0.00  0.00    -0.075 C 
ATOM     33  C   UNL     1      -5.920   3.485  12.729  0.00  0.00    +0.005 C 
ATOM     34  C   UNL     1      -5.162  -0.477   9.777  0.00  0.00    +0.005 C 
ATOM     35  H   UNL     1      -5.529   3.397   8.713  0.00  0.00    -0.081 HD
ENDBRANCH  26  27
ENDBRANCH  23  26
ENDBRANCH  19  20
ENDBRANCH   3  19
TORSDOF 8
