REMARK  Name = ZINC20438607
REMARK  8 active torsions:
REMARK  status: ('A' for Active; 'I' for Inactive)
REMARK    1  A    between atoms: C_1  and  N_2
REMARK    2  A    between atoms: N_2  and  C_3
REMARK    3  A    between atoms: N_2  and  S_4
REMARK    4  A    between atoms: S_4  and  N_7
REMARK    5  A    between atoms: C_9  and  C_16
REMARK    6  A    between atoms: C_17  and  C_18
REMARK    7  A    between atoms: C_17  and  N_27
REMARK    8  A    between atoms: C_28  and  C_30
REMARK                            x       y       z     vdW  Elec       q    Type
REMARK                         _______ _______ _______ _____ _____    ______ ____
ROOT
ATOM      1  C   UNL     1      -4.261   3.864   0.859  0.00  0.00    +0.038 C 
ATOM      2  C   UNL     1      -5.577   3.876   1.189  0.00  0.00    +0.097 C 
ENDROOT
BRANCH   1   5
ATOM      3  N   UNL     1      -3.186   0.419   0.323  0.00  0.00    -0.208 N 
ATOM      4  C   UNL     1      -4.149   1.360   0.511  0.00  0.00    +0.122 A 
ATOM      5  C   UNL     1      -3.571   2.590   0.643  0.00  0.00    +0.004 A 
ATOM      6  C   UNL     1      -2.116   2.385   0.510  0.00  0.00    +0.009 A 
ATOM      7  C   UNL     1      -1.938   1.006   0.313  0.00  0.00    +0.074 A 
ATOM      8  C   UNL     1      -0.651   0.500   0.159  0.00  0.00    +0.028 A 
ATOM      9  C   UNL     1       0.431   1.353   0.189  0.00  0.00    +0.002 A 
ATOM     10  C   UNL     1       0.252   2.715   0.378  0.00  0.00    +0.001 A 
ATOM     11  C   UNL     1      -1.014   3.235   0.538  0.00  0.00    +0.010 A 
BRANCH   3  12
ATOM     12  S   UNL     1      -3.472  -1.201   0.133  0.00  0.00    +0.123 S 
ATOM     13  O   UNL     1      -4.882  -1.372   0.174  0.00  0.00    -0.136 OA
ATOM     14  O   UNL     1      -2.684  -1.625  -0.971  0.00  0.00    -0.136 OA
BRANCH  12  16
ATOM     15  C   UNL     1      -3.721  -2.199   2.635  0.00  0.00    +0.133 C 
ATOM     16  N   UNL     1      -2.863  -1.965   1.470  0.00  0.00    -0.168 NA
ATOM     17  C   UNL     1      -1.467  -2.407   1.489  0.00  0.00    +0.133 C 
ENDBRANCH  12  16
ENDBRANCH   3  12
ENDBRANCH   1   5
BRANCH   2  18
ATOM     18  C   UNL     1      -6.309   5.143   1.234  0.00  0.00    +0.261 C 
ATOM     19  O   UNL     1      -6.910   5.534   0.251  0.00  0.00    -0.269 OA
ATOM     20  N   UNL     1      -6.317   5.877   2.365  0.00  0.00    -0.296 N 
ATOM     21  C   UNL     1      -5.509   5.439   3.481  0.00  0.00    +0.108 C 
ATOM     22  C   UNL     1      -6.324   4.481   4.375  0.00  0.00    +0.019 C 
ATOM     23  C   UNL     1      -7.364   5.223   5.104  0.00  0.00    +0.002 C 
ATOM     24  C   UNL     1      -8.407   5.885   4.209  0.00  0.00    +0.002 C 
ATOM     25  C   UNL     1      -7.896   7.231   3.756  0.00  0.00    +0.019 C 
ATOM     26  C   UNL     1      -7.155   7.091   2.414  0.00  0.00    +0.108 C 
ENDBRANCH   2  18
BRANCH   2  27
ATOM     27  N   UNL     1      -6.236   2.675   1.487  0.00  0.00    -0.277 N 
ATOM     28  C   UNL     1      -7.337   2.321   0.795  0.00  0.00    +0.250 C 
ATOM     29  O   UNL     1      -7.715   3.003  -0.137  0.00  0.00    -0.270 OA
ATOM     30  H   UNL     1      -5.855   2.021   2.286  0.00  0.00    +0.155 HD
BRANCH  28  31
ATOM     31  C   UNL     1      -8.085   1.103   1.170  0.00  0.00    +0.055 A 
ATOM     32  C   UNL     1      -7.735   0.390   2.319  0.00  0.00    +0.014 A 
ATOM     33  C   UNL     1      -8.441  -0.743   2.666  0.00  0.00    +0.001 A 
ATOM     34  C   UNL     1      -9.488  -1.181   1.873  0.00  0.00    +0.001 A 
ATOM     35  C   UNL     1      -9.837  -0.484   0.731  0.00  0.00    +0.021 A 
ATOM     36  C   UNL     1      -9.143   0.656   0.374  0.00  0.00    +0.053 A 
ATOM     37 CL   UNL     1      -9.582   1.529  -1.061  0.00  0.00    -0.083 Cl
ENDBRANCH  28  31
ENDBRANCH   2  27
TORSDOF 6
