REMARK  Name = ZINC63818009
REMARK  2 active torsions:
REMARK  status: ('A' for Active; 'I' for Inactive)
REMARK    1  A    between atoms: C_4  and  C_8
REMARK    2  A    between atoms: C_14  and  C_17
REMARK                            x       y       z     vdW  Elec       q    Type
REMARK                         _______ _______ _______ _____ _____    ______ ____
ROOT
ATOM      1  C   UNL     1       3.696  -0.688  -0.037  0.00  0.00    +0.185 A 
ATOM      2  N   UNL     1       4.885  -0.140  -0.041  0.00  0.00    -0.127 NA
ATOM      3  N   UNL     1       5.790  -1.054  -0.068  0.00  0.00    -0.120 NA
ATOM      4  C   UNL     1       5.228  -2.224  -0.101  0.00  0.00    +0.211 A 
ATOM      5  N   UNL     1       3.866  -2.069  -0.047  0.00  0.00    -0.220 N 
ATOM      6  N   UNL     1       3.072  -3.176   0.001  0.00  0.00    -0.265 N 
ATOM      7  C   UNL     1       3.705  -4.424  -0.503  0.00  0.00    +0.182 C 
ATOM      8  S   UNL     1       5.467  -3.986  -0.186  0.00  0.00    -0.058 S 
ATOM      9  H   UNL     1       2.694  -3.311   0.926  0.00  0.00    +0.168 HD
ENDROOT
BRANCH   1  13
ATOM     10  C   UNL     1      -0.017   1.380   0.010  0.00  0.00    +0.018 A 
ATOM     11  C   UNL     1       1.168   2.094   0.002  0.00  0.00    +0.040 A 
ATOM     12  C   UNL     1       2.379   1.429  -0.013  0.00  0.00    +0.134 A 
ATOM     13  C   UNL     1       2.404   0.031  -0.021  0.00  0.00    +0.057 A 
ATOM     14  C   UNL     1       1.205  -0.682  -0.013  0.00  0.00    +0.029 A 
ATOM     15  C   UNL     1       0.002  -0.004   0.002  0.00  0.00    +0.019 A 
ATOM     16 BR   UNL     1      -1.624  -0.969   0.012  0.00  0.00    -0.050 Br
ATOM     17  F   UNL     1       3.535   2.127  -0.021  0.00  0.00    -0.205 F 
ENDBRANCH   1  13
BRANCH   7  18
ATOM     18  C   UNL     1       3.442  -4.626  -1.997  0.00  0.00    +0.184 C 
ATOM     19  C   UNL     1       3.937  -5.988  -2.450  0.00  0.00    +0.025 C 
ATOM     20  C   UNL     1       2.833  -6.604  -2.879  0.00  0.00    +0.132 C 
ATOM     21  N   UNL     1       1.753  -5.803  -2.745  0.00  0.00    -0.162 NA
ATOM     22  N   UNL     1       1.995  -4.688  -2.267  0.00  0.00    -0.177 NA
ENDBRANCH   7  18
TORSDOF 2
