REMARK  Name = ZINC02883559
REMARK  11 active torsions:
REMARK  status: ('A' for Active; 'I' for Inactive)
REMARK    1  A    between atoms: C_1  and  C_2
REMARK    2  A    between atoms: C_2  and  C_3
REMARK    3  A    between atoms: C_2  and  C_4
REMARK    4  A    between atoms: C_6  and  N_14
REMARK    5  A    between atoms: C_8  and  C_11
REMARK    6  A    between atoms: C_9  and  O_10
REMARK    7  A    between atoms: C_11  and  C_12
REMARK    8  A    between atoms: C_11  and  C_13
REMARK    9  A    between atoms: N_14  and  S_15
REMARK   10  A    between atoms: S_15  and  C_18
REMARK   11  A    between atoms: C_21  and  N_24
REMARK                            x       y       z     vdW  Elec       q    Type
REMARK                         _______ _______ _______ _____ _____    ______ ____
ROOT
ATOM      1  C   UNL     1       1.202   1.264  -0.006  0.00  0.00    -0.001 A 
ATOM      2  C   UNL     1      -0.064   0.710  -0.002  0.00  0.00    +0.032 A 
ATOM      3  C   UNL     1      -1.181   1.533   0.045  0.00  0.00    +0.049 A 
ATOM      4  C   UNL     1      -1.025   2.912   0.100  0.00  0.00    +0.032 A 
ATOM      5  C   UNL     1       0.241   3.464   0.096  0.00  0.00    -0.001 A 
ATOM      6  C   UNL     1       1.357   2.641   0.043  0.00  0.00    +0.124 A 
ENDROOT
BRANCH   1   8
ATOM      7  C   UNL     1       2.421  -0.558   1.153  0.00  0.00    +0.012 C 
ATOM      8  C   UNL     1       2.414   0.371  -0.063  0.00  0.00    +0.016 C 
ATOM      9  C   UNL     1       2.372  -0.465  -1.343  0.00  0.00    +0.012 C 
ENDBRANCH   1   8
BRANCH   5  10
ATOM     10  C   UNL     1       0.411   4.960   0.150  0.00  0.00    +0.016 C 
ATOM     11  C   UNL     1      -0.272   5.595  -1.063  0.00  0.00    +0.012 C 
ATOM     12  C   UNL     1      -0.224   5.500   1.433  0.00  0.00    +0.012 C 
ENDBRANCH   5  10
BRANCH   6  13
ATOM     13  O   UNL     1       2.603   3.185   0.039  0.00  0.00    -0.506 OA
ATOM     14  H   UNL     1       2.946   3.376  -0.845  0.00  0.00    +0.292 HD
ENDBRANCH   6  13
BRANCH   3  15
ATOM     15  N   UNL     1      -2.464   0.974   0.043  0.00  0.00    -0.216 N 
ATOM     16  H   UNL     1      -2.807   0.545   0.843  0.00  0.00    +0.174 HD
BRANCH  15  17
ATOM     17  S   UNL     1      -3.396   1.044  -1.324  0.00  0.00    +0.072 S 
ATOM     18  O   UNL     1      -4.600   0.348  -1.031  0.00  0.00    -0.150 OA
ATOM     19  O   UNL     1      -3.384   2.398  -1.755  0.00  0.00    -0.150 OA
BRANCH  17  20
ATOM     20  C   UNL     1      -2.566   0.112  -2.568  0.00  0.00    +0.109 A 
ATOM     21  C   UNL     1      -1.628   0.723  -3.379  0.00  0.00    +0.031 A 
ATOM     22  C   UNL     1      -0.974  -0.009  -4.352  0.00  0.00    +0.034 A 
ATOM     23  C   UNL     1      -1.265  -1.349  -4.521  0.00  0.00    +0.126 A 
ATOM     24  C   UNL     1      -2.208  -1.959  -3.714  0.00  0.00    +0.034 A 
ATOM     25  C   UNL     1      -2.858  -1.228  -2.738  0.00  0.00    +0.031 A 
BRANCH  23  26
ATOM     26  N   UNL     1      -0.569  -2.132  -5.567  0.00  0.00    +0.056 N 
ATOM     27  O   UNL     1      -0.825  -3.313  -5.716  0.00  0.00    -0.126 OA
ATOM     28  O   UNL     1       0.262  -1.595  -6.278  0.00  0.00    -0.126 OA
ENDBRANCH  23  26
ENDBRANCH  17  20
ENDBRANCH  15  17
ENDBRANCH   3  15
TORSDOF 7
