REMARK  Name = ZINC14475971
REMARK  7 active torsions:
REMARK  status: ('A' for Active; 'I' for Inactive)
REMARK    1  A    between atoms: C_1  and  C_2
REMARK    2  A    between atoms: C_2  and  C_4
REMARK    3  A    between atoms: C_2  and  N_10
REMARK    4  A    between atoms: C_11  and  C_13
REMARK    5  A    between atoms: C_20  and  C_29
REMARK    6  A    between atoms: C_31  and  N_36
REMARK    7  A    between atoms: C_34  and  O_35
REMARK                            x       y       z     vdW  Elec       q    Type
REMARK                         _______ _______ _______ _____ _____    ______ ____
ROOT
ATOM      1  C   UNL     1      -0.574   1.993  -3.557  0.00  0.00    +0.058 A 
ATOM      2  C   UNL     1       0.138   2.087  -4.752  0.00  0.00    +0.015 A 
ATOM      3  C   UNL     1       1.485   1.800  -4.777  0.00  0.00    +0.001 A 
ATOM      4  C   UNL     1       2.130   1.411  -3.614  0.00  0.00    +0.006 A 
ATOM      5  C   UNL     1       1.441   1.308  -2.425  0.00  0.00    -0.019 A 
ATOM      6  C   UNL     1       0.076   1.605  -2.367  0.00  0.00    +0.044 A 
ATOM      7  N   UNL     1      -0.680   1.567  -1.208  0.00  0.00    -0.336 N 
ATOM      8  C   UNL     1      -0.008   1.087   0.010  0.00  0.00    +0.108 C 
ATOM      9  C   UNL     1       1.401   1.644  -0.010  0.00  0.00    +0.029 C 
ATOM     10  C   UNL     1       2.107   0.881  -1.175  0.00  0.00    +0.049 C 
ATOM     11  C   UNL     1       3.546   1.124  -0.911  0.00  0.00    -0.023 C 
ATOM     12  C   UNL     1       3.712   1.299   0.396  0.00  0.00    -0.030 C 
ATOM     13  C   UNL     1       2.359   1.220   1.108  0.00  0.00    +0.033 C 
ATOM     14  H   UNL     1      -1.736   1.874  -1.169  0.00  0.00    +0.147 HD
ENDROOT
BRANCH   8  15
ATOM     15  C   UNL     1      -0.738   1.583   1.232  0.00  0.00    +0.017 A 
ATOM     16  C   UNL     1      -0.971   0.730   2.293  0.00  0.00    +0.041 A 
ATOM     17  C   UNL     1      -1.641   1.184   3.413  0.00  0.00    +0.127 A 
ATOM     18  C   UNL     1      -2.079   2.494   3.475  0.00  0.00    +0.036 A 
ATOM     19  C   UNL     1      -1.850   3.351   2.417  0.00  0.00    +0.048 A 
ATOM     20  C   UNL     1      -1.173   2.899   1.294  0.00  0.00    +0.122 A 
BRANCH  17  21
ATOM     21  N   UNL     1      -1.888   0.267   4.548  0.00  0.00    +0.056 N 
ATOM     22  O   UNL     1      -1.502  -0.887   4.495  0.00  0.00    -0.126 OA
ATOM     23  O   UNL     1      -2.478   0.666   5.536  0.00  0.00    -0.126 OA
ENDBRANCH  17  21
BRANCH  20  24
ATOM     24  O   UNL     1      -0.941   3.743   0.254  0.00  0.00    -0.506 OA
ATOM     25  H   UNL     1      -1.286   4.786   0.304  0.00  0.00    +0.292 HD
ENDBRANCH  20  24
ENDBRANCH   8  15
BRANCH   1  27
ATOM     26  N   UNL     1      -2.640   2.672  -4.672  0.00  0.00    -0.305 N 
ATOM     27  C   UNL     1      -2.015   2.301  -3.538  0.00  0.00    +0.246 C 
ATOM     28  O   UNL     1      -2.640   2.220  -2.498  0.00  0.00    -0.270 OA
ATOM     29  H   UNL     1      -2.075   2.746  -5.613  0.00  0.00    +0.150 HD
BRANCH  26  31
ATOM     30  C   UNL     1      -4.873   1.685  -4.809  0.00  0.00    +0.033 C 
ATOM     31  C   UNL     1      -4.073   2.979  -4.653  0.00  0.00    +0.100 C 
BRANCH  31  32
ATOM     32  C   UNL     1      -4.402   3.913  -5.789  0.00  0.00    -0.027 A 
ATOM     33  C   UNL     1      -3.804   3.739  -7.023  0.00  0.00    +0.005 A 
ATOM     34  C   UNL     1      -4.109   4.593  -8.065  0.00  0.00    +0.000 A 
ATOM     35  C   UNL     1      -5.005   5.628  -7.872  0.00  0.00    +0.000 A 
ATOM     36  C   UNL     1      -5.600   5.805  -6.636  0.00  0.00    +0.000 A 
ATOM     37  C   UNL     1      -5.298   4.948  -5.595  0.00  0.00    +0.005 A 
ENDBRANCH  31  32
ENDBRANCH  26  31
ENDBRANCH   1  27
TORSDOF 6
