REMARK  Name = ZINC13995348
REMARK  10 active torsions:
REMARK  status: ('A' for Active; 'I' for Inactive)
REMARK    1  A    between atoms: C_1  and  C_2
REMARK    2  A    between atoms: C_6  and  N_8
REMARK    3  A    between atoms: C_11  and  C_13
REMARK    4  A    between atoms: C_14  and  C_23
REMARK    5  A    between atoms: C_17  and  C_22
REMARK    6  A    between atoms: C_26  and  O_31
REMARK    7  A    between atoms: C_27  and  O_29
REMARK    8  A    between atoms: O_29  and  C_30
REMARK    9  A    between atoms: O_31  and  C_32
REMARK   10  A    between atoms: C_32  and  C_33
REMARK                            x       y       z     vdW  Elec       q    Type
REMARK                         _______ _______ _______ _____ _____    ______ ____
ROOT
ATOM      1  N   UNL     1       0.415  -2.804   2.361  0.00  0.00    -0.218 N 
ATOM      2  C   UNL     1      -0.526  -3.755   2.687  0.00  0.00    +0.133 A 
ATOM      3  C   UNL     1      -0.309  -4.098   3.976  0.00  0.00    +0.033 A 
ATOM      4  C   UNL     1       0.786  -3.342   4.446  0.00  0.00    +0.067 A 
ATOM      5  N   UNL     1       1.216  -2.580   3.481  0.00  0.00    -0.170 NA
ATOM      6  C   UNL     1       1.368  -3.411   5.834  0.00  0.00    +0.068 C 
ATOM      7  C   UNL     1      -1.029  -5.078   4.849  0.00  0.00    +0.112 C 
ATOM      8  S   UNL     1      -2.787  -5.181   4.502  0.00  0.00    -0.135 S 
ATOM      9  C   UNL     1      -2.928  -5.908   2.864  0.00  0.00    +0.130 C 
ATOM     10  C   UNL     1      -2.455  -5.008   1.790  0.00  0.00    +0.231 C 
ATOM     11  O   UNL     1      -3.111  -5.043   0.770  0.00  0.00    -0.274 OA
ATOM     12  N   UNL     1      -1.449  -4.186   1.766  0.00  0.00    -0.269 N 
ATOM     13  C   UNL     1      -2.103  -7.196   2.823  0.00  0.00    +0.029 C 
ATOM     14  H   UNL     1      -1.321  -3.782   0.894  0.00  0.00    +0.156 HD
ENDROOT
BRANCH   1  20
ATOM     15  C   UNL     1       3.303  -1.183  -1.276  0.00  0.00    +0.044 C 
ATOM     16  C   UNL     1       1.937  -1.376  -0.669  0.00  0.00    -0.048 A 
ATOM     17  C   UNL     1       0.814  -0.930  -1.341  0.00  0.00    +0.003 A 
ATOM     18  C   UNL     1      -0.441  -1.104  -0.788  0.00  0.00    +0.002 A 
ATOM     19  C   UNL     1      -0.576  -1.725   0.439  0.00  0.00    +0.028 A 
ATOM     20  C   UNL     1       0.549  -2.174   1.116  0.00  0.00    +0.068 A 
ATOM     21  C   UNL     1       1.808  -2.002   0.555  0.00  0.00    +0.031 A 
ENDBRANCH   1  20
BRANCH   7  22
ATOM     22  C   UNL     1      -0.846  -4.670   6.288  0.00  0.00    -0.026 A 
ATOM     23  C   UNL     1      -1.466  -3.531   6.766  0.00  0.00    +0.009 A 
ATOM     24  C   UNL     1      -1.301  -3.153   8.085  0.00  0.00    +0.050 A 
ATOM     25  C   UNL     1      -0.512  -3.916   8.932  0.00  0.00    +0.163 A 
ATOM     26  C   UNL     1       0.112  -5.063   8.450  0.00  0.00    +0.162 A 
ATOM     27  C   UNL     1      -0.062  -5.439   7.128  0.00  0.00    +0.054 A 
BRANCH  26  28
ATOM     28  O   UNL     1       0.886  -5.815   9.277  0.00  0.00    -0.491 OA
ATOM     29  C   UNL     1       1.496  -6.979   8.714  0.00  0.00    +0.277 C 
ENDBRANCH  26  28
BRANCH  25  30
ATOM     30  O   UNL     1      -0.349  -3.545  10.230  0.00  0.00    -0.476 OA
BRANCH  30  31
ATOM     31  C   UNL     1      -1.019  -2.356  10.654  0.00  0.00    +0.317 C 
BRANCH  31  32
ATOM     32  C   UNL     1      -0.730  -2.111  12.076  0.00  0.00    -0.065 C 
ATOM     33  C   UNL     1      -0.499  -1.916  13.211  0.00  0.00    +0.007 C 
ENDBRANCH  31  32
ENDBRANCH  30  31
ENDBRANCH  25  30
ENDBRANCH   7  22
TORSDOF 6
