REMARK  Name = ZINC57521400
REMARK  7 active torsions:
REMARK  status: ('A' for Active; 'I' for Inactive)
REMARK    1  A    between atoms: C_1  and  C_2
REMARK    2  A    between atoms: C_5  and  N_9
REMARK    3  A    between atoms: C_10  and  C_12
REMARK    4  A    between atoms: C_12  and  S_13
REMARK    5  A    between atoms: S_13  and  C_14
REMARK    6  A    between atoms: C_18  and  C_26
REMARK    7  A    between atoms: N_24  and  C_25
REMARK                            x       y       z     vdW  Elec       q    Type
REMARK                         _______ _______ _______ _____ _____    ______ ____
ROOT
ATOM      1  S   UNL     1      -0.257  -6.940  -2.899  0.00  0.00    -0.078 S 
ENDROOT
BRANCH   1   2
ATOM      2  C   UNL     1      -0.358  -8.691  -2.733  0.00  0.00    +0.172 A 
ATOM      3  N   UNL     1      -0.338  -9.220  -1.532  0.00  0.00    -0.222 NA
ATOM      4  C   UNL     1      -0.413 -10.555  -1.361  0.00  0.00    +0.097 A 
ATOM      5  C   UNL     1      -0.415 -11.398  -0.228  0.00  0.00    +0.051 A 
ATOM      6  C   UNL     1      -0.513 -12.671  -0.658  0.00  0.00    +0.016 A 
ATOM      7  N   UNL     1      -0.575 -12.688  -2.018  0.00  0.00    -0.353 N 
ATOM      8  H   UNL     1      -0.649 -13.481  -2.571  0.00  0.00    +0.166 HD
ATOM      9  C   UNL     1      -0.515 -11.390  -2.480  0.00  0.00    +0.131 A 
ATOM     10  C   UNL     1      -0.535 -10.806  -3.760  0.00  0.00    +0.278 A 
ATOM     11  O   UNL     1      -0.623 -11.498  -4.761  0.00  0.00    -0.265 OA
ATOM     12  N   UNL     1      -0.462  -9.460  -3.857  0.00  0.00    -0.289 N 
ATOM     13  C   UNL     1      -0.487  -8.822  -5.175  0.00  0.00    +0.154 C 
ATOM     14  C   UNL     1      -0.549 -13.889   0.229  0.00  0.00    +0.063 C 
ENDBRANCH   1   2
BRANCH   1  15
ATOM     15  C   UNL     1      -0.136  -6.343  -1.191  0.00  0.00    +0.173 C 
BRANCH  15  17
ATOM     16  N   UNL     1       0.057  -4.171  -0.023  0.00  0.00    -0.284 N 
ATOM     17  C   UNL     1      -0.042  -4.839  -1.190  0.00  0.00    +0.228 C 
ATOM     18  O   UNL     1      -0.055  -4.230  -2.238  0.00  0.00    -0.275 OA
ATOM     19  H   UNL     1       0.149  -4.660   0.809  0.00  0.00    +0.155 HD
BRANCH  16  24
ATOM     20  C   UNL     1      -0.064   1.502   0.016  0.00  0.00    +0.044 C 
ATOM     21  C   UNL     1      -0.031  -0.005   0.006  0.00  0.00    -0.049 A 
ATOM     22  C   UNL     1      -0.622  -0.701  -1.033  0.00  0.00    +0.005 A 
ATOM     23  C   UNL     1      -0.594  -2.082  -1.045  0.00  0.00    +0.025 A 
ATOM     24  C   UNL     1       0.028  -2.772  -0.014  0.00  0.00    +0.052 A 
ATOM     25  C   UNL     1       0.621  -2.070   1.029  0.00  0.00    +0.062 A 
ATOM     26  C   UNL     1       0.595  -0.688   1.032  0.00  0.00    +0.025 A 
ATOM     27 CL   UNL     1       1.401  -2.928   2.321  0.00  0.00    -0.082 Cl
ENDBRANCH  16  24
ENDBRANCH  15  17
ENDBRANCH   1  15
TORSDOF 4
