REMARK  Name = ZINC67504092
REMARK  4 active torsions:
REMARK  status: ('A' for Active; 'I' for Inactive)
REMARK    1  A    between atoms: C_5  and  C_7
REMARK    2  A    between atoms: C_10  and  C_12
REMARK    3  A    between atoms: C_12  and  N_13
REMARK    4  A    between atoms: N_13  and  C_14
REMARK                            x       y       z     vdW  Elec       q    Type
REMARK                         _______ _______ _______ _____ _____    ______ ____
ROOT
ATOM      1  N   UNL     1       1.004  -6.687  -1.823  0.00  0.00    +0.387 N 
ATOM      2  H   UNL     1       0.049  -6.733  -1.500  0.00  0.00    -0.085 HD
ATOM      3  H   UNL     1       1.072  -6.017  -2.575  0.00  0.00    -0.085 HD
ENDROOT
BRANCH   1   4
ATOM      4  C   UNL     1       1.421  -8.010  -2.307  0.00  0.00    -0.039 C 
ATOM      5  C   UNL     1       2.828  -7.910  -2.892  0.00  0.00    -0.011 C 
ATOM      6  C   UNL     1       3.151  -9.237  -3.591  0.00  0.00    +0.005 C 
ATOM      7  C   UNL     1       2.271  -9.348  -4.834  0.00  0.00    +0.053 C 
ATOM      8  C   UNL     1       0.825  -9.098  -4.488  0.00  0.00    +0.021 A 
ATOM      9  C   UNL     1       0.444  -8.488  -3.349  0.00  0.00    -0.042 A 
ATOM     10  C   UNL     1      -0.927  -8.276  -3.098  0.00  0.00    +0.009 A 
ATOM     11  C   UNL     1      -1.855  -8.691  -4.001  0.00  0.00    +0.070 A 
ATOM     12  C   UNL     1      -1.423  -9.331  -5.176  0.00  0.00    +0.249 A 
ATOM     13  O   UNL     1      -2.238  -9.715  -6.000  0.00  0.00    -0.268 OA
ATOM     14  N   UNL     1      -0.113  -9.519  -5.388  0.00  0.00    -0.326 N 
ATOM     15  H   UNL     1       0.176  -9.963  -6.201  0.00  0.00    +0.169 HD
ENDBRANCH   1   4
BRANCH   1  16
ATOM     16  C   UNL     1       1.876  -6.273  -0.716  0.00  0.00    -0.039 C 
BRANCH  16  20
ATOM     17  C   UNL     1       0.751  -2.452   0.584  0.00  0.00    +0.022 A 
ATOM     18  C   UNL     1       0.159  -3.495   1.243  0.00  0.00    +0.016 A 
ATOM     19  C   UNL     1       0.480  -4.783   0.870  0.00  0.00    +0.010 A 
ATOM     20  C   UNL     1       1.370  -4.977  -0.136  0.00  0.00    -0.027 A 
ATOM     21  S   UNL     1       1.783  -3.303  -0.599  0.00  0.00    -0.095 S 
BRANCH  17  26
ATOM     22  C   UNL     1      -0.861   0.908   1.047  0.00  0.00    +0.001 A 
ATOM     23  C   UNL     1       0.248   1.725   1.181  0.00  0.00    +0.003 A 
ATOM     24  C   UNL     1       1.522   1.188   1.122  0.00  0.00    +0.039 A 
ATOM     25  C   UNL     1       1.693  -0.170   0.928  0.00  0.00    +0.132 A 
ATOM     26  C   UNL     1       0.577  -0.999   0.792  0.00  0.00    +0.024 A 
ATOM     27  C   UNL     1      -0.704  -0.449   0.853  0.00  0.00    +0.012 A 
ATOM     28  F   UNL     1       2.937  -0.694   0.869  0.00  0.00    -0.205 F 
ENDBRANCH  17  26
ENDBRANCH  16  20
ENDBRANCH   1  16
TORSDOF 4
