REMARK  Name = ZINC07378335
REMARK  2 active torsions:
REMARK  status: ('A' for Active; 'I' for Inactive)
REMARK    1  A    between atoms: N_11  and  S_12
REMARK    2  A    between atoms: S_12  and  C_15
REMARK                            x       y       z     vdW  Elec       q    Type
REMARK                         _______ _______ _______ _____ _____    ______ ____
ROOT
ATOM      1  C   UNL     1      -0.164   0.381   0.180  0.00  0.00    +0.002 A 
ATOM      2  C   UNL     1       0.850   1.317   0.099  0.00  0.00    +0.002 A 
ATOM      3  C   UNL     1       2.171   0.910   0.054  0.00  0.00    +0.026 A 
ATOM      4  C   UNL     1       2.475  -0.440   0.091  0.00  0.00    +0.073 A 
ATOM      5  C   UNL     1       1.452  -1.387   0.170  0.00  0.00    +0.056 A 
ATOM      6  C   UNL     1       0.132  -0.969   0.217  0.00  0.00    +0.025 A 
ATOM      7  N   UNL     1       1.774  -2.749   0.196  0.00  0.00    -0.283 N 
ATOM      8  C   UNL     1       3.037  -3.153   0.432  0.00  0.00    +0.236 C 
ATOM      9  O   UNL     1       3.302  -4.337   0.407  0.00  0.00    -0.274 OA
ATOM     10  C   UNL     1       4.124  -2.152   0.727  0.00  0.00    +0.227 C 
ATOM     11  N   UNL     1       3.804  -0.884   0.054  0.00  0.00    -0.192 N 
ATOM     12  H   UNL     1       1.080  -3.409   0.041  0.00  0.00    +0.155 HD
ENDROOT
BRANCH  11  13
ATOM     13  S   UNL     1       4.976  -0.009  -0.722  0.00  0.00    +0.075 S 
ATOM     14  O   UNL     1       5.962  -0.940  -1.148  0.00  0.00    -0.150 OA
ATOM     15  O   UNL     1       4.304   0.857  -1.627  0.00  0.00    -0.150 OA
BRANCH  13  16
ATOM     16  C   UNL     1       5.743   1.020   0.485  0.00  0.00    +0.110 A 
ATOM     17  C   UNL     1       5.324   2.328   0.645  0.00  0.00    +0.029 A 
ATOM     18  C   UNL     1       5.925   3.136   1.591  0.00  0.00    +0.003 A 
ATOM     19  C   UNL     1       6.947   2.637   2.378  0.00  0.00    +0.020 A 
ATOM     20  C   UNL     1       7.366   1.329   2.218  0.00  0.00    +0.043 A 
ATOM     21  C   UNL     1       6.760   0.519   1.275  0.00  0.00    +0.048 A 
ATOM     22 CL   UNL     1       8.649   0.702   3.206  0.00  0.00    -0.083 Cl
ENDBRANCH  13  16
ENDBRANCH  11  13
TORSDOF 2
