REMARK  Name = ZINC24503388
REMARK  6 active torsions:
REMARK  status: ('A' for Active; 'I' for Inactive)
REMARK    1  A    between atoms: C_1  and  C_2
REMARK    2  A    between atoms: C_2  and  C_3
REMARK    3  A    between atoms: C_3  and  C_4
REMARK    4  A    between atoms: C_9  and  N_10
REMARK    5  A    between atoms: C_11  and  C_13
REMARK    6  A    between atoms: C_13  and  N_14
REMARK                            x       y       z     vdW  Elec       q    Type
REMARK                         _______ _______ _______ _____ _____    ______ ____
ROOT
ATOM      1  N   UNL     1      -0.017   1.395   0.010  0.00  0.00    -0.284 N 
ATOM      2  C   UNL     1       1.044   1.970   0.610  0.00  0.00    +0.237 C 
ATOM      3  O   UNL     1       1.964   1.285   1.002  0.00  0.00    -0.274 OA
ATOM      4  H   UNL     1      -0.817   2.021  -0.412  0.00  0.00    +0.155 HD
ENDROOT
BRANCH   1  10
ATOM      5  C   UNL     1      -1.336  -0.628   0.000  0.00  0.00    -0.026 A 
ATOM      6  C   UNL     1      -1.415  -2.004  -0.086  0.00  0.00    +0.005 A 
ATOM      7  C   UNL     1      -0.266  -2.756  -0.250  0.00  0.00    +0.000 A 
ATOM      8  C   UNL     1       0.966  -2.132  -0.327  0.00  0.00    +0.002 A 
ATOM      9  C   UNL     1       1.051  -0.756  -0.247  0.00  0.00    +0.023 A 
ATOM     10  C   UNL     1      -0.101   0.001  -0.077  0.00  0.00    +0.037 A 
BRANCH   5  11
ATOM     11  C   UNL     1      -2.589   0.190   0.178  0.00  0.00    +0.037 C 
BRANCH  11  13
ATOM     12  C   UNL     1      -4.356   1.500  -1.008  0.00  0.00    +0.004 C 
ATOM     13  C   UNL     1      -3.083   0.669  -1.189  0.00  0.00    +0.001 C 
ENDBRANCH  11  13
ENDBRANCH   5  11
ENDBRANCH   1  10
BRANCH   2  14
ATOM     14  C   UNL     1       1.086   3.465   0.794  0.00  0.00    +0.222 C 
BRANCH  14  15
ATOM     15  N   UNL     1       2.333   3.839   1.466  0.00  0.00    -0.291 N 
ATOM     16  C   UNL     1       3.445   4.127   0.722  0.00  0.00    +0.111 A 
ATOM     17  C   UNL     1       4.594   4.472   1.342  0.00  0.00    +0.098 A 
ATOM     18  C   UNL     1       4.623   4.529   2.757  0.00  0.00    +0.268 A 
ATOM     19  O   UNL     1       5.647   4.838   3.340  0.00  0.00    -0.267 OA
ATOM     20  N   UNL     1       3.505   4.239   3.454  0.00  0.00    -0.274 N 
ATOM     21  H   UNL     1       3.517   4.276   4.553  0.00  0.00    +0.173 HD
ATOM     22  C   UNL     1       2.372   3.902   2.810  0.00  0.00    +0.330 A 
ATOM     23  O   UNL     1       1.371   3.648   3.451  0.00  0.00    -0.246 OA
ATOM     24 BR   UNL     1       6.144   4.874   0.336  0.00  0.00    -0.043 Br
ENDBRANCH  14  15
ENDBRANCH   2  14
TORSDOF 5
