REMARK  Name = ZINC14658820
REMARK  10 active torsions:
REMARK  status: ('A' for Active; 'I' for Inactive)
REMARK    1  A    between atoms: C_1  and  C_2
REMARK    2  A    between atoms: C_2  and  C_4
REMARK    3  A    between atoms: C_2  and  O_21
REMARK    4  A    between atoms: N_6  and  N_7
REMARK    5  A    between atoms: C_8  and  C_10
REMARK    6  A    between atoms: C_13  and  O_17
REMARK    7  A    between atoms: O_17  and  C_18
REMARK    8  A    between atoms: C_18  and  C_19
REMARK    9  A    between atoms: C_18  and  C_20
REMARK   10  A    between atoms: O_21  and  C_22
REMARK                            x       y       z     vdW  Elec       q    Type
REMARK                         _______ _______ _______ _____ _____    ______ ____
ROOT
ATOM      1  C   UNL     1       1.054  -0.568   0.962  0.00  0.00    +0.270 C 
ATOM      2  O   UNL     1       2.204  -0.831   0.680  0.00  0.00    -0.270 OA
ATOM      3  N   UNL     1       0.674  -0.508   2.254  0.00  0.00    -0.231 N 
ATOM      4  H   UNL     1      -0.245  -0.297   2.480  0.00  0.00    +0.173 HD
ENDROOT
BRANCH   3   5
ATOM      5  N   UNL     1       1.608  -0.750   3.271  0.00  0.00    -0.230 N 
ATOM      6  C   UNL     1       1.228  -0.690   4.562  0.00  0.00    +0.260 C 
ATOM      7  O   UNL     1       0.075  -0.426   4.846  0.00  0.00    -0.269 OA
ATOM      8  H   UNL     1       2.527  -0.960   3.045  0.00  0.00    +0.173 HD
BRANCH   6   9
ATOM      9  C   UNL     1       2.211  -0.944   5.633  0.00  0.00    +0.039 A 
ATOM     10  C   UNL     1       3.538  -1.242   5.310  0.00  0.00    +0.017 A 
ATOM     11  C   UNL     1       4.453  -1.479   6.311  0.00  0.00    +0.047 A 
ATOM     12  C   UNL     1       4.059  -1.422   7.643  0.00  0.00    +0.135 A 
ATOM     13  C   UNL     1       2.740  -1.126   7.970  0.00  0.00    +0.060 A 
ATOM     14  C   UNL     1       1.820  -0.883   6.973  0.00  0.00    +0.032 A 
ATOM     15 BR   UNL     1       2.210  -1.051   9.783  0.00  0.00    -0.046 Br
BRANCH  12  16
ATOM     16  O   UNL     1       4.963  -1.657   8.627  0.00  0.00    -0.488 OA
BRANCH  16  17
ATOM     17  C   UNL     1       6.324  -1.832   8.229  0.00  0.00    +0.167 C 
ATOM     18  C   UNL     1       7.247  -1.475   9.396  0.00  0.00    +0.051 C 
ATOM     19  C   UNL     1       6.554  -3.289   7.825  0.00  0.00    +0.051 C 
ENDBRANCH  16  17
ENDBRANCH  12  16
ENDBRANCH   6   9
ENDBRANCH   3   5
BRANCH   1  21
ATOM     20  C   UNL     1      -0.424   1.145  -0.053  0.00  0.00    +0.062 C 
ATOM     21  C   UNL     1       0.050  -0.308  -0.131  0.00  0.00    +0.257 C 
BRANCH  21  22
ATOM     22  O   UNL     1       0.659  -0.543  -1.402  0.00  0.00    -0.478 OA
BRANCH  22  23
ATOM     23  C   UNL     1      -0.169  -0.856  -2.434  0.00  0.00    +0.140 A 
ATOM     24  C   UNL     1      -1.544  -0.829  -2.255  0.00  0.00    +0.048 A 
ATOM     25  C   UNL     1      -2.384  -1.149  -3.304  0.00  0.00    +0.023 A 
ATOM     26  C   UNL     1      -1.854  -1.495  -4.535  0.00  0.00    +0.043 A 
ATOM     27  C   UNL     1      -0.483  -1.523  -4.717  0.00  0.00    +0.043 A 
ATOM     28  C   UNL     1       0.361  -1.199  -3.671  0.00  0.00    +0.084 A 
ATOM     29 CL   UNL     1       2.081  -1.227  -3.901  0.00  0.00    -0.080 Cl
ATOM     30 CL   UNL     1      -2.911  -1.897  -5.852  0.00  0.00    -0.083 Cl
ENDBRANCH  22  23
ENDBRANCH  21  22
ENDBRANCH   1  21
TORSDOF 7
