REMARK  Name = ZINC36490964
REMARK  15 active torsions:
REMARK  status: ('A' for Active; 'I' for Inactive)
REMARK    1  A    between atoms: C_1  and  C_2
REMARK    2  A    between atoms: C_2  and  C_3
REMARK    3  A    between atoms: C_2  and  C_4
REMARK    4  A    between atoms: C_2  and  C_5
REMARK    5  A    between atoms: C_5  and  C_6
REMARK    6  A    between atoms: C_6  and  C_7
REMARK    7  A    between atoms: C_6  and  C_8
REMARK    8  A    between atoms: C_6  and  N_9
REMARK    9  A    between atoms: C_10  and  C_12
REMARK   10  A    between atoms: C_12  and  C_14
REMARK   11  A    between atoms: C_12  and  N_21
REMARK   12  A    between atoms: C_18  and  O_20
REMARK   13  A    between atoms: N_21  and  C_22
REMARK   14  A    between atoms: C_28  and  C_30
REMARK   15  A    between atoms: C_34  and  N_36
REMARK                            x       y       z     vdW  Elec       q    Type
REMARK                         _______ _______ _______ _____ _____    ______ ____
ROOT
ATOM      1  C   UNL     1       5.235  -0.243  -4.403  0.00  0.00    +0.193 C 
ENDROOT
BRANCH   1   2
ATOM      2  C   UNL     1       4.947  -1.698  -4.672  0.00  0.00    -0.015 A 
ATOM      3  C   UNL     1       4.255  -2.449  -3.739  0.00  0.00    +0.006 A 
ATOM      4  C   UNL     1       3.989  -3.783  -3.983  0.00  0.00    +0.004 A 
ATOM      5  C   UNL     1       4.414  -4.370  -5.159  0.00  0.00    +0.045 A 
ATOM      6  C   UNL     1       5.107  -3.619  -6.097  0.00  0.00    +0.117 A 
ATOM      7  C   UNL     1       5.368  -2.278  -5.853  0.00  0.00    +0.051 A 
BRANCH   6   8
ATOM      8  O   UNL     1       5.526  -4.194  -7.255  0.00  0.00    -0.507 OA
ATOM      9  H   UNL     1       4.884  -4.138  -7.976  0.00  0.00    +0.292 HD
ENDBRANCH   6   8
ENDBRANCH   1   2
BRANCH   1  11
ATOM     10  N   UNL     1       3.498  -0.087  -2.650  0.00  0.00    -0.308 N 
ATOM     11  C   UNL     1       4.781   0.110  -3.010  0.00  0.00    +0.239 C 
ATOM     12  O   UNL     1       5.571   0.572  -2.214  0.00  0.00    -0.273 OA
ATOM     13  H   UNL     1       2.866  -0.457  -3.286  0.00  0.00    +0.149 HD
BRANCH  10  14
ATOM     14  C   UNL     1       3.056   0.256  -1.295  0.00  0.00    +0.030 C 
ATOM     15  C   UNL     1       3.645   1.610  -0.895  0.00  0.00    +0.031 C 
ATOM     16  C   UNL     1       3.535  -0.818  -0.316  0.00  0.00    +0.031 C 
BRANCH  14  17
ATOM     17  C   UNL     1       1.529   0.334  -1.261  0.00  0.00    +0.031 C 
BRANCH  17  19
ATOM     18  C   UNL     1       0.971   0.145  -3.689  0.00  0.00    +0.010 C 
ATOM     19  C   UNL     1       1.029   1.095  -2.491  0.00  0.00    -0.036 C 
ATOM     20  C   UNL     1       1.985   2.248  -2.800  0.00  0.00    +0.010 C 
ATOM     21  C   UNL     1      -0.369   1.652  -2.212  0.00  0.00    +0.010 C 
ENDBRANCH  17  19
ENDBRANCH  14  17
ENDBRANCH  10  14
ENDBRANCH   1  11
BRANCH   1  22
ATOM     22  N   UNL     1       6.675  -0.000  -4.524  0.00  0.00    -0.279 N 
ATOM     23  C   UNL     1       7.133   0.911  -5.405  0.00  0.00    +0.248 C 
ATOM     24  O   UNL     1       6.372   1.419  -6.205  0.00  0.00    -0.270 OA
BRANCH  22  25
ATOM     25  C   UNL     1       7.616  -0.748  -3.687  0.00  0.00    +0.077 C 
ATOM     26  C   UNL     1       6.914  -1.973  -3.098  0.00  0.00    +0.022 C 
ATOM     27  C   UNL     1       7.897  -2.754  -2.224  0.00  0.00    +0.002 C 
ATOM     28  C   UNL     1       8.394  -1.857  -1.089  0.00  0.00    +0.000 C 
ATOM     29  C   UNL     1       9.097  -0.631  -1.678  0.00  0.00    +0.002 C 
ATOM     30  C   UNL     1       8.113   0.149  -2.552  0.00  0.00    +0.022 C 
ENDBRANCH  22  25
BRANCH  23  31
ATOM     31  C   UNL     1       8.562   1.291  -5.399  0.00  0.00    +0.039 A 
ATOM     32  C   UNL     1       9.451   0.661  -4.528  0.00  0.00    +0.013 A 
ATOM     33  C   UNL     1      10.783   1.020  -4.528  0.00  0.00    +0.003 A 
ATOM     34  C   UNL     1      11.237   2.004  -5.389  0.00  0.00    +0.033 A 
ATOM     35  C   UNL     1      10.361   2.633  -6.254  0.00  0.00    +0.127 A 
ATOM     36  C   UNL     1       9.027   2.279  -6.269  0.00  0.00    +0.045 A 
BRANCH  35  37
ATOM     37  N   UNL     1      10.855   3.685  -7.171  0.00  0.00    +0.056 N 
ATOM     38  O   UNL     1      12.024   3.993  -7.163  0.00  0.00    -0.126 OA
ATOM     39  O   UNL     1      10.090   4.236  -7.928  0.00  0.00    -0.126 OA
ENDBRANCH  35  37
ENDBRANCH  23  31
ENDBRANCH   1  22
TORSDOF 10
