REMARK  Name = ZINC66556144
REMARK  6 active torsions:
REMARK  status: ('A' for Active; 'I' for Inactive)
REMARK    1  A    between atoms: C_3  and  C_11
REMARK    2  A    between atoms: C_6  and  N_7
REMARK    3  A    between atoms: N_13  and  N_14
REMARK    4  A    between atoms: C_15  and  C_17
REMARK    5  A    between atoms: C_17  and  C_18
REMARK    6  A    between atoms: C_18  and  C_19
REMARK                            x       y       z     vdW  Elec       q    Type
REMARK                         _______ _______ _______ _____ _____    ______ ____
ROOT
ATOM      1  C   UNL     1       3.656   2.163  -0.022  0.00  0.00    +0.262 C 
ATOM      2  O   UNL     1       4.715   1.567  -0.035  0.00  0.00    -0.269 OA
ATOM      3  N   UNL     1       3.640   3.510  -0.015  0.00  0.00    -0.230 N 
ATOM      4  H   UNL     1       2.794   3.985  -0.004  0.00  0.00    +0.173 HD
ENDROOT
BRANCH   1   7
ATOM      5  C   UNL     1      -0.017   1.380   0.010  0.00  0.00    +0.033 A 
ATOM      6  C   UNL     1       1.166   2.089   0.002  0.00  0.00    +0.017 A 
ATOM      7  C   UNL     1       2.385   1.409  -0.013  0.00  0.00    +0.057 A 
ATOM      8  C   UNL     1       2.397   0.012  -0.021  0.00  0.00    +0.055 A 
ATOM      9  C   UNL     1       1.205  -0.686  -0.013  0.00  0.00    +0.053 A 
ATOM     10  C   UNL     1       0.002  -0.004   0.002  0.00  0.00    +0.128 A 
ATOM     11 CL   UNL     1       3.907  -0.845  -0.040  0.00  0.00    -0.083 Cl
BRANCH  10  12
ATOM     12  N   UNL     1      -1.272  -0.758   0.010  0.00  0.00    +0.056 N 
ATOM     13  O   UNL     1      -2.325  -0.165   0.023  0.00  0.00    -0.126 OA
ATOM     14  O   UNL     1      -1.259  -1.967   0.004  0.00  0.00    -0.126 OA
ENDBRANCH  10  12
ENDBRANCH   1   7
BRANCH   3  15
ATOM     15  N   UNL     1       4.845   4.225  -0.023  0.00  0.00    -0.234 N 
ATOM     16  C   UNL     1       4.829   5.573  -0.016  0.00  0.00    +0.229 C 
ATOM     17  O   UNL     1       3.772   6.167  -0.003  0.00  0.00    -0.274 OA
ATOM     18  H   UNL     1       5.691   3.750  -0.034  0.00  0.00    +0.173 HD
BRANCH  16  19
ATOM     19  C   UNL     1       6.125   6.341  -0.025  0.00  0.00    +0.097 C 
BRANCH  19  20
ATOM     20  C   UNL     1       5.828   7.842  -0.014  0.00  0.00    +0.013 C 
BRANCH  20  21
ATOM     21  C   UNL     1       7.144   8.623  -0.023  0.00  0.00    -0.011 C 
ATOM     22  C   UNL     1       7.907   8.352   1.275  0.00  0.00    +0.003 C 
ATOM     23  C   UNL     1       9.222   9.133   1.266  0.00  0.00    +0.000 C 
ATOM     24  C   UNL     1       8.927  10.629   1.151  0.00  0.00    +0.000 C 
ATOM     25  C   UNL     1       8.165  10.900  -0.147  0.00  0.00    +0.000 C 
ATOM     26  C   UNL     1       6.849  10.120  -0.139  0.00  0.00    +0.003 C 
ENDBRANCH  20  21
ENDBRANCH  19  20
ENDBRANCH  16  19
ENDBRANCH   3  15
TORSDOF 6
