REMARK  Name = ZINC65421866
REMARK  6 active torsions:
REMARK  status: ('A' for Active; 'I' for Inactive)
REMARK    1  A    between atoms: C_1  and  C_2
REMARK    2  A    between atoms: N_5  and  C_7
REMARK    3  A    between atoms: C_17  and  C_19
REMARK    4  A    between atoms: C_21  and  O_26
REMARK    5  A    between atoms: C_24  and  O_25
REMARK    6  A    between atoms: O_26  and  C_27
REMARK                            x       y       z     vdW  Elec       q    Type
REMARK                         _______ _______ _______ _____ _____    ______ ____
ROOT
ATOM      1  C   UNL     1      -0.018   1.503   0.010  0.00  0.00    +0.068 C 
ATOM      2  C   UNL     1       0.002  -0.004   0.002  0.00  0.00    +0.066 A 
ATOM      3  C   UNL     1       0.008  -0.812  -1.125  0.00  0.00    +0.023 A 
ATOM      4  C   UNL     1       0.033  -2.117  -0.710  0.00  0.00    +0.127 A 
ATOM      5  N   UNL     1       0.033  -2.117   0.631  0.00  0.00    -0.247 N 
ATOM      6  N   UNL     1       0.023  -0.780   1.060  0.00  0.00    -0.174 NA
ATOM      7  N   UNL     1       0.065  -3.178  -1.615  0.00  0.00    -0.270 N 
ATOM      8  C   UNL     1       0.275  -2.895  -2.918  0.00  0.00    +0.219 C 
ATOM      9  O   UNL     1       0.120  -3.772  -3.741  0.00  0.00    -0.275 OA
ATOM     10  C   UNL     1       0.695  -1.529  -3.381  0.00  0.00    +0.109 C 
ATOM     11  C   UNL     1      -0.014  -0.430  -2.583  0.00  0.00    +0.066 C 
ATOM     12  H   UNL     1      -0.060  -4.092  -1.316  0.00  0.00    +0.156 HD
ENDROOT
BRANCH   5  13
ATOM     13  C   UNL     1       0.046  -3.301   1.494  0.00  0.00    +0.109 C 
ATOM     14  C   UNL     1       1.296  -3.275   2.377  0.00  0.00    +0.027 C 
ATOM     15  C   UNL     1       1.309  -4.511   3.279  0.00  0.00    +0.002 C 
ATOM     16  C   UNL     1       0.060  -4.512   4.162  0.00  0.00    +0.000 C 
ATOM     17  C   UNL     1      -1.189  -4.538   3.279  0.00  0.00    +0.002 C 
ATOM     18  C   UNL     1      -1.203  -3.302   2.378  0.00  0.00    +0.027 C 
ENDBRANCH   5  13
BRANCH  11  19
ATOM     19  C   UNL     1      -1.440  -0.301  -3.053  0.00  0.00    +0.005 A 
ATOM     20  C   UNL     1      -2.293  -1.386  -2.978  0.00  0.00    +0.053 A 
ATOM     21  C   UNL     1      -3.605  -1.267  -3.410  0.00  0.00    +0.121 A 
ATOM     22  C   UNL     1      -4.062  -0.060  -3.917  0.00  0.00    +0.049 A 
ATOM     23  C   UNL     1      -3.210   1.024  -3.992  0.00  0.00    +0.049 A 
ATOM     24  C   UNL     1      -1.899   0.907  -3.556  0.00  0.00    +0.121 A 
BRANCH  24  25
ATOM     25  O   UNL     1      -1.061   1.977  -3.624  0.00  0.00    -0.506 OA
ATOM     26  H   UNL     1      -0.573   2.041  -4.457  0.00  0.00    +0.292 HD
ENDBRANCH  24  25
BRANCH  21  27
ATOM     27  O   UNL     1      -4.444  -2.335  -3.336  0.00  0.00    -0.495 OA
ATOM     28  C   UNL     1      -5.782  -2.142  -3.799  0.00  0.00    +0.277 C 
ENDBRANCH  21  27
ENDBRANCH  11  19
TORSDOF 4
