REMARK  Name = ZINC00808702
REMARK  7 active torsions:
REMARK  status: ('A' for Active; 'I' for Inactive)
REMARK    1  A    between atoms: C_1  and  C_2
REMARK    2  A    between atoms: C_2  and  O_3
REMARK    3  A    between atoms: O_3  and  C_4
REMARK    4  A    between atoms: C_7  and  C_10
REMARK    5  A    between atoms: C_15  and  C_20
REMARK    6  A    between atoms: C_23  and  O_26
REMARK    7  A    between atoms: O_26  and  C_27
REMARK                            x       y       z     vdW  Elec       q    Type
REMARK                         _______ _______ _______ _____ _____    ______ ____
ROOT
ATOM      1  C   UNL     1       2.112  -6.392  -0.137  0.00  0.00    +0.136 C 
ATOM      2  C   UNL     1       1.981  -4.888  -0.176  0.00  0.00    +0.036 C 
ATOM      3  C   UNL     1       1.944  -4.072   0.891  0.00  0.00    +0.017 C 
ATOM      4  C   UNL     1       1.832  -2.567   0.706  0.00  0.00    +0.059 C 
ATOM      5  C   UNL     1       1.012  -2.256  -0.545  0.00  0.00    +0.032 C 
ATOM      6  C   UNL     1       1.729  -2.888  -1.744  0.00  0.00    +0.088 C 
ATOM      7  C   UNL     1       1.893  -4.356  -1.484  0.00  0.00    +0.163 C 
ATOM      8  O   UNL     1       1.953  -5.115  -2.431  0.00  0.00    -0.292 OA
ATOM      9  N   UNL     1       2.001  -4.480   2.184  0.00  0.00    -0.316 N 
ATOM     10  C   UNL     1       2.914  -5.402   2.684  0.00  0.00    +0.052 A 
ATOM     11  C   UNL     1       3.872  -5.059   3.622  0.00  0.00    +0.025 A 
ATOM     12  C   UNL     1       4.722  -6.036   4.112  0.00  0.00    +0.002 A 
ATOM     13  C   UNL     1       4.613  -7.342   3.669  0.00  0.00    +0.002 A 
ATOM     14  C   UNL     1       3.666  -7.682   2.718  0.00  0.00    +0.025 A 
ATOM     15  C   UNL     1       2.828  -6.702   2.211  0.00  0.00    +0.049 A 
ATOM     16  N   UNL     1       1.935  -6.974   1.176  0.00  0.00    -0.331 N 
ATOM     17  H   UNL     1       1.359  -4.102   2.804  0.00  0.00    +0.152 HD
ATOM     18  H   UNL     1       1.182  -7.564   1.339  0.00  0.00    +0.147 HD
ENDROOT
BRANCH   1  22
ATOM     19  C   UNL     1       5.992  -7.452  -1.579  0.00  0.00    +0.121 A 
ATOM     20  C   UNL     1       4.859  -7.859  -2.269  0.00  0.00    +0.046 A 
ATOM     21  C   UNL     1       3.606  -7.515  -1.801  0.00  0.00    +0.009 A 
ATOM     22  C   UNL     1       3.480  -6.766  -0.645  0.00  0.00    -0.023 A 
ATOM     23  C   UNL     1       4.608  -6.355   0.041  0.00  0.00    +0.009 A 
ATOM     24  C   UNL     1       5.863  -6.701  -0.420  0.00  0.00    +0.046 A 
BRANCH  19  25
ATOM     25  O   UNL     1       7.226  -7.790  -2.037  0.00  0.00    -0.492 OA
BRANCH  25  27
ATOM     26  C   UNL     1       9.641  -7.811  -1.942  0.00  0.00    +0.048 C 
ATOM     27  C   UNL     1       8.347  -7.337  -1.276  0.00  0.00    +0.225 C 
ENDBRANCH  25  27
ENDBRANCH  19  25
ENDBRANCH   1  22
BRANCH   5  28
ATOM     28  C   UNL     1       0.916  -0.764  -0.736  0.00  0.00    -0.043 A 
ATOM     29  C   UNL     1      -0.322  -0.150  -0.762  0.00  0.00    +0.007 A 
ATOM     30  C   UNL     1      -0.412   1.217  -0.937  0.00  0.00    +0.046 A 
ATOM     31  C   UNL     1       0.741   1.974  -1.086  0.00  0.00    +0.120 A 
ATOM     32  C   UNL     1       1.982   1.355  -1.058  0.00  0.00    +0.046 A 
ATOM     33  C   UNL     1       2.067  -0.013  -0.884  0.00  0.00    +0.007 A 
BRANCH  31  34
ATOM     34  O   UNL     1       0.655   3.319  -1.259  0.00  0.00    -0.495 OA
ATOM     35  C   UNL     1       1.883   4.035  -1.405  0.00  0.00    +0.277 C 
ENDBRANCH  31  34
ENDBRANCH   5  28
TORSDOF 5
