REMARK  Name = ZINC39689117
REMARK  7 active torsions:
REMARK  status: ('A' for Active; 'I' for Inactive)
REMARK    1  A    between atoms: C_4  and  C_6
REMARK    2  A    between atoms: C_6  and  C_7
REMARK    3  A    between atoms: C_7  and  C_8
REMARK    4  A    between atoms: C_12  and  C_21
REMARK    5  A    between atoms: N_23  and  C_24
REMARK    6  A    between atoms: C_24  and  C_25
REMARK    7  A    between atoms: N_28  and  C_31
REMARK                            x       y       z     vdW  Elec       q    Type
REMARK                         _______ _______ _______ _____ _____    ______ ____
ROOT
ATOM      1  C   UNL     1       1.072  -3.937   0.846  0.00  0.00    +0.216 C 
ATOM      2  O   UNL     1       1.655  -3.744   1.892  0.00  0.00    -0.276 OA
ATOM      3  N   UNL     1       0.667  -5.180   0.520  0.00  0.00    -0.300 N 
ATOM      4  C   UNL     1      -0.048  -5.611  -0.705  0.00  0.00    +0.121 C 
ATOM      5  C   UNL     1       0.587  -6.972  -1.068  0.00  0.00    +0.100 C 
ATOM      6  C   UNL     1       1.163  -7.503   0.255  0.00  0.00    -0.004 C 
ATOM      7  C   UNL     1       0.842  -6.427   1.303  0.00  0.00    +0.115 C 
ATOM      8  C   UNL     1       2.674  -7.683   0.139  0.00  0.00    -0.010 C 
ATOM      9  C   UNL     1       3.216  -8.265   1.448  0.00  0.00    -0.082 C 
ATOM     10  N   UNL     1       2.568  -9.554   1.717  0.00  0.00    +0.379 N 
ATOM     11  C   UNL     1       1.127  -9.359   1.919  0.00  0.00    -0.082 C 
ATOM     12  C   UNL     1       0.497  -8.823   0.630  0.00  0.00    -0.010 C 
ATOM     13  H   UNL     1       2.716 -10.173   0.933  0.00  0.00    -0.086 HD
ATOM     14  H   UNL     1       2.970  -9.964   2.546  0.00  0.00    -0.086 HD
ENDROOT
BRANCH   5  15
ATOM     15  C   UNL     1       1.684  -6.785  -2.084  0.00  0.00    +0.218 C 
ATOM     16  O   UNL     1       2.324  -5.754  -2.103  0.00  0.00    -0.275 OA
ATOM     17  N   UNL     1       1.955  -7.762  -2.971  0.00  0.00    -0.315 N 
ATOM     18  H   UNL     1       1.444  -8.586  -2.956  0.00  0.00    +0.149 HD
BRANCH  17  19
ATOM     19  C   UNL     1       3.022  -7.580  -3.958  0.00  0.00    +0.107 C 
BRANCH  19  20
ATOM     20  C   UNL     1       3.122  -8.828  -4.838  0.00  0.00    +0.003 C 
ATOM     21  C   UNL     1       3.570 -10.020  -3.986  0.00  0.00    -0.014 C 
ATOM     22  C   UNL     1       3.744 -11.245  -4.886  0.00  0.00    -0.078 C 
ATOM     23  N   UNL     1       4.758 -10.965  -5.909  0.00  0.00    +0.382 N 
ATOM     24  C   UNL     1       4.303  -9.870  -6.775  0.00  0.00    -0.078 C 
ATOM     25  C   UNL     1       4.151  -8.592  -5.948  0.00  0.00    -0.014 C 
ATOM     26  H   UNL     1       5.623 -10.701  -5.461  0.00  0.00    -0.081 HD
BRANCH  23  27
ATOM     27  C   UNL     1       4.979 -12.169  -6.721  0.00  0.00    -0.069 C 
ATOM     28  C   UNL     1       5.534 -13.307  -5.839  0.00  0.00    -0.015 C 
ATOM     29  C   UNL     1       6.549 -14.036  -6.754  0.00  0.00    -0.002 C 
ATOM     30  C   UNL     1       7.203 -12.870  -7.536  0.00  0.00    -0.002 C 
ATOM     31  C   UNL     1       6.040 -11.891  -7.800  0.00  0.00    -0.015 C 
ENDBRANCH  23  27
ENDBRANCH  19  20
ENDBRANCH  17  19
ENDBRANCH   5  15
BRANCH   1  32
ATOM     32  C   UNL     1       0.799  -2.786  -0.088  0.00  0.00    +0.096 C 
BRANCH  32  33
ATOM     33  C   UNL     1       1.358  -1.496   0.515  0.00  0.00    +0.013 C 
BRANCH  33  37
ATOM     34  C   UNL     1      -0.537   1.534  -0.550  0.00  0.00    +0.000 C 
ATOM     35  C   UNL     1       0.905   2.081  -0.578  0.00  0.00    +0.000 C 
ATOM     36  C   UNL     1       1.746   0.968   0.093  0.00  0.00    +0.003 C 
ATOM     37  C   UNL     1       1.082  -0.328  -0.434  0.00  0.00    -0.011 C 
ATOM     38  C   UNL     1      -0.425   0.003  -0.458  0.00  0.00    +0.003 C 
ENDBRANCH  33  37
ENDBRANCH  32  33
ENDBRANCH   1  32
TORSDOF 7
