REMARK  Name = ZINC15731220
REMARK  8 active torsions:
REMARK  status: ('A' for Active; 'I' for Inactive)
REMARK    1  A    between atoms: C_1  and  C_2
REMARK    2  A    between atoms: C_9  and  S_15
REMARK    3  A    between atoms: S_15  and  N_18
REMARK    4  A    between atoms: N_18  and  C_19
REMARK    5  A    between atoms: C_19  and  C_20
REMARK    6  A    between atoms: C_25  and  C_26
REMARK    7  A    between atoms: C_25  and  N_60
REMARK    8  A    between atoms: C_26  and  C_27
REMARK                            x       y       z     vdW  Elec       q    Type
REMARK                         _______ _______ _______ _____ _____    ______ ____
ROOT
ATOM      1  S   UNL     1       9.680  -3.638  -1.034  0.00  0.00    +0.058 S 
ATOM      2  O   UNL     1       9.585  -4.700  -0.095  0.00  0.00    -0.153 OA
ATOM      3  O   UNL     1       9.965  -3.859  -2.408  0.00  0.00    -0.153 OA
ENDROOT
BRANCH   1  11
ATOM      4  C   UNL     1      13.958   0.664   5.090  0.00  0.00    +0.018 C 
ATOM      5  C   UNL     1      13.989  -0.067   3.747  0.00  0.00    +0.082 C 
ATOM      6  C   UNL     1      13.753   0.926   2.647  0.00  0.00    +0.087 C 
ATOM      7  S   UNL     1      14.138   0.305   1.017  0.00  0.00    -0.123 S 
ATOM      8  C   UNL     1      12.886  -0.820   0.547  0.00  0.00    +0.029 A 
ATOM      9  C   UNL     1      12.563  -0.861  -0.817  0.00  0.00    +0.018 A 
ATOM     10  C   UNL     1      11.600  -1.711  -1.305  0.00  0.00    +0.030 A 
ATOM     11  C   UNL     1      10.923  -2.543  -0.432  0.00  0.00    +0.107 A 
ATOM     12  C   UNL     1      11.229  -2.516   0.907  0.00  0.00    +0.053 A 
ATOM     13  C   UNL     1      12.212  -1.655   1.425  0.00  0.00    +0.049 A 
ATOM     14  N   UNL     1      12.400  -1.752   2.779  0.00  0.00    -0.284 N 
ATOM     15  C   UNL     1      12.967  -1.149   3.763  0.00  0.00    +0.221 C 
ATOM     16  O   UNL     1      12.618  -1.515   4.865  0.00  0.00    -0.275 OA
ATOM     17  H   UNL     1      11.953  -2.548   3.107  0.00  0.00    +0.155 HD
ENDBRANCH   1  11
BRANCH   1  18
ATOM     18  N   UNL     1       8.240  -2.823  -0.974  0.00  0.00    -0.190 NA
ATOM     19  H   UNL     1       7.535  -3.126  -0.380  0.00  0.00    +0.148 HD
BRANCH  18  20
ATOM     20  C   UNL     1       8.030  -1.644  -1.817  0.00  0.00    +0.109 C 
BRANCH  20  21
ATOM     21  C   UNL     1       6.537  -1.307  -1.861  0.00  0.00    +0.001 C 
ATOM     22  C   UNL     1       6.301  -0.154  -2.840  0.00  0.00    -0.014 C 
ATOM     23  C   UNL     1       4.817   0.218  -2.834  0.00  0.00    -0.079 C 
ATOM     24  C   UNL     1       4.588  -0.495  -0.530  0.00  0.00    -0.079 C 
ATOM     25  C   UNL     1       6.065  -0.888  -0.466  0.00  0.00    -0.014 C 
ATOM     26  N   UNL     1       4.431   0.635  -1.470  0.00  0.00    +0.380 N 
ATOM     27  H   UNL     1       5.044   1.403  -1.171  0.00  0.00    -0.082 HD
BRANCH  26  28
ATOM     28  C   UNL     1       3.031   1.107  -1.463  0.00  0.00    -0.074 C 
BRANCH  28  29
ATOM     29  C   UNL     1       2.565   1.272  -0.015  0.00  0.00    +0.024 C 
BRANCH  29  30
ATOM     30  C   UNL     1       1.146   1.780   0.001  0.00  0.00    -0.012 A 
ATOM     31  C   UNL     1      -0.013   1.076   0.008  0.00  0.00    +0.011 A 
ATOM     32  C   UNL     1      -1.213   1.761   0.017  0.00  0.00    +0.008 A 
ATOM     33  C   UNL     1      -1.196   3.116   0.030  0.00  0.00    +0.045 A 
ATOM     34  S   UNL     1       0.555   3.464   0.015  0.00  0.00    -0.102 S 
ENDBRANCH  29  30
ENDBRANCH  28  29
ENDBRANCH  26  28
ENDBRANCH  20  21
ENDBRANCH  18  20
ENDBRANCH   1  18
TORSDOF 7
