REMARK  Name = ZINC39656215
REMARK  7 active torsions:
REMARK  status: ('A' for Active; 'I' for Inactive)
REMARK    1  A    between atoms: C_1  and  C_2
REMARK    2  A    between atoms: C_8  and  C_11
REMARK    3  A    between atoms: C_11  and  C_12
REMARK    4  A    between atoms: C_12  and  N_13
REMARK    5  A    between atoms: C_14  and  C_16
REMARK    6  A    between atoms: C_27  and  C_29
REMARK    7  A    between atoms: C_30  and  C_34
REMARK                            x       y       z     vdW  Elec       q    Type
REMARK                         _______ _______ _______ _____ _____    ______ ____
ROOT
ATOM      1  C   UNL     1       4.615  -0.108  -7.488  0.00  0.00    +0.100 C 
ATOM      2  C   UNL     1       5.652   0.306  -6.420  0.00  0.00    +0.121 C 
ATOM      3  N   UNL     1       6.092  -0.972  -5.811  0.00  0.00    -0.296 N 
ATOM      4  C   UNL     1       6.180  -1.913  -6.954  0.00  0.00    +0.115 C 
ATOM      5  C   UNL     1       4.967  -1.563  -7.839  0.00  0.00    -0.004 C 
ATOM      6  C   UNL     1       5.340  -1.676  -9.314  0.00  0.00    -0.010 C 
ATOM      7  C   UNL     1       5.629  -3.142  -9.652  0.00  0.00    -0.082 C 
ATOM      8  N   UNL     1       4.442  -3.956  -9.362  0.00  0.00    +0.379 N 
ATOM      9  C   UNL     1       4.147  -3.916  -7.924  0.00  0.00    -0.082 C 
ATOM     10  C   UNL     1       3.795  -2.483  -7.514  0.00  0.00    -0.010 C 
ATOM     11  C   UNL     1       6.354  -1.222  -4.513  0.00  0.00    +0.254 C 
ATOM     12  O   UNL     1       6.136  -0.368  -3.674  0.00  0.00    -0.269 OA
ATOM     13  H   UNL     1       3.654  -3.594  -9.876  0.00  0.00    -0.086 HD
ATOM     14  H   UNL     1       4.614  -4.910  -9.642  0.00  0.00    -0.086 HD
ENDROOT
BRANCH  11  15
ATOM     15  C   UNL     1       6.900  -2.522  -4.112  0.00  0.00    +0.077 A 
ATOM     16  C   UNL     1       7.137  -3.015  -2.838  0.00  0.00    -0.031 A 
ATOM     17  C   UNL     1       7.661  -4.284  -2.778  0.00  0.00    +0.011 A 
ATOM     18  C   UNL     1       7.905  -4.952  -3.932  0.00  0.00    +0.046 A 
ATOM     19  S   UNL     1       7.425  -3.884  -5.136  0.00  0.00    -0.092 S 
ATOM     20  C   UNL     1       6.839  -2.211  -1.599  0.00  0.00    +0.045 C 
ENDBRANCH  11  15
BRANCH   1  22
ATOM     21  N   UNL     1       2.182   0.264  -7.733  0.00  0.00    -0.315 N 
ATOM     22  C   UNL     1       3.220  -0.027  -6.924  0.00  0.00    +0.218 C 
ATOM     23  O   UNL     1       3.031  -0.223  -5.742  0.00  0.00    -0.275 OA
ATOM     24  H   UNL     1       2.333   0.421  -8.678  0.00  0.00    +0.149 HD
BRANCH  21  25
ATOM     25  C   UNL     1       0.826   0.343  -7.185  0.00  0.00    +0.109 C 
BRANCH  25  26
ATOM     26  C   UNL     1      -0.159   0.685  -8.305  0.00  0.00    +0.056 C 
BRANCH  26  34
ATOM     27  C   UNL     1      -2.108   5.512  -5.915  0.00  0.00    +0.044 C 
ATOM     28  C   UNL     1      -2.577   4.111  -6.211  0.00  0.00    -0.050 A 
ATOM     29  C   UNL     1      -3.860   3.724  -5.849  0.00  0.00    +0.005 A 
ATOM     30  C   UNL     1      -4.309   2.447  -6.109  0.00  0.00    +0.026 A 
ATOM     31  C   UNL     1      -3.470   1.536  -6.742  0.00  0.00    +0.047 A 
ATOM     32  N   UNL     1      -3.618   0.223  -7.131  0.00  0.00    -0.360 N 
ATOM     33  C   UNL     1      -2.466  -0.218  -7.724  0.00  0.00    +0.087 A 
ATOM     34  C   UNL     1      -1.554   0.766  -7.741  0.00  0.00    -0.021 A 
ATOM     35  C   UNL     1      -2.171   1.933  -7.107  0.00  0.00    +0.003 A 
ATOM     36  C   UNL     1      -1.738   3.233  -6.838  0.00  0.00    +0.013 A 
ATOM     37  H   UNL     1      -4.418  -0.309  -7.003  0.00  0.00    +0.165 HD
ENDBRANCH  26  34
ENDBRANCH  25  26
ENDBRANCH  21  25
ENDBRANCH   1  22
TORSDOF 5
