REMARK  Name = ZINC13149207
REMARK  6 active torsions:
REMARK  status: ('A' for Active; 'I' for Inactive)
REMARK    1  A    between atoms: C_1  and  O_2
REMARK    2  A    between atoms: O_2  and  C_3
REMARK    3  A    between atoms: C_8  and  N_9
REMARK    4  A    between atoms: C_12  and  C_15
REMARK    5  A    between atoms: C_18  and  N_21
REMARK    6  A    between atoms: C_24  and  C_26
REMARK                            x       y       z     vdW  Elec       q    Type
REMARK                         _______ _______ _______ _____ _____    ______ ____
ROOT
ATOM      1  N   UNL     1       3.618   1.757  -0.125  0.00  0.00    -0.211 N 
ATOM      2  C   UNL     1       4.828   1.076  -0.177  0.00  0.00    +0.172 A 
ATOM      3  N   UNL     1       5.054  -0.225  -0.188  0.00  0.00    -0.224 NA
ATOM      4  C   UNL     1       6.286  -0.708  -0.246  0.00  0.00    +0.080 A 
ATOM      5  C   UNL     1       7.344   0.156  -0.285  0.00  0.00    +0.076 A 
ATOM      6  S   UNL     1       6.491   1.727  -0.242  0.00  0.00    -0.059 S 
ATOM      7  C   UNL     1       2.459   1.071  -0.081  0.00  0.00    +0.257 C 
ATOM      8  O   UNL     1       2.474  -0.142   0.001  0.00  0.00    -0.269 OA
ENDROOT
BRANCH   7   9
ATOM      9  C   UNL     1       1.171   1.792  -0.132  0.00  0.00    +0.038 A 
ATOM     10  C   UNL     1       0.147   1.331  -0.980  0.00  0.00    +0.014 A 
ATOM     11  C   UNL     1      -1.046   1.976  -1.044  0.00  0.00    +0.009 A 
ATOM     12  C   UNL     1      -1.270   3.121  -0.256  0.00  0.00    -0.018 A 
ATOM     13  C   UNL     1      -2.496   3.805  -0.306  0.00  0.00    +0.008 A 
ATOM     14  C   UNL     1      -2.685   4.909   0.467  0.00  0.00    +0.001 A 
ATOM     15  C   UNL     1      -1.678   5.375   1.311  0.00  0.00    +0.001 A 
ATOM     16  C   UNL     1      -0.477   4.739   1.386  0.00  0.00    +0.008 A 
ATOM     17  C   UNL     1      -0.248   3.592   0.606  0.00  0.00    -0.017 A 
ATOM     18  C   UNL     1       0.980   2.915   0.655  0.00  0.00    +0.021 A 
ENDBRANCH   7   9
BRANCH   1  24
ATOM     19  C   UNL     1       3.380   3.861  -1.300  0.00  0.00    +0.142 A 
ATOM     20  C   UNL     1       3.361   5.247  -1.285  0.00  0.00    +0.047 A 
ATOM     21  C   UNL     1       3.573   5.929  -0.102  0.00  0.00    +0.004 A 
ATOM     22  C   UNL     1       3.799   5.232   1.071  0.00  0.00    +0.002 A 
ATOM     23  C   UNL     1       3.815   3.850   1.067  0.00  0.00    +0.027 A 
ATOM     24  C   UNL     1       3.603   3.159  -0.117  0.00  0.00    +0.085 A 
BRANCH  19  26
ATOM     25  C   UNL     1       2.956   3.975  -3.637  0.00  0.00    +0.277 C 
ATOM     26  O   UNL     1       3.178   3.189  -2.464  0.00  0.00    -0.493 OA
ENDBRANCH  19  26
ENDBRANCH   1  24
BRANCH   4  27
ATOM     27  C   UNL     1       6.515  -2.173  -0.263  0.00  0.00    +0.001 A 
ATOM     28  C   UNL     1       7.813  -2.678  -0.324  0.00  0.00    +0.012 A 
ATOM     29  C   UNL     1       8.020  -4.042  -0.334  0.00  0.00    +0.033 A 
ATOM     30  C   UNL     1       6.943  -4.909  -0.295  0.00  0.00    +0.126 A 
ATOM     31  C   UNL     1       5.652  -4.414  -0.239  0.00  0.00    +0.033 A 
ATOM     32  C   UNL     1       5.433  -3.051  -0.223  0.00  0.00    +0.012 A 
BRANCH  30  33
ATOM     33  N   UNL     1       7.171  -6.371  -0.312  0.00  0.00    +0.056 N 
ATOM     34  O   UNL     1       6.224  -7.136  -0.278  0.00  0.00    -0.126 OA
ATOM     35  O   UNL     1       8.307  -6.809  -0.361  0.00  0.00    -0.126 OA
ENDBRANCH  30  33
ENDBRANCH   4  27
TORSDOF 5
