REMARK  Name = ZINC23648496
REMARK  9 active torsions:
REMARK  status: ('A' for Active; 'I' for Inactive)
REMARK    1  A    between atoms: C_1  and  C_2
REMARK    2  A    between atoms: C_2  and  C_4
REMARK    3  A    between atoms: C_2  and  S_15
REMARK    4  A    between atoms: N_6  and  C_7
REMARK    5  A    between atoms: S_15  and  C_16
REMARK    6  A    between atoms: C_19  and  C_22
REMARK    7  A    between atoms: N_20  and  N_21
REMARK    8  A    between atoms: C_25  and  O_28
REMARK    9  A    between atoms: O_28  and  C_29
REMARK                            x       y       z     vdW  Elec       q    Type
REMARK                         _______ _______ _______ _____ _____    ______ ____
ROOT
ATOM      1  C   UNL     1      -5.127  -3.352   0.297  0.00  0.00    +0.209 A 
ATOM      2  N   UNL     1      -6.177  -2.674  -0.109  0.00  0.00    -0.121 NA
ATOM      3  N   UNL     1      -7.227  -3.412  -0.053  0.00  0.00    -0.127 NA
ATOM      4  C   UNL     1      -6.913  -4.606   0.392  0.00  0.00    +0.182 A 
ATOM      5  N   UNL     1      -5.557  -4.606   0.625  0.00  0.00    -0.224 N 
ENDROOT
BRANCH   4   6
ATOM      6  C   UNL     1      -7.840  -5.739   0.599  0.00  0.00    +0.021 A 
ATOM      7  C   UNL     1      -7.441  -6.841   1.356  0.00  0.00    +0.015 A 
ATOM      8  C   UNL     1      -8.310  -7.894   1.550  0.00  0.00    +0.046 A 
ATOM      9  C   UNL     1      -9.578  -7.863   0.984  0.00  0.00    +0.127 A 
ATOM     10  C   UNL     1      -9.977  -6.770   0.225  0.00  0.00    +0.046 A 
ATOM     11  C   UNL     1      -9.116  -5.712   0.031  0.00  0.00    +0.015 A 
BRANCH   9  12
ATOM     12  O   UNL     1     -10.430  -8.904   1.173  0.00  0.00    -0.434 OA
BRANCH  12  13
ATOM     13  C   UNL     1      -9.955  -9.995   1.964  0.00  0.00    +0.541 C 
ATOM     14  F   UNL     1      -8.816 -10.545   1.365  0.00  0.00    -0.166 F 
ATOM     15  F   UNL     1      -9.632  -9.537   3.245  0.00  0.00    -0.166 F 
ENDBRANCH  12  13
ENDBRANCH   9  12
ENDBRANCH   4   6
BRANCH   5  16
ATOM     16  N   UNL     1      -4.800  -5.644   1.091  0.00  0.00    -0.295 N 
ATOM     17  H   UNL     1      -5.272  -6.610   1.319  0.00  0.00    +0.163 HD
ATOM     18  H   UNL     1      -3.718  -5.512   1.237  0.00  0.00    +0.163 HD
ENDBRANCH   5  16
BRANCH   1  19
ATOM     19  S   UNL     1      -3.471  -2.756   0.394  0.00  0.00    -0.072 S 
BRANCH  19  21
ATOM     20  C   UNL     1      -4.159  -1.096  -1.664  0.00  0.00    +0.029 C 
ATOM     21  C   UNL     1      -3.711  -1.064  -0.202  0.00  0.00    +0.137 C 
BRANCH  21  22
ATOM     22  C   UNL     1      -2.414  -0.304  -0.090  0.00  0.00    +0.230 C 
ATOM     23  O   UNL     1      -1.359  -0.901  -0.099  0.00  0.00    -0.274 OA
ATOM     24  N   UNL     1      -2.428   1.039   0.019  0.00  0.00    -0.283 N 
ATOM     25  H   UNL     1      -3.385   1.573   0.118  0.00  0.00    +0.155 HD
BRANCH  24  26
ATOM     26  C   UNL     1      -1.225   1.755   0.006  0.00  0.00    +0.052 A 
ATOM     27  C   UNL     1      -0.102   1.218  -0.610  0.00  0.00    +0.026 A 
ATOM     28  C   UNL     1       1.082   1.928  -0.626  0.00  0.00    +0.022 A 
ATOM     29  C   UNL     1       1.153   3.172  -0.025  0.00  0.00    +0.042 A 
ATOM     30  C   UNL     1       0.038   3.708   0.596  0.00  0.00    +0.041 A 
ATOM     31  C   UNL     1      -1.149   3.002   0.616  0.00  0.00    +0.064 A 
ATOM     32 CL   UNL     1      -2.548   3.674   1.394  0.00  0.00    -0.082 Cl
ATOM     33 CL   UNL     1       2.643   4.062  -0.048  0.00  0.00    -0.083 Cl
ENDBRANCH  24  26
ENDBRANCH  21  22
ENDBRANCH  19  21
ENDBRANCH   1  19
TORSDOF 8
