REMARK  Name = ZINC35417675
REMARK  14 active torsions:
REMARK  status: ('A' for Active; 'I' for Inactive)
REMARK    1  A    between atoms: C_1  and  C_2
REMARK    2  A    between atoms: C_2  and  C_3
REMARK    3  A    between atoms: C_3  and  C_4
REMARK    4  A    between atoms: C_4  and  N_5
REMARK    5  A    between atoms: N_5  and  C_6
REMARK    6  A    between atoms: N_5  and  C_12
REMARK    7  A    between atoms: C_6  and  C_7
REMARK    8  A    between atoms: C_15  and  N_26
REMARK    9  A    between atoms: C_17  and  C_18
REMARK   10  A    between atoms: N_26  and  S_27
REMARK   11  A    between atoms: S_27  and  C_30
REMARK   12  A    between atoms: C_31  and  C_38
REMARK   13  A    between atoms: C_33  and  C_37
REMARK   14  A    between atoms: C_35  and  C_36
REMARK                            x       y       z     vdW  Elec       q    Type
REMARK                         _______ _______ _______ _____ _____    ______ ____
ROOT
ATOM      1  C   UNL     1       3.216  -2.317  -3.068  0.00  0.00    +0.042 A 
ATOM      2  C   UNL     1       2.662  -1.317  -3.857  0.00  0.00    +0.026 A 
ATOM      3  C   UNL     1       1.541  -1.576  -4.617  0.00  0.00    +0.026 A 
ATOM      4  C   UNL     1       0.956  -2.839  -4.600  0.00  0.00    +0.049 A 
ATOM      5  C   UNL     1       1.495  -3.845  -3.819  0.00  0.00    +0.039 A 
ATOM      6  C   UNL     1       2.635  -3.594  -3.051  0.00  0.00    +0.060 A 
ENDROOT
BRANCH   6   7
ATOM      7  C   UNL     1       3.220  -4.663  -2.221  0.00  0.00    +0.248 C 
ATOM      8  O   UNL     1       3.540  -4.434  -1.071  0.00  0.00    -0.270 OA
ATOM      9  N   UNL     1       3.401  -5.895  -2.738  0.00  0.00    -0.297 N 
ATOM     10  C   UNL     1       3.865  -7.002  -1.891  0.00  0.00    +0.108 C 
ATOM     11  C   UNL     1       2.887  -8.172  -2.029  0.00  0.00    +0.019 C 
ATOM     12  C   UNL     1       2.736  -8.534  -3.508  0.00  0.00    +0.003 C 
ATOM     13  C   UNL     1       2.166  -7.336  -4.272  0.00  0.00    +0.019 C 
ATOM     14  C   UNL     1       3.130  -6.157  -4.158  0.00  0.00    +0.108 C 
ENDBRANCH   6   7
BRANCH   4  15
ATOM     15  N   UNL     1      -0.183  -3.091  -5.375  0.00  0.00    -0.216 N 
ATOM     16  H   UNL     1      -0.933  -3.572  -4.992  0.00  0.00    +0.174 HD
BRANCH  15  17
ATOM     17  S   UNL     1      -0.249  -2.568  -6.945  0.00  0.00    +0.073 S 
ATOM     18  O   UNL     1      -1.502  -2.994  -7.463  0.00  0.00    -0.150 OA
ATOM     19  O   UNL     1       0.146  -1.203  -6.935  0.00  0.00    -0.150 OA
BRANCH  17  20
ATOM     20  C   UNL     1       0.991  -3.445  -7.838  0.00  0.00    +0.114 A 
ATOM     21  C   UNL     1       0.686  -4.651  -8.440  0.00  0.00    -0.023 A 
ATOM     22  C   UNL     1       1.659  -5.339  -9.141  0.00  0.00    +0.008 A 
ATOM     23  C   UNL     1       2.936  -4.820  -9.241  0.00  0.00    -0.050 A 
ATOM     24  C   UNL     1       3.240  -3.613  -8.640  0.00  0.00    +0.008 A 
ATOM     25  C   UNL     1       2.267  -2.923  -7.943  0.00  0.00    -0.023 A 
ATOM     26  C   UNL     1       2.598  -1.605  -7.292  0.00  0.00    +0.046 C 
ATOM     27  C   UNL     1       3.996  -5.571 -10.005  0.00  0.00    +0.044 C 
ATOM     28  C   UNL     1      -0.707  -5.217  -8.331  0.00  0.00    +0.046 C 
ENDBRANCH  17  20
ENDBRANCH  15  17
ENDBRANCH   4  15
BRANCH   1  29
ATOM     29  N   UNL     1       4.347  -2.055  -2.301  0.00  0.00    -0.322 N 
BRANCH  29  30
ATOM     30  C   UNL     1       4.217  -1.810  -0.863  0.00  0.00    +0.105 C 
BRANCH  30  31
ATOM     31  C   UNL     1       4.016  -0.314  -0.616  0.00  0.00    +0.019 C 
BRANCH  31  33
ATOM     32  C   UNL     1       3.679   1.438   1.133  0.00  0.00    +0.004 C 
ATOM     33  C   UNL     1       3.880  -0.058   0.886  0.00  0.00    -0.002 C 
ENDBRANCH  31  33
ENDBRANCH  30  31
ENDBRANCH  29  30
BRANCH  29  34
ATOM     34  C   UNL     1       5.669  -2.023  -2.933  0.00  0.00    +0.179 C 
BRANCH  34  35
ATOM     35  C   UNL     1       6.339  -3.363  -2.764  0.00  0.00    +0.122 A 
ATOM     36  C   UNL     1       6.361  -4.352  -3.675  0.00  0.00    +0.046 A 
ATOM     37  C   UNL     1       7.093  -5.418  -3.104  0.00  0.00    +0.041 A 
ATOM     38  C   UNL     1       7.474  -5.017  -1.879  0.00  0.00    +0.195 A 
ATOM     39  O   UNL     1       7.019  -3.769  -1.680  0.00  0.00    -0.466 OA
ENDBRANCH  34  35
ENDBRANCH  29  34
ENDBRANCH   1  29
TORSDOF 10
