REMARK  Name = ZINC15859083
REMARK  3 active torsions:
REMARK  status: ('A' for Active; 'I' for Inactive)
REMARK    1  A    between atoms: C_6  and  S_11
REMARK    2  A    between atoms: S_11  and  N_14
REMARK    3  A    between atoms: C_17  and  C_19
REMARK                            x       y       z     vdW  Elec       q    Type
REMARK                         _______ _______ _______ _____ _____    ______ ____
ROOT
ATOM      1  N   UNL     1       3.100   4.286  -1.587  0.00  0.00    -0.094 N 
ATOM      2  C   UNL     1       2.768   5.350  -2.350  0.00  0.00    +0.234 A 
ATOM      3  N   UNL     1       3.284   5.171  -3.546  0.00  0.00    -0.192 NA
ATOM      4  C   UNL     1       3.949   4.007  -3.580  0.00  0.00    +0.185 A 
ATOM      5  N   UNL     1       3.867   3.436  -2.400  0.00  0.00    -0.126 NA
ATOM      6  N   UNL     1       2.016   6.438  -1.944  0.00  0.00    -0.326 N 
ATOM      7  H   UNL     1       1.677   6.481  -1.037  0.00  0.00    +0.145 HD
ATOM      8  H   UNL     1       1.829   7.157  -2.567  0.00  0.00    +0.145 HD
ENDROOT
BRANCH   4   9
ATOM      9  C   UNL     1       4.667   3.458  -4.757  0.00  0.00    +0.021 A 
ATOM     10  C   UNL     1       5.329   2.235  -4.664  0.00  0.00    +0.013 A 
ATOM     11  C   UNL     1       5.990   1.726  -5.763  0.00  0.00    +0.021 A 
ATOM     12  C   UNL     1       6.007   2.433  -6.953  0.00  0.00    +0.041 A 
ATOM     13  C   UNL     1       5.356   3.651  -7.049  0.00  0.00    +0.021 A 
ATOM     14  C   UNL     1       4.686   4.166  -5.957  0.00  0.00    +0.013 A 
ATOM     15 CL   UNL     1       6.847   1.791  -8.329  0.00  0.00    -0.084 Cl
ENDBRANCH   4   9
BRANCH   1  16
ATOM     16  S   UNL     1       2.689   4.036  -0.003  0.00  0.00    +0.102 S 
ATOM     17  O   UNL     1       2.436   5.317   0.558  0.00  0.00    -0.146 OA
ATOM     18  O   UNL     1       3.661   3.149   0.534  0.00  0.00    -0.146 OA
BRANCH  16  24
ATOM     19  C   UNL     1      -3.628   1.779   0.047  0.00  0.00    +0.001 A 
ATOM     20  C   UNL     1      -3.627   3.172   0.055  0.00  0.00    +0.001 A 
ATOM     21  C   UNL     1      -2.460   3.873   0.047  0.00  0.00    +0.008 A 
ATOM     22  C   UNL     1      -1.236   3.183   0.031  0.00  0.00    -0.016 A 
ATOM     23  C   UNL     1      -0.011   3.871   0.023  0.00  0.00    +0.037 A 
ATOM     24  C   UNL     1       1.155   3.170   0.008  0.00  0.00    +0.113 A 
ATOM     25  C   UNL     1       1.155   1.776   0.001  0.00  0.00    +0.029 A 
ATOM     26  C   UNL     1      -0.013   1.076   0.008  0.00  0.00    +0.010 A 
ATOM     27  C   UNL     1      -1.237   1.766   0.018  0.00  0.00    -0.018 A 
ATOM     28  C   UNL     1      -2.462   1.077   0.031  0.00  0.00    +0.008 A 
ENDBRANCH  16  24
ENDBRANCH   1  16
TORSDOF 3
