REMARK  Name = ZINC39695881
REMARK  7 active torsions:
REMARK  status: ('A' for Active; 'I' for Inactive)
REMARK    1  A    between atoms: C_1  and  C_2
REMARK    2  A    between atoms: C_2  and  C_3
REMARK    3  A    between atoms: C_6  and  C_9
REMARK    4  A    between atoms: C_9  and  C_11
REMARK    5  A    between atoms: C_9  and  N_12
REMARK    6  A    between atoms: C_13  and  C_15
REMARK    7  A    between atoms: C_26  and  C_28
REMARK                            x       y       z     vdW  Elec       q    Type
REMARK                         _______ _______ _______ _____ _____    ______ ____
ROOT
ATOM      1  C   UNL     1      -8.323  -0.555  -1.979  0.00  0.00    +0.100 C 
ATOM      2  C   UNL     1      -8.098  -1.246  -3.342  0.00  0.00    +0.121 C 
ATOM      3  N   UNL     1      -9.217  -2.209  -3.463  0.00  0.00    -0.296 N 
ATOM      4  C   UNL     1     -10.387  -1.486  -2.910  0.00  0.00    +0.115 C 
ATOM      5  C   UNL     1      -9.827  -0.712  -1.700  0.00  0.00    -0.004 C 
ATOM      6  C   UNL     1     -10.491   0.658  -1.597  0.00  0.00    -0.010 C 
ATOM      7  C   UNL     1     -11.974   0.477  -1.262  0.00  0.00    -0.082 C 
ATOM      8  N   UNL     1     -12.107  -0.250   0.006  0.00  0.00    +0.379 N 
ATOM      9  C   UNL     1     -11.548  -1.601  -0.130  0.00  0.00    -0.082 C 
ATOM     10  C   UNL     1     -10.047  -1.508  -0.417  0.00  0.00    -0.010 C 
ATOM     11  C   UNL     1      -9.180  -3.460  -3.964  0.00  0.00    +0.248 C 
ATOM     12  O   UNL     1      -8.118  -3.952  -4.294  0.00  0.00    -0.270 OA
ATOM     13  H   UNL     1     -11.609   0.246   0.731  0.00  0.00    -0.086 HD
ATOM     14  H   UNL     1     -13.082  -0.314   0.256  0.00  0.00    -0.086 HD
ENDROOT
BRANCH  11  15
ATOM     15  C   UNL     1     -10.430  -4.233  -4.113  0.00  0.00    +0.055 A 
ATOM     16  C   UNL     1     -11.618  -3.586  -4.458  0.00  0.00    +0.016 A 
ATOM     17  C   UNL     1     -12.781  -4.313  -4.595  0.00  0.00    +0.021 A 
ATOM     18  C   UNL     1     -12.774  -5.684  -4.390  0.00  0.00    +0.042 A 
ATOM     19  C   UNL     1     -11.600  -6.332  -4.048  0.00  0.00    +0.040 A 
ATOM     20  C   UNL     1     -10.427  -5.617  -3.914  0.00  0.00    +0.054 A 
ATOM     21 CL   UNL     1      -8.953  -6.432  -3.491  0.00  0.00    -0.083 Cl
ATOM     22 CL   UNL     1     -14.244  -6.591  -4.564  0.00  0.00    -0.083 Cl
ENDBRANCH  11  15
BRANCH   1  24
ATOM     23  N   UNL     1      -7.060  -0.532   0.148  0.00  0.00    -0.308 N 
ATOM     24  C   UNL     1      -7.517  -1.239  -0.905  0.00  0.00    +0.219 C 
ATOM     25  O   UNL     1      -7.279  -2.425  -0.988  0.00  0.00    -0.275 OA
ATOM     26  H   UNL     1      -7.250   0.417   0.214  0.00  0.00    +0.149 HD
BRANCH  23  27
ATOM     27  C   UNL     1      -6.276  -1.196   1.192  0.00  0.00    +0.100 C 
ATOM     28  C   UNL     1      -4.805  -1.245   0.773  0.00  0.00    +0.033 C 
BRANCH  27  32
ATOM     29  C   UNL     1      -6.641   0.978   4.850  0.00  0.00    -0.048 A 
ATOM     30  C   UNL     1      -6.648  -0.404   4.864  0.00  0.00    +0.004 A 
ATOM     31  C   UNL     1      -6.530  -1.108   3.680  0.00  0.00    +0.006 A 
ATOM     32  C   UNL     1      -6.405  -0.429   2.482  0.00  0.00    -0.027 A 
ATOM     33  C   UNL     1      -6.399   0.953   2.469  0.00  0.00    +0.006 A 
ATOM     34  C   UNL     1      -6.522   1.657   3.652  0.00  0.00    +0.004 A 
BRANCH  29  36
ATOM     35  C   UNL     1      -8.249   2.005   6.435  0.00  0.00    +0.009 C 
ATOM     36  C   UNL     1      -6.770   1.745   6.141  0.00  0.00    +0.032 C 
ENDBRANCH  29  36
ENDBRANCH  27  32
ENDBRANCH  23  27
ENDBRANCH   1  24
TORSDOF 5
