REMARK  Name = ZINC32992628
REMARK  7 active torsions:
REMARK  status: ('A' for Active; 'I' for Inactive)
REMARK    1  A    between atoms: C_4  and  C_7
REMARK    2  A    between atoms: C_8  and  S_9
REMARK    3  A    between atoms: S_9  and  N_12
REMARK    4  A    between atoms: C_18  and  C_20
REMARK    5  A    between atoms: C_20  and  C_21
REMARK    6  A    between atoms: C_21  and  C_23
REMARK    7  A    between atoms: C_21  and  N_30
REMARK                            x       y       z     vdW  Elec       q    Type
REMARK                         _______ _______ _______ _____ _____    ______ ____
ROOT
ATOM      1  N   UNL     1       0.413  -3.895  -5.743  0.00  0.00    -0.174 NA
ATOM      2  C   UNL     1      -0.970  -3.401  -5.687  0.00  0.00    +0.128 C 
ATOM      3  C   UNL     1      -1.002  -2.130  -4.829  0.00  0.00    +0.125 C 
ATOM      4  N   UNL     1      -0.293  -2.396  -3.569  0.00  0.00    -0.299 N 
ATOM      5  C   UNL     1       1.091  -2.885  -3.626  0.00  0.00    +0.125 C 
ATOM      6  C   UNL     1       1.121  -4.161  -4.484  0.00  0.00    +0.128 C 
ATOM      7  C   UNL     1      -0.900  -2.191  -2.384  0.00  0.00    +0.218 C 
ATOM      8  O   UNL     1      -2.042  -1.782  -2.350  0.00  0.00    -0.276 OA
ENDROOT
BRANCH   1   9
ATOM      9  S   UNL     1       1.159  -4.147  -7.200  0.00  0.00    +0.054 S 
ATOM     10  O   UNL     1       2.186  -5.102  -6.970  0.00  0.00    -0.153 OA
ATOM     11  O   UNL     1       0.127  -4.353  -8.155  0.00  0.00    -0.153 OA
BRANCH   9  13
ATOM     12  C   UNL     1       3.283  -2.594  -7.722  0.00  0.00    +0.028 C 
ATOM     13  C   UNL     1       1.961  -2.642  -7.642  0.00  0.00    +0.153 C 
BRANCH  12  17
ATOM     14  C   UNL     1       5.216   1.035  -8.787  0.00  0.00    +0.000 A 
ATOM     15  C   UNL     1       5.969  -0.095  -8.525  0.00  0.00    +0.001 A 
ATOM     16  C   UNL     1       5.348  -1.277  -8.178  0.00  0.00    +0.008 A 
ATOM     17  C   UNL     1       3.956  -1.331  -8.093  0.00  0.00    -0.024 A 
ATOM     18  C   UNL     1       3.202  -0.189  -8.364  0.00  0.00    +0.008 A 
ATOM     19  C   UNL     1       3.836   0.989  -8.704  0.00  0.00    +0.001 A 
ENDBRANCH  12  17
ENDBRANCH   9  13
ENDBRANCH   1   9
BRANCH   7  20
ATOM     20  C   UNL     1      -0.161  -2.468  -1.100  0.00  0.00    +0.123 C 
BRANCH  20  21
ATOM     21  C   UNL     1      -1.070  -2.154   0.090  0.00  0.00    +0.113 C 
BRANCH  21  22
ATOM     22  C   UNL     1      -0.376  -2.547   1.369  0.00  0.00    -0.026 A 
ATOM     23  C   UNL     1       0.650  -1.765   1.867  0.00  0.00    +0.005 A 
ATOM     24  C   UNL     1       1.283  -2.122   3.042  0.00  0.00    +0.001 A 
ATOM     25  C   UNL     1       0.898  -3.266   3.716  0.00  0.00    +0.015 A 
ATOM     26  C   UNL     1      -0.125  -4.051   3.215  0.00  0.00    +0.018 A 
ATOM     27  C   UNL     1      -0.762  -3.691   2.041  0.00  0.00    +0.020 A 
ATOM     28 BR   UNL     1      -0.652  -5.617   4.135  0.00  0.00    -0.050 Br
ENDBRANCH  21  22
BRANCH  21  29
ATOM     29  N   UNL     1      -1.364  -0.719   0.115  0.00  0.00    -0.292 N 
ATOM     30  C   UNL     1      -2.478  -0.270   0.726  0.00  0.00    +0.298 C 
ATOM     31  O   UNL     1      -3.283  -1.060   1.179  0.00  0.00    -0.253 OA
ATOM     32  N   UNL     1      -2.700   1.055   0.835  0.00  0.00    -0.313 N 
ATOM     33  H   UNL     1      -0.676  -0.008  -0.366  0.00  0.00    +0.151 HD
ATOM     34  H   UNL     1      -3.609   1.421   1.334  0.00  0.00    +0.146 HD
ATOM     35  H   UNL     1      -1.971   1.770   0.425  0.00  0.00    +0.146 HD
ENDBRANCH  21  29
ENDBRANCH  20  21
ENDBRANCH   7  20
TORSDOF 7
