REMARK  Name = ZINC01368242
REMARK  6 active torsions:
REMARK  status: ('A' for Active; 'I' for Inactive)
REMARK    1  A    between atoms: C_1  and  C_2
REMARK    2  A    between atoms: C_7  and  C_23
REMARK    3  A    between atoms: N_9  and  S_10
REMARK    4  A    between atoms: S_10  and  C_13
REMARK    5  A    between atoms: C_16  and  S_19
REMARK    6  A    between atoms: S_19  and  N_22
REMARK                            x       y       z     vdW  Elec       q    Type
REMARK                         _______ _______ _______ _____ _____    ______ ____
ROOT
ATOM      1  C   UNL     1      -2.481  -1.393  -0.185  0.00  0.00    +0.106 A 
ATOM      2  C   UNL     1      -2.562  -2.476   0.671  0.00  0.00    +0.030 A 
ATOM      3  C   UNL     1      -3.753  -2.763   1.311  0.00  0.00    +0.030 A 
ATOM      4  C   UNL     1      -4.866  -1.974   1.087  0.00  0.00    +0.105 A 
ATOM      5  C   UNL     1      -4.786  -0.895   0.226  0.00  0.00    +0.030 A 
ATOM      6  C   UNL     1      -3.593  -0.605  -0.409  0.00  0.00    +0.030 A 
ENDROOT
BRANCH   1   7
ATOM      7  S   UNL     1      -0.961  -1.024  -0.996  0.00  0.00    +0.061 S 
ATOM      8  O   UNL     1      -1.299  -0.456  -2.254  0.00  0.00    -0.153 OA
ATOM      9  O   UNL     1      -0.145  -2.182  -0.878  0.00  0.00    -0.153 OA
BRANCH   7  16
ATOM     10  C   UNL     1      -1.122   2.353   0.528  0.00  0.00    +0.026 C 
ATOM     11  C   UNL     1      -0.332   1.577  -0.528  0.00  0.00    +0.077 C 
ATOM     12  C   UNL     1       1.074   2.171  -0.656  0.00  0.00    +0.020 C 
ATOM     13  C   UNL     1       1.835   1.955   0.654  0.00  0.00    +0.003 C 
ATOM     14  C   UNL     1       1.967   0.455   0.929  0.00  0.00    +0.020 C 
ATOM     15  C   UNL     1       0.570  -0.158   1.074  0.00  0.00    +0.077 C 
ATOM     16  N   UNL     1      -0.217   0.170  -0.122  0.00  0.00    -0.171 NA
ATOM     17  C   UNL     1       0.688  -1.677   1.210  0.00  0.00    +0.026 C 
ENDBRANCH   7  16
ENDBRANCH   1   7
BRANCH   4  18
ATOM     18  S   UNL     1      -6.386  -2.343   1.898  0.00  0.00    +0.056 S 
ATOM     19  O   UNL     1      -6.053  -3.075   3.070  0.00  0.00    -0.153 OA
ATOM     20  O   UNL     1      -7.127  -1.132   1.942  0.00  0.00    -0.153 OA
BRANCH  18  21
ATOM     21  N   UNL     1      -7.226  -3.378   0.916  0.00  0.00    -0.204 NA
ATOM     22  H   UNL     1      -7.834  -4.027   1.303  0.00  0.00    +0.144 HD
ATOM     23  H   UNL     1      -7.111  -3.334  -0.046  0.00  0.00    +0.144 HD
ENDBRANCH  18  21
ENDBRANCH   4  18
TORSDOF 4
