REMARK  Name = ZINC09643602
REMARK  9 active torsions:
REMARK  status: ('A' for Active; 'I' for Inactive)
REMARK    1  A    between atoms: C_1  and  C_2
REMARK    2  A    between atoms: C_2  and  C_3
REMARK    3  A    between atoms: C_6  and  C_9
REMARK    4  A    between atoms: C_9  and  C_11
REMARK    5  A    between atoms: C_9  and  N_57
REMARK    6  A    between atoms: C_16  and  C_17
REMARK    7  A    between atoms: C_16  and  N_57
REMARK    8  A    between atoms: N_19  and  C_20
REMARK    9  A    between atoms: C_23  and  N_26
REMARK                            x       y       z     vdW  Elec       q    Type
REMARK                         _______ _______ _______ _____ _____    ______ ____
ROOT
ATOM      1  C   UNL     1       9.932  -0.106  -1.151  0.00  0.00    +0.016 C 
ENDROOT
BRANCH   1   2
ATOM      2  C   UNL     1       8.425  -0.104  -1.149  0.00  0.00    +0.200 C 
ATOM      3  O   UNL     1       7.817  -1.098  -1.487  0.00  0.00    -0.278 OA
ATOM      4  N   UNL     1       7.753   1.002  -0.773  0.00  0.00    -0.287 N 
ATOM      5  H   UNL     1       8.236   1.820  -0.579  0.00  0.00    +0.155 HD
BRANCH   4   6
ATOM      6  C   UNL     1       6.357   0.970  -0.662  0.00  0.00    +0.033 A 
ATOM      7  C   UNL     1       5.609   2.092  -0.989  0.00  0.00    +0.025 A 
ATOM      8  C   UNL     1       4.233   2.061  -0.881  0.00  0.00    +0.025 A 
ATOM      9  C   UNL     1       3.598   0.906  -0.443  0.00  0.00    +0.036 A 
ATOM     10  C   UNL     1       4.347  -0.215  -0.110  0.00  0.00    +0.025 A 
ATOM     11  C   UNL     1       5.722  -0.185  -0.225  0.00  0.00    +0.025 A 
BRANCH   9  12
ATOM     12  N   UNL     1       2.202   0.873  -0.333  0.00  0.00    -0.271 N 
ATOM     13  C   UNL     1       1.327   2.033  -0.544  0.00  0.00    +0.114 C 
ATOM     14  C   UNL     1      -0.088   1.449  -0.750  0.00  0.00    +0.029 C 
ATOM     15  C   UNL     1       0.014   0.102   0.001  0.00  0.00    +0.098 C 
ATOM     16  C   UNL     1       1.491  -0.224  -0.020  0.00  0.00    +0.220 C 
ATOM     17  O   UNL     1       1.965  -1.316   0.213  0.00  0.00    -0.275 OA
ENDBRANCH   9  12
ENDBRANCH   4   6
ENDBRANCH   1   2
BRANCH   1  18
ATOM     18  N   UNL     1      10.413  -1.427  -1.600  0.00  0.00    +0.392 N 
ATOM     19  H   UNL     1      10.064  -2.150  -0.961  0.00  0.00    -0.084 HD
ATOM     20  H   UNL     1      10.063  -1.610  -2.548  0.00  0.00    -0.084 HD
BRANCH  18  21
ATOM     21  C   UNL     1      11.888  -1.458  -1.611  0.00  0.00    -0.003 C 
BRANCH  21  25
ATOM     22  C   UNL     1      13.207  -4.402  -4.411  0.00  0.00    -0.048 A 
ATOM     23  C   UNL     1      13.875  -3.196  -4.310  0.00  0.00    +0.004 A 
ATOM     24  C   UNL     1      13.448  -2.243  -3.405  0.00  0.00    +0.002 A 
ATOM     25  C   UNL     1      12.353  -2.496  -2.599  0.00  0.00    -0.057 A 
ATOM     26  C   UNL     1      11.689  -3.705  -2.696  0.00  0.00    +0.002 A 
ATOM     27  C   UNL     1      12.113  -4.655  -3.605  0.00  0.00    +0.004 A 
BRANCH  22  29
ATOM     28  C   UNL     1      14.700  -6.357  -4.728  0.00  0.00    +0.009 C 
ATOM     29  C   UNL     1      13.673  -5.441  -5.398  0.00  0.00    +0.032 C 
ENDBRANCH  22  29
ENDBRANCH  21  25
BRANCH  21  30
ATOM     30  C   UNL     1      12.394  -1.810  -0.236  0.00  0.00    -0.020 A 
ATOM     31  C   UNL     1      13.463  -1.312   0.433  0.00  0.00    +0.010 A 
ATOM     32  C   UNL     1      13.739  -1.787   1.702  0.00  0.00    +0.008 A 
ATOM     33  C   UNL     1      12.940  -2.743   2.234  0.00  0.00    +0.045 A 
ATOM     34  S   UNL     1      11.747  -2.996   0.930  0.00  0.00    -0.103 S 
ENDBRANCH  21  30
ENDBRANCH  18  21
ENDBRANCH   1  18
TORSDOF 8
