REMARK  Name = ZINC64025566
REMARK  10 active torsions:
REMARK  status: ('A' for Active; 'I' for Inactive)
REMARK    1  A    between atoms: C_1  and  C_2
REMARK    2  A    between atoms: C_2  and  C_3
REMARK    3  A    between atoms: C_3  and  C_4
REMARK    4  A    between atoms: C_6  and  C_10
REMARK    5  A    between atoms: C_10  and  C_12
REMARK    6  A    between atoms: C_10  and  S_13
REMARK    7  A    between atoms: S_13  and  C_14
REMARK    8  A    between atoms: C_18  and  C_20
REMARK    9  A    between atoms: C_23  and  O_26
REMARK   10  A    between atoms: O_26  and  C_27
REMARK                            x       y       z     vdW  Elec       q    Type
REMARK                         _______ _______ _______ _____ _____    ______ ____
ROOT
ATOM      1  C   UNL     1      -3.630  -5.382   0.427  0.00  0.00    +0.185 A 
ATOM      2  N   UNL     1      -4.968  -5.457   0.594  0.00  0.00    -0.253 N 
ATOM      3  H   UNL     1      -5.479  -5.124   1.348  0.00  0.00    +0.191 HD
ATOM      4  N   UNL     1      -5.476  -6.114  -0.539  0.00  0.00    -0.152 NA
ATOM      5  C   UNL     1      -4.449  -6.394  -1.310  0.00  0.00    +0.182 A 
ATOM      6  N   UNL     1      -3.330  -5.943  -0.725  0.00  0.00    -0.201 NA
ENDROOT
BRANCH   5   7
ATOM      7  C   UNL     1      -4.518  -7.089  -2.619  0.00  0.00    +0.021 A 
ATOM      8  C   UNL     1      -3.352  -7.333  -3.342  0.00  0.00    +0.015 A 
ATOM      9  C   UNL     1      -3.419  -7.980  -4.558  0.00  0.00    +0.046 A 
ATOM     10  C   UNL     1      -4.646  -8.387  -5.063  0.00  0.00    +0.120 A 
ATOM     11  C   UNL     1      -5.810  -8.145  -4.345  0.00  0.00    +0.046 A 
ATOM     12  C   UNL     1      -5.748  -7.504  -3.126  0.00  0.00    +0.015 A 
BRANCH  10  13
ATOM     13  O   UNL     1      -4.709  -9.023  -6.262  0.00  0.00    -0.495 OA
ATOM     14  C   UNL     1      -6.005  -9.415  -6.721  0.00  0.00    +0.277 C 
ENDBRANCH  10  13
ENDBRANCH   5   7
BRANCH   1  15
ATOM     15  S   UNL     1      -2.485  -4.653   1.551  0.00  0.00    -0.079 S 
BRANCH  15  16
ATOM     16  C   UNL     1      -0.876  -4.871   0.743  0.00  0.00    +0.103 C 
ATOM     17  C   UNL     1      -0.552  -6.363   0.647  0.00  0.00    +0.024 C 
BRANCH  16  20
ATOM     18  C   UNL     1       0.762  -2.018   1.233  0.00  0.00    +0.103 C 
ATOM     19  N   UNL     1      -0.148  -2.755   1.767  0.00  0.00    -0.346 N 
ATOM     20  C   UNL     1       0.206  -4.165   1.562  0.00  0.00    +0.256 C 
ATOM     21  O   UNL     1       1.446  -4.141   0.838  0.00  0.00    -0.247 OA
ATOM     22  N   UNL     1       1.745  -2.767   0.655  0.00  0.00    -0.252 N 
ATOM     23  H   UNL     1       2.524  -2.416   0.194  0.00  0.00    +0.195 HD
ATOM     24  H   UNL     1      -0.938  -2.432   2.228  0.00  0.00    +0.163 HD
BRANCH  18  25
ATOM     25  C   UNL     1       0.742  -0.511   1.242  0.00  0.00    +0.073 C 
BRANCH  25  27
ATOM     26  C   UNL     1      -0.019   1.526   0.010  0.00  0.00    +0.004 C 
ATOM     27  C   UNL     1       0.002  -0.004   0.002  0.00  0.00    +0.004 C 
ENDBRANCH  25  27
ENDBRANCH  18  25
ENDBRANCH  16  20
ENDBRANCH  15  16
ENDBRANCH   1  15
TORSDOF 7
