REMARK  Name = ZINC12375713
REMARK  2 active torsions:
REMARK  status: ('A' for Active; 'I' for Inactive)
REMARK    1  A    between atoms: C_5  and  N_7
REMARK    2  A    between atoms: N_17  and  C_20
REMARK                            x       y       z     vdW  Elec       q    Type
REMARK                         _______ _______ _______ _____ _____    ______ ____
ROOT
ATOM      1  N   UNL     1       1.380   3.319  -0.404  0.00  0.00    -0.248 N 
ATOM      2  C   UNL     1       1.237   2.007   0.001  0.00  0.00    +0.118 A 
ATOM      3  C   UNL     1       2.343   1.308   0.376  0.00  0.00    +0.069 A 
ATOM      4  C   UNL     1       3.598   1.941   0.351  0.00  0.00    +0.260 A 
ATOM      5  O   UNL     1       4.599   1.331   0.687  0.00  0.00    -0.267 OA
ATOM      6  N   UNL     1       3.691   3.225  -0.045  0.00  0.00    -0.274 N 
ATOM      7  H   UNL     1       4.670   3.725  -0.064  0.00  0.00    +0.173 HD
ATOM      8  C   UNL     1       2.591   3.903  -0.420  0.00  0.00    +0.335 A 
ATOM      9  O   UNL     1       2.694   5.060  -0.779  0.00  0.00    -0.246 OA
ATOM     10  C   UNL     1       2.259  -0.130   0.819  0.00  0.00    +0.130 C 
ATOM     11  N   UNL     1       0.858  -0.474   1.104  0.00  0.00    -0.280 NA
ATOM     12  C   UNL     1       0.002  -0.004   0.002  0.00  0.00    +0.191 C 
ATOM     13  N   UNL     1      -0.018   1.461   0.010  0.00  0.00    -0.317 N 
ATOM     14  H   UNL     1      -0.978   1.998   0.022  0.00  0.00    +0.149 HD
ENDROOT
BRANCH   1  19
ATOM     15  C   UNL     1      -1.580   5.499  -0.263  0.00  0.00    +0.002 A 
ATOM     16  C   UNL     1      -1.974   5.493  -1.589  0.00  0.00    +0.002 A 
ATOM     17  C   UNL     1      -1.259   4.767  -2.522  0.00  0.00    +0.022 A 
ATOM     18  C   UNL     1      -0.146   4.045  -2.133  0.00  0.00    +0.065 A 
ATOM     19  C   UNL     1       0.252   4.050  -0.802  0.00  0.00    +0.071 A 
ATOM     20  C   UNL     1      -0.472   4.776   0.133  0.00  0.00    +0.028 A 
ATOM     21 CL   UNL     1       0.752   3.133  -3.306  0.00  0.00    -0.081 Cl
ENDBRANCH   1  19
BRANCH  11  22
ATOM     22  C   UNL     1       0.703  -1.920   1.312  0.00  0.00    +0.058 C 
ATOM     23  C   UNL     1       1.678  -2.387   2.395  0.00  0.00    +0.019 C 
ATOM     24  C   UNL     1       1.516  -3.893   2.611  0.00  0.00    +0.002 C 
ATOM     25  C   UNL     1       1.813  -4.631   1.305  0.00  0.00    +0.000 C 
ATOM     26  C   UNL     1       0.839  -4.164   0.222  0.00  0.00    +0.002 C 
ATOM     27  C   UNL     1       1.001  -2.658   0.005  0.00  0.00    +0.019 C 
ENDBRANCH  11  22
TORSDOF 2
