REMARK  Name = ZINC03260553
REMARK  5 active torsions:
REMARK  status: ('A' for Active; 'I' for Inactive)
REMARK    1  A    between atoms: C_1  and  C_2
REMARK    2  A    between atoms: C_3  and  C_30
REMARK    3  A    between atoms: C_8  and  C_24
REMARK    4  A    between atoms: C_14  and  C_15
REMARK    5  A    between atoms: N_32  and  C_33
REMARK                            x       y       z     vdW  Elec       q    Type
REMARK                         _______ _______ _______ _____ _____    ______ ____
ROOT
ATOM      1  C   UNL     1      -0.819   1.361   0.007  0.00  0.00    +0.067 C 
ATOM      2  C   UNL     1      -0.572  -0.126   0.003  0.00  0.00    +0.060 A 
ATOM      3  C   UNL     1      -0.489  -0.851  -1.177  0.00  0.00    +0.098 A 
ATOM      4  S   UNL     1      -0.195  -2.491  -0.536  0.00  0.00    -0.046 S 
ATOM      5  C   UNL     1      -0.206  -2.107   1.102  0.00  0.00    +0.179 A 
ATOM      6  N   UNL     1      -0.417  -0.802   1.113  0.00  0.00    -0.228 NA
ATOM      7  N   UNL     1      -0.030  -2.951   2.177  0.00  0.00    -0.219 N 
ATOM      8  C   UNL     1       0.217  -4.404   2.130  0.00  0.00    +0.154 C 
ATOM      9  C   UNL     1       0.330  -4.820   3.572  0.00  0.00    -0.021 C 
ATOM     10  C   UNL     1       0.163  -3.717   4.324  0.00  0.00    +0.049 C 
ATOM     11  N   UNL     1      -0.044  -2.600   3.536  0.00  0.00    -0.261 N 
ATOM     12  C   UNL     1       0.216  -3.789   5.804  0.00  0.00    -0.024 C 
ATOM     13  C   UNL     1       0.283  -2.688   6.573  0.00  0.00    +0.013 C 
ATOM     14  C   UNL     1       0.189  -5.189   6.393  0.00  0.00    +0.037 C 
ATOM     15  C   UNL     1       1.114  -6.081   5.557  0.00  0.00    +0.009 C 
ATOM     16  C   UNL     1       0.583  -6.197   4.125  0.00  0.00    +0.035 C 
ATOM     17  H   UNL     1      -0.182  -1.701   3.874  0.00  0.00    +0.170 HD
ENDROOT
BRANCH  13  18
ATOM     18  C   UNL     1       0.165  -2.804   8.037  0.00  0.00    -0.025 A 
ATOM     19  C   UNL     1       0.850  -1.914   8.870  0.00  0.00    +0.008 A 
ATOM     20  C   UNL     1       0.734  -2.029  10.239  0.00  0.00    +0.001 A 
ATOM     21  C   UNL     1      -0.057  -3.022  10.789  0.00  0.00    +0.000 A 
ATOM     22  C   UNL     1      -0.738  -3.907   9.971  0.00  0.00    +0.001 A 
ATOM     23  C   UNL     1      -0.636  -3.801   8.600  0.00  0.00    +0.008 A 
ENDBRANCH  13  18
BRANCH   8  24
ATOM     24  C   UNL     1      -0.937  -5.111   1.466  0.00  0.00    -0.021 A 
ATOM     25  C   UNL     1      -2.233  -4.689   1.699  0.00  0.00    +0.006 A 
ATOM     26  C   UNL     1      -3.291  -5.337   1.090  0.00  0.00    +0.000 A 
ATOM     27  C   UNL     1      -3.053  -6.407   0.248  0.00  0.00    +0.000 A 
ATOM     28  C   UNL     1      -1.758  -6.829   0.015  0.00  0.00    +0.000 A 
ATOM     29  C   UNL     1      -0.699  -6.178   0.620  0.00  0.00    +0.006 A 
ENDBRANCH   8  24
BRANCH   3  30
ATOM     30  C   UNL     1      -0.610  -0.397  -2.562  0.00  0.00    +0.252 C 
ATOM     31  O   UNL     1      -0.814   0.779  -2.802  0.00  0.00    -0.270 OA
ATOM     32  N   UNL     1      -0.496  -1.281  -3.573  0.00  0.00    -0.314 N 
ATOM     33  C   UNL     1      -0.617  -0.826  -4.961  0.00  0.00    +0.128 C 
ATOM     34  H   UNL     1      -0.334  -2.218  -3.382  0.00  0.00    +0.149 HD
ENDBRANCH   3  30
TORSDOF 3
