REMARK  Name = ZINC62248983
REMARK  5 active torsions:
REMARK  status: ('A' for Active; 'I' for Inactive)
REMARK    1  A    between atoms: C_1  and  C_2
REMARK    2  A    between atoms: C_4  and  N_21
REMARK    3  A    between atoms: C_5  and  S_9
REMARK    4  A    between atoms: C_7  and  C_8
REMARK    5  A    between atoms: S_9  and  N_12
REMARK                            x       y       z     vdW  Elec       q    Type
REMARK                         _______ _______ _______ _____ _____    ______ ____
ROOT
ATOM      1  S   UNL     1      -0.303  -4.475  -0.405  0.00  0.00    +0.063 S 
ATOM      2  O   UNL     1       0.639  -5.077  -1.282  0.00  0.00    -0.153 OA
ATOM      3  O   UNL     1      -0.403  -4.831   0.967  0.00  0.00    -0.153 OA
ENDROOT
BRANCH   1   4
ATOM      4  N   UNL     1      -1.798  -4.729  -1.070  0.00  0.00    -0.168 NA
ATOM      5  C   UNL     1      -2.998  -4.821  -0.223  0.00  0.00    +0.131 C 
ATOM      6  C   UNL     1      -3.942  -3.662  -0.561  0.00  0.00    +0.140 C 
ATOM      7  N   UNL     1      -4.056  -3.542  -2.016  0.00  0.00    -0.332 N 
ATOM      8  C   UNL     1      -5.029  -2.898  -2.723  0.00  0.00    +0.107 A 
ATOM      9  C   UNL     1      -4.721  -3.041  -4.027  0.00  0.00    +0.130 A 
ATOM     10  N   UNL     1      -3.587  -3.757  -4.111  0.00  0.00    -0.239 NA
ATOM     11  C   UNL     1      -3.187  -4.063  -2.913  0.00  0.00    +0.126 A 
ATOM     12  C   UNL     1      -1.968  -4.864  -2.528  0.00  0.00    +0.183 C 
ENDBRANCH   1   4
BRANCH   1  17
ATOM     13  C   UNL     1       0.743   1.470  -0.578  0.00  0.00    +0.044 C 
ATOM     14  C   UNL     1       0.479  -0.013  -0.532  0.00  0.00    -0.046 A 
ATOM     15  C   UNL     1      -0.523  -0.510   0.278  0.00  0.00    +0.028 A 
ATOM     16  C   UNL     1      -0.766  -1.877   0.320  0.00  0.00    +0.051 A 
ATOM     17  C   UNL     1       0.001  -2.740  -0.455  0.00  0.00    +0.126 A 
ATOM     18  C   UNL     1       1.001  -2.236  -1.262  0.00  0.00    +0.034 A 
ATOM     19  C   UNL     1       1.236  -0.874  -1.305  0.00  0.00    -0.046 A 
ATOM     20  C   UNL     1       2.325  -0.327  -2.193  0.00  0.00    +0.044 C 
BRANCH  16  21
ATOM     21  N   UNL     1      -1.778  -2.384   1.138  0.00  0.00    -0.356 N 
ATOM     22  H   UNL     1      -2.367  -1.777   1.613  0.00  0.00    +0.142 HD
ATOM     23  H   UNL     1      -1.892  -3.342   1.232  0.00  0.00    +0.142 HD
ENDBRANCH  16  21
ENDBRANCH   1  17
TORSDOF 3
