REMARK  Name = ZINC08209540
REMARK  11 active torsions:
REMARK  status: ('A' for Active; 'I' for Inactive)
REMARK    1  A    between atoms: C_1  and  C_2
REMARK    2  A    between atoms: C_2  and  C_3
REMARK    3  A    between atoms: C_2  and  C_4
REMARK    4  A    between atoms: C_4  and  C_5
REMARK    5  A    between atoms: C_5  and  C_7
REMARK    6  A    between atoms: C_5  and  N_27
REMARK    7  A    between atoms: N_12  and  S_15
REMARK    8  A    between atoms: S_15  and  C_18
REMARK    9  A    between atoms: C_21  and  C_24
REMARK   10  A    between atoms: C_24  and  C_25
REMARK   11  A    between atoms: C_24  and  C_26
REMARK                            x       y       z     vdW  Elec       q    Type
REMARK                         _______ _______ _______ _____ _____    ______ ____
ROOT
ATOM      1  C   UNL     1      -0.053   5.448   1.221  0.00  0.00    +0.236 C 
ATOM      2  O   UNL     1       0.980   6.075   1.113  0.00  0.00    -0.274 OA
ATOM      3  N   UNL     1      -0.017   4.105   1.331  0.00  0.00    -0.297 N 
ATOM      4  C   UNL     1       1.266   3.388   1.321  0.00  0.00    +0.125 C 
ATOM      5  C   UNL     1       1.228   2.330   0.212  0.00  0.00    +0.128 C 
ATOM      6  N   UNL     1      -0.015   1.557   0.343  0.00  0.00    -0.174 NA
ATOM      7  C   UNL     1      -1.298   2.273   0.346  0.00  0.00    +0.128 C 
ATOM      8  C   UNL     1      -1.260   3.332   1.462  0.00  0.00    +0.125 C 
ENDROOT
BRANCH   6   9
ATOM      9  S   UNL     1       0.029  -0.093   0.476  0.00  0.00    +0.061 S 
ATOM     10  O   UNL     1      -1.232  -0.571   0.030  0.00  0.00    -0.153 OA
ATOM     11  O   UNL     1       1.254  -0.516  -0.108  0.00  0.00    -0.153 OA
BRANCH   9  12
ATOM     12  C   UNL     1       0.134  -0.474   2.194  0.00  0.00    +0.105 A 
ATOM     13  C   UNL     1       1.369  -0.602   2.800  0.00  0.00    +0.029 A 
ATOM     14  C   UNL     1       1.451  -0.896   4.148  0.00  0.00    +0.006 A 
ATOM     15  C   UNL     1       0.297  -1.071   4.888  0.00  0.00    -0.045 A 
ATOM     16  C   UNL     1      -0.939  -0.948   4.281  0.00  0.00    +0.006 A 
ATOM     17  C   UNL     1      -1.020  -0.650   2.934  0.00  0.00    +0.029 A 
BRANCH  15  18
ATOM     18  C   UNL     1       0.386  -1.396   6.357  0.00  0.00    +0.013 C 
ATOM     19  C   UNL     1       1.147  -2.710   6.544  0.00  0.00    +0.012 C 
ATOM     20  C   UNL     1       1.125  -0.271   7.084  0.00  0.00    +0.012 C 
ENDBRANCH  15  18
ENDBRANCH   9  12
ENDBRANCH   6   9
BRANCH   1  21
ATOM     21  C   UNL     1      -1.375   6.170   1.232  0.00  0.00    +0.161 C 
BRANCH  21  22
ATOM     22  N   UNL     1      -1.161   7.577   1.578  0.00  0.00    -0.288 N 
ATOM     23  C   UNL     1      -0.375   8.349   0.801  0.00  0.00    +0.298 C 
ATOM     24  O   UNL     1       0.156   7.878  -0.186  0.00  0.00    -0.253 OA
ATOM     25  N   UNL     1      -0.178   9.644   1.120  0.00  0.00    -0.313 N 
ATOM     26  H   UNL     1      -1.585   7.953   2.365  0.00  0.00    +0.151 HD
ATOM     27  H   UNL     1      -0.602  10.020   1.907  0.00  0.00    +0.146 HD
ATOM     28  H   UNL     1       0.388  10.200   0.561  0.00  0.00    +0.146 HD
ENDBRANCH  21  22
BRANCH  21  29
ATOM     29  C   UNL     1      -2.019   6.077  -0.153  0.00  0.00    +0.034 C 
BRANCH  29  31
ATOM     30  C   UNL     1      -3.976   6.782  -1.538  0.00  0.00    +0.007 C 
ATOM     31  C   UNL     1      -3.395   6.745  -0.122  0.00  0.00    -0.015 C 
ATOM     32  C   UNL     1      -4.328   5.948   0.791  0.00  0.00    +0.007 C 
ENDBRANCH  29  31
ENDBRANCH  21  29
ENDBRANCH   1  21
TORSDOF 7
