REMARK  Name = ZINC18142977
REMARK  4 active torsions:
REMARK  status: ('A' for Active; 'I' for Inactive)
REMARK    1  A    between atoms: C_1  and  O_2
REMARK    2  A    between atoms: O_2  and  C_3
REMARK    3  A    between atoms: C_6  and  C_9
REMARK    4  A    between atoms: C_14  and  C_24
REMARK                            x       y       z     vdW  Elec       q    Type
REMARK                         _______ _______ _______ _____ _____    ______ ____
ROOT
ATOM      1  C   UNL     1       7.134  -1.353  -1.734  0.00  0.00    +0.032 C 
ATOM      2  C   UNL     1       5.690  -1.750  -1.433  0.00  0.00    +0.059 C 
ATOM      3  C   UNL     1       4.891  -0.525  -1.021  0.00  0.00    +0.017 C 
ATOM      4  C   UNL     1       5.178   0.681  -1.539  0.00  0.00    +0.036 C 
ATOM      5  C   UNL     1       4.453   1.970  -1.237  0.00  0.00    +0.136 C 
ATOM      6  N   UNL     1       3.542   1.898  -0.114  0.00  0.00    -0.331 N 
ATOM      7  C   UNL     1       2.416   1.078  -0.152  0.00  0.00    +0.049 A 
ATOM      8  C   UNL     1       1.135   1.606  -0.140  0.00  0.00    +0.025 A 
ATOM      9  C   UNL     1       0.048   0.755  -0.238  0.00  0.00    +0.002 A 
ATOM     10  C   UNL     1       0.235  -0.611  -0.348  0.00  0.00    +0.002 A 
ATOM     11  C   UNL     1       1.513  -1.143  -0.344  0.00  0.00    +0.025 A 
ATOM     12  C   UNL     1       2.601  -0.294  -0.230  0.00  0.00    +0.052 A 
ATOM     13  N   UNL     1       3.903  -0.769  -0.123  0.00  0.00    -0.316 N 
ATOM     14  C   UNL     1       6.247   0.827  -2.455  0.00  0.00    +0.163 C 
ATOM     15  O   UNL     1       6.473   1.927  -2.920  0.00  0.00    -0.292 OA
ATOM     16  C   UNL     1       7.109  -0.326  -2.872  0.00  0.00    +0.088 C 
ATOM     17  H   UNL     1       3.719   2.429   0.678  0.00  0.00    +0.147 HD
ATOM     18  H   UNL     1       4.121  -1.314   0.649  0.00  0.00    +0.152 HD
ENDROOT
BRANCH   1  22
ATOM     19  C   UNL     1       9.363  -4.796  -2.936  0.00  0.00    +0.120 A 
ATOM     20  C   UNL     1       9.747  -4.077  -1.813  0.00  0.00    +0.046 A 
ATOM     21  C   UNL     1       9.025  -2.964  -1.427  0.00  0.00    +0.007 A 
ATOM     22  C   UNL     1       7.920  -2.567  -2.158  0.00  0.00    -0.043 A 
ATOM     23  C   UNL     1       7.532  -3.286  -3.273  0.00  0.00    +0.007 A 
ATOM     24  C   UNL     1       8.254  -4.396  -3.667  0.00  0.00    +0.046 A 
BRANCH  19  26
ATOM     25  C   UNL     1       9.618  -6.583  -4.483  0.00  0.00    +0.277 C 
ATOM     26  O   UNL     1      10.071  -5.891  -3.318  0.00  0.00    -0.495 OA
ENDBRANCH  19  26
ENDBRANCH   1  22
BRANCH   5  27
ATOM     27  C   UNL     1       3.671   2.376  -2.460  0.00  0.00    -0.016 A 
ATOM     28  C   UNL     1       4.033   3.497  -3.184  0.00  0.00    +0.013 A 
ATOM     29  C   UNL     1       3.309   3.834  -4.279  0.00  0.00    +0.045 A 
ATOM     30  S   UNL     1       2.070   2.549  -4.313  0.00  0.00    -0.105 S 
ATOM     31  C   UNL     1       2.605   1.645  -2.869  0.00  0.00    +0.051 A 
ENDBRANCH   5  27
TORSDOF 3
