REMARK  Name = ZINC05582033
REMARK  9 active torsions:
REMARK  status: ('A' for Active; 'I' for Inactive)
REMARK    1  A    between atoms: C_1  and  C_2
REMARK    2  A    between atoms: C_2  and  C_3
REMARK    3  A    between atoms: C_3  and  C_4
REMARK    4  A    between atoms: C_7  and  S_10
REMARK    5  A    between atoms: N_8  and  N_9
REMARK    6  A    between atoms: S_10  and  C_11
REMARK    7  A    between atoms: C_11  and  C_13
REMARK    8  A    between atoms: C_11  and  C_14
REMARK    9  A    between atoms: N_16  and  C_17
REMARK                            x       y       z     vdW  Elec       q    Type
REMARK                         _______ _______ _______ _____ _____    ______ ____
ROOT
ATOM      1  C   UNL     1      -0.009   1.082   0.004  0.00  0.00    +0.137 C 
ATOM      2  C   UNL     1      -0.724   1.565   1.268  0.00  0.00    +0.029 C 
ENDROOT
BRANCH   1   3
ATOM      3  C   UNL     1      -0.743   1.586  -1.212  0.00  0.00    +0.230 C 
ATOM      4  O   UNL     1      -0.333   2.561  -1.806  0.00  0.00    -0.274 OA
ATOM      5  N   UNL     1      -1.854   0.954  -1.639  0.00  0.00    -0.285 N 
ATOM      6  H   UNL     1      -2.143   0.136  -1.205  0.00  0.00    +0.155 HD
BRANCH   5   7
ATOM      7  C   UNL     1      -2.589   1.477  -2.708  0.00  0.00    +0.036 A 
ATOM      8  C   UNL     1      -3.972   1.357  -2.726  0.00  0.00    +0.043 A 
ATOM      9  C   UNL     1      -4.697   1.880  -3.780  0.00  0.00    +0.044 A 
ATOM     10  C   UNL     1      -4.044   2.513  -4.824  0.00  0.00    +0.040 A 
ATOM     11  C   UNL     1      -2.665   2.629  -4.811  0.00  0.00    +0.044 A 
ATOM     12  C   UNL     1      -1.936   2.113  -3.756  0.00  0.00    +0.043 A 
ATOM     13 CL   UNL     1      -1.850   3.424  -6.121  0.00  0.00    -0.083 Cl
ATOM     14 CL   UNL     1      -6.427   1.736  -3.800  0.00  0.00    -0.083 Cl
ENDBRANCH   5   7
ENDBRANCH   1   3
BRANCH   1  15
ATOM     15  S   UNL     1       1.687   1.714  -0.009  0.00  0.00    -0.072 S 
BRANCH  15  19
ATOM     16  C   UNL     1       3.654   0.142   2.970  0.00  0.00    +0.151 A 
ATOM     17  N   UNL     1       2.473  -0.392   3.100  0.00  0.00    -0.132 NA
ATOM     18  N   UNL     1       1.692   0.035   2.173  0.00  0.00    -0.121 NA
ATOM     19  C   UNL     1       2.338   0.872   1.395  0.00  0.00    +0.209 A 
ATOM     20  N   UNL     1       3.613   0.961   1.876  0.00  0.00    -0.228 N 
BRANCH  20  21
ATOM     21  N   UNL     1       4.634   1.716   1.372  0.00  0.00    -0.295 N 
ATOM     22  H   UNL     1       4.646   2.634   1.790  0.00  0.00    +0.163 HD
ATOM     23  H   UNL     1       5.521   1.251   1.494  0.00  0.00    +0.163 HD
ENDBRANCH  20  21
BRANCH  16  24
ATOM     24  C   UNL     1       4.847  -0.104   3.858  0.00  0.00    +0.078 C 
BRANCH  24  26
ATOM     25  C   UNL     1       6.865  -1.534   4.215  0.00  0.00    +0.004 C 
ATOM     26  C   UNL     1       5.654  -1.284   3.313  0.00  0.00    +0.004 C 
ENDBRANCH  24  26
ENDBRANCH  16  24
ENDBRANCH  15  19
ENDBRANCH   1  15
TORSDOF 7
