REMARK  Name = ZINC09381860
REMARK  7 active torsions:
REMARK  status: ('A' for Active; 'I' for Inactive)
REMARK    1  A    between atoms: C_1  and  C_2
REMARK    2  A    between atoms: C_7  and  C_8
REMARK    3  A    between atoms: N_12  and  N_13
REMARK    4  A    between atoms: C_14  and  C_16
REMARK    5  A    between atoms: C_19  and  S_22
REMARK    6  A    between atoms: S_22  and  N_25
REMARK    7  A    between atoms: C_29  and  C_32
REMARK                            x       y       z     vdW  Elec       q    Type
REMARK                         _______ _______ _______ _____ _____    ______ ____
ROOT
ATOM      1  N   UNL     1       7.063   0.239   0.382  0.00  0.00    -0.231 N 
ATOM      2  C   UNL     1       8.317  -0.254   0.398  0.00  0.00    +0.260 C 
ATOM      3  O   UNL     1       8.506  -1.440   0.211  0.00  0.00    -0.269 OA
ATOM      4  H   UNL     1       6.912   1.185   0.531  0.00  0.00    +0.173 HD
ENDROOT
BRANCH   1  16
ATOM      5  C   UNL     1      -1.391  -0.524  -0.419  0.00  0.00    +0.044 C 
ATOM      6  C   UNL     1      -0.041   0.108  -0.204  0.00  0.00    -0.045 A 
ATOM      7  C   UNL     1       0.039   1.473   0.034  0.00  0.00    +0.005 A 
ATOM      8  C   UNL     1       1.278   2.054   0.231  0.00  0.00    +0.017 A 
ATOM      9  C   UNL     1       2.407   1.276   0.188  0.00  0.00    +0.041 A 
ATOM     10  C   UNL     1       2.365  -0.117  -0.051  0.00  0.00    +0.083 A 
ATOM     11  C   UNL     1       1.082  -0.677  -0.248  0.00  0.00    -0.021 A 
ATOM     12  C   UNL     1       0.947  -2.155  -0.511  0.00  0.00    +0.046 C 
ATOM     13  N   UNL     1       3.560  -0.746  -0.063  0.00  0.00    -0.223 NA
ATOM     14  C   UNL     1       4.693  -0.110   0.135  0.00  0.00    +0.176 A 
ATOM     15  S   UNL     1       4.148   1.574   0.378  0.00  0.00    -0.051 S 
ATOM     16  N   UNL     1       5.977  -0.615   0.151  0.00  0.00    -0.242 N 
ATOM     17  H   UNL     1       6.128  -1.562   0.001  0.00  0.00    +0.172 HD
ENDBRANCH   1  16
BRANCH   2  18
ATOM     18  C   UNL     1       9.463   0.647   0.642  0.00  0.00    +0.038 A 
ATOM     19  C   UNL     1       9.250   2.011   0.852  0.00  0.00    +0.015 A 
ATOM     20  C   UNL     1      10.324   2.846   1.084  0.00  0.00    +0.029 A 
ATOM     21  C   UNL     1      11.610   2.336   1.100  0.00  0.00    +0.106 A 
ATOM     22  C   UNL     1      11.828   0.986   0.888  0.00  0.00    +0.029 A 
ATOM     23  C   UNL     1      10.763   0.140   0.659  0.00  0.00    +0.015 A 
BRANCH  21  24
ATOM     24  S   UNL     1      12.976   3.410   1.391  0.00  0.00    +0.061 S 
ATOM     25  O   UNL     1      12.466   4.531   2.102  0.00  0.00    -0.153 OA
ATOM     26  O   UNL     1      14.028   2.601   1.898  0.00  0.00    -0.153 OA
BRANCH  24  27
ATOM     27  N   UNL     1      13.478   3.974  -0.083  0.00  0.00    -0.176 NA
ATOM     28  C   UNL     1      12.913   5.208  -0.645  0.00  0.00    +0.109 C 
ATOM     29  C   UNL     1      12.386   4.912  -2.053  0.00  0.00    +0.017 C 
ATOM     30  C   UNL     1      13.506   4.294  -2.893  0.00  0.00    +0.006 C 
ATOM     31  C   UNL     1      13.954   2.975  -2.258  0.00  0.00    +0.002 C 
ATOM     32  C   UNL     1      14.503   3.252  -0.850  0.00  0.00    +0.112 C 
ATOM     33  C   UNL     1      15.051   2.342  -3.116  0.00  0.00    +0.009 C 
ENDBRANCH  24  27
ENDBRANCH  21  24
ENDBRANCH   2  18
TORSDOF 4
