REMARK  Name = ZINC39273459
REMARK  3 active torsions:
REMARK  status: ('A' for Active; 'I' for Inactive)
REMARK    1  A    between atoms: C_9  and  C_12
REMARK    2  A    between atoms: N_14  and  N_15
REMARK    3  A    between atoms: C_16  and  C_17
REMARK                            x       y       z     vdW  Elec       q    Type
REMARK                         _______ _______ _______ _____ _____    ______ ____
ROOT
ATOM      1  C   UNL     1       4.898  -2.639  -0.050  0.00  0.00    +0.276 C 
ATOM      2  O   UNL     1       5.740  -2.006   0.552  0.00  0.00    -0.270 OA
ATOM      3  N   UNL     1       5.136  -3.921  -0.391  0.00  0.00    -0.204 N 
ATOM      4  H   UNL     1       4.464  -4.428  -0.873  0.00  0.00    +0.177 HD
ENDROOT
BRANCH   1  13
ATOM      5  C   UNL     1      -0.017   1.378   0.010  0.00  0.00    +0.004 A 
ATOM      6  C   UNL     1       1.170   2.088   0.002  0.00  0.00    +0.004 A 
ATOM      7  C   UNL     1       2.378   1.418  -0.012  0.00  0.00    +0.049 A 
ATOM      8  C   UNL     1       2.404   0.031  -0.019  0.00  0.00    +0.163 A 
ATOM      9  C   UNL     1       1.212  -0.683  -0.014  0.00  0.00    +0.162 A 
ATOM     10  C   UNL     1       0.002  -0.004   0.002  0.00  0.00    +0.049 A 
ATOM     11  O   UNL     1       1.214  -2.043  -0.029  0.00  0.00    -0.484 OA
ATOM     12  C   UNL     1       2.441  -2.689   0.331  0.00  0.00    +0.283 C 
ATOM     13  C   UNL     1       3.587  -1.993  -0.416  0.00  0.00    +0.297 C 
ATOM     14  O   UNL     1       3.602  -0.615  -0.029  0.00  0.00    -0.472 OA
ENDBRANCH   1  13
BRANCH   3  15
ATOM     15  N   UNL     1       6.355  -4.522  -0.051  0.00  0.00    -0.188 NA
ATOM     16  C   UNL     1       6.585  -5.760  -0.381  0.00  0.00    +0.135 C 
BRANCH  16  17
ATOM     17  C   UNL     1       7.857  -6.387  -0.025  0.00  0.00    -0.005 C 
ATOM     18  C   UNL     1       8.893  -5.816   0.650  0.00  0.00    +0.073 C 
ATOM     19  N   UNL     1       9.963  -6.708   0.796  0.00  0.00    -0.342 N 
ATOM     20  C   UNL     1       9.838  -7.592  -0.358  0.00  0.00    +0.104 C 
ATOM     21  C   UNL     1       8.285  -7.789  -0.323  0.00  0.00    +0.068 C 
ATOM     22  C   UNL     1       7.923  -8.414  -1.626  0.00  0.00    -0.017 C 
ATOM     23  C   UNL     1       8.718  -9.438  -2.002  0.00  0.00    -0.004 C 
ATOM     24  C   UNL     1       9.830  -9.862  -1.127  0.00  0.00    -0.003 C 
ATOM     25  C   UNL     1      10.435  -8.957  -0.316  0.00  0.00    -0.004 C 
ATOM     26  H   UNL     1      10.631  -6.731   1.499  0.00  0.00    +0.146 HD
ENDBRANCH  16  17
ENDBRANCH   3  15
TORSDOF 3
