REMARK  Name = ZINC09349221
REMARK  5 active torsions:
REMARK  status: ('A' for Active; 'I' for Inactive)
REMARK    1  A    between atoms: C_4  and  C_7
REMARK    2  A    between atoms: C_7  and  N_8
REMARK    3  A    between atoms: C_11  and  N_27
REMARK    4  A    between atoms: C_12  and  C_14
REMARK    5  A    between atoms: C_14  and  C_16
REMARK                            x       y       z     vdW  Elec       q    Type
REMARK                         _______ _______ _______ _____ _____    ______ ____
ROOT
ATOM      1  N   UNL     1      -0.958  -0.970  -0.092  0.00  0.00    -0.283 N 
ATOM      2  C   UNL     1       0.008  -0.008  -0.074  0.00  0.00    +0.099 A 
ATOM      3  C   UNL     1       1.371  -0.342  -0.102  0.00  0.00    +0.092 A 
ATOM      4  C   UNL     1       2.269   0.739  -0.080  0.00  0.00    +0.057 A 
ATOM      5  C   UNL     1       1.738   2.021  -0.033  0.00  0.00    +0.083 A 
ATOM      6  S   UNL     1      -0.018   1.715  -0.021  0.00  0.00    -0.065 S 
ATOM      7  C   UNL     1       1.671  -1.792  -0.151  0.00  0.00    +0.264 A 
ATOM      8  O   UNL     1       2.824  -2.182  -0.177  0.00  0.00    -0.267 OA
ATOM      9  N   UNL     1       0.655  -2.672  -0.165  0.00  0.00    -0.274 N 
ATOM     10  H   UNL     1       0.860  -3.650  -0.198  0.00  0.00    +0.173 HD
ATOM     11  C   UNL     1      -0.628  -2.275  -0.137  0.00  0.00    +0.330 A 
ATOM     12  O   UNL     1      -1.510  -3.112  -0.151  0.00  0.00    -0.246 OA
ENDROOT
BRANCH   4  13
ATOM     13  N   UNL     1       3.639   0.532  -0.104  0.00  0.00    -0.356 N 
ATOM     14  H   UNL     1       3.993  -0.371  -0.137  0.00  0.00    +0.142 HD
ATOM     15  H   UNL     1       4.244   1.290  -0.089  0.00  0.00    +0.142 HD
ENDBRANCH   4  13
BRANCH   5  16
ATOM     16  C   UNL     1       2.418   3.256  -0.004  0.00  0.00    +0.202 C 
ATOM     17  O   UNL     1       3.632   3.282   0.102  0.00  0.00    -0.286 OA
BRANCH  16  18
ATOM     18  C   UNL     1       1.658   4.521  -0.102  0.00  0.00    +0.025 A 
ATOM     19  C   UNL     1       2.201   5.704   0.403  0.00  0.00    +0.015 A 
ATOM     20  C   UNL     1       1.494   6.884   0.312  0.00  0.00    +0.048 A 
ATOM     21  C   UNL     1       0.241   6.899  -0.282  0.00  0.00    +0.142 A 
ATOM     22  C   UNL     1      -0.308   5.719  -0.788  0.00  0.00    +0.076 A 
ATOM     23  C   UNL     1       0.398   4.534  -0.704  0.00  0.00    +0.038 A 
ATOM     24  N   UNL     1      -1.578   5.754  -1.383  0.00  0.00    -0.280 N 
ATOM     25  C   UNL     1      -2.100   6.947  -1.740  0.00  0.00    +0.255 C 
ATOM     26  O   UNL     1      -3.209   7.005  -2.230  0.00  0.00    -0.272 OA
ATOM     27  C   UNL     1      -1.300   8.207  -1.528  0.00  0.00    +0.325 C 
ATOM     28  O   UNL     1      -0.463   8.057  -0.379  0.00  0.00    -0.481 OA
ATOM     29  H   UNL     1      -2.073   4.934  -1.536  0.00  0.00    +0.155 HD
ENDBRANCH  16  18
ENDBRANCH   5  16
BRANCH   1  30
ATOM     30  C   UNL     1      -2.370  -0.581  -0.062  0.00  0.00    +0.162 C 
BRANCH  30  34
ATOM     31  C   UNL     1      -3.794  -0.075  -4.057  0.00  0.00    +0.000 A 
ATOM     32  C   UNL     1      -3.882  -1.310  -3.443  0.00  0.00    +0.000 A 
ATOM     33  C   UNL     1      -3.421  -1.474  -2.150  0.00  0.00    +0.005 A 
ATOM     34  C   UNL     1      -2.872  -0.402  -1.472  0.00  0.00    -0.028 A 
ATOM     35  C   UNL     1      -2.788   0.834  -2.084  0.00  0.00    +0.005 A 
ATOM     36  C   UNL     1      -3.245   0.997  -3.378  0.00  0.00    +0.000 A 
ENDBRANCH  30  34
ENDBRANCH   1  30
TORSDOF 5
