REMARK  Name = ZINC15730620
REMARK  4 active torsions:
REMARK  status: ('A' for Active; 'I' for Inactive)
REMARK    1  A    between atoms: C_1  and  C_2
REMARK    2  A    between atoms: N_8  and  S_9
REMARK    3  A    between atoms: S_9  and  C_12
REMARK    4  A    between atoms: C_21  and  C_25
REMARK                            x       y       z     vdW  Elec       q    Type
REMARK                         _______ _______ _______ _____ _____    ______ ____
ROOT
ATOM      1  C   UNL     1      -2.247  -0.499  -1.505  0.00  0.00    +0.110 A 
ATOM      2  C   UNL     1      -3.127   0.565  -1.586  0.00  0.00    +0.030 A 
ATOM      3  C   UNL     1      -3.758   0.828  -2.778  0.00  0.00    +0.018 A 
ATOM      4  C   UNL     1      -3.543   0.038  -3.916  0.00  0.00    +0.029 A 
ATOM      5  C   UNL     1      -2.667  -1.035  -3.836  0.00  0.00    +0.049 A 
ATOM      6  C   UNL     1      -2.025  -1.282  -2.611  0.00  0.00    +0.053 A 
ATOM      7  N   UNL     1      -2.335  -1.904  -4.841  0.00  0.00    -0.284 N 
ATOM      8  C   UNL     1      -2.701  -2.270  -6.018  0.00  0.00    +0.221 C 
ATOM      9  O   UNL     1      -2.210  -3.306  -6.414  0.00  0.00    -0.275 OA
ATOM     10  C   UNL     1      -3.640  -1.610  -6.965  0.00  0.00    +0.082 C 
ATOM     11  C   UNL     1      -4.817  -0.993  -6.266  0.00  0.00    +0.087 C 
ATOM     12  S   UNL     1      -4.420   0.492  -5.357  0.00  0.00    -0.123 S 
ATOM     13  C   UNL     1      -4.150  -2.651  -7.964  0.00  0.00    +0.018 C 
ATOM     14  H   UNL     1      -1.557  -2.419  -4.574  0.00  0.00    +0.155 HD
ENDROOT
BRANCH   1  15
ATOM     15  S   UNL     1      -1.421  -0.852   0.011  0.00  0.00    +0.074 S 
ATOM     16  O   UNL     1      -1.073  -2.229  -0.027  0.00  0.00    -0.150 OA
ATOM     17  O   UNL     1      -2.218  -0.295   1.047  0.00  0.00    -0.150 OA
BRANCH  15  25
ATOM     18  C   UNL     1      -0.172   5.612   0.034  0.00  0.00    +0.045 C 
ATOM     19  C   UNL     1      -0.087   4.107   0.025  0.00  0.00    -0.032 A 
ATOM     20  C   UNL     1       1.149   3.474   0.010  0.00  0.00    +0.008 A 
ATOM     21  C   UNL     1       1.182   2.092   0.002  0.00  0.00    +0.045 A 
ATOM     22  C   UNL     1      -0.017   1.386   0.010  0.00  0.00    +0.138 A 
ATOM     23  N   UNL     1      -1.175   2.026   0.019  0.00  0.00    -0.239 NA
ATOM     24  C   UNL     1      -1.238   3.344   0.032  0.00  0.00    +0.116 A 
ATOM     25  N   UNL     1       0.002  -0.004   0.002  0.00  0.00    -0.199 N 
ATOM     26  H   UNL     1       0.849  -0.478  -0.009  0.00  0.00    +0.175 HD
ENDBRANCH  15  25
ENDBRANCH   1  15
TORSDOF 2
