REMARK  Name = ZINC29935409
REMARK  8 active torsions:
REMARK  status: ('A' for Active; 'I' for Inactive)
REMARK    1  A    between atoms: C_1  and  C_2
REMARK    2  A    between atoms: C_3  and  N_9
REMARK    3  A    between atoms: C_10  and  C_12
REMARK    4  A    between atoms: C_12  and  C_14
REMARK    5  A    between atoms: C_12  and  N_15
REMARK    6  A    between atoms: C_18  and  N_21
REMARK    7  A    between atoms: N_21  and  S_22
REMARK    8  A    between atoms: S_22  and  C_25
REMARK                            x       y       z     vdW  Elec       q    Type
REMARK                         _______ _______ _______ _____ _____    ______ ____
ROOT
ATOM      1  N   UNL     1       0.176  -0.832  -6.003  0.00  0.00    +0.387 N 
ATOM      2  C   UNL     1       0.141  -0.083  -7.265  0.00  0.00    -0.076 C 
ATOM      3  C   UNL     1       0.043  -1.059  -8.439  0.00  0.00    +0.002 C 
ATOM      4  C   UNL     1       1.262  -1.986  -8.428  0.00  0.00    +0.073 C 
ATOM      5  C   UNL     1       1.330  -2.707  -7.079  0.00  0.00    +0.002 C 
ATOM      6  C   UNL     1       1.381  -1.669  -5.955  0.00  0.00    -0.076 C 
ATOM      7  H   UNL     1      -0.642  -1.418  -5.939  0.00  0.00    -0.081 HD
ENDROOT
BRANCH   1   8
ATOM      8  C   UNL     1       0.192   0.111  -4.876  0.00  0.00    +0.016 C 
ATOM      9  C   UNL     1      -1.025   1.033  -4.966  0.00  0.00    -0.004 C 
BRANCH   8  11
ATOM     10  N   UNL     1       0.692  -0.128  -2.466  0.00  0.00    -0.287 N 
ATOM     11  C   UNL     1       0.147  -0.656  -3.580  0.00  0.00    +0.203 C 
ATOM     12  O   UNL     1      -0.380  -1.747  -3.538  0.00  0.00    -0.277 OA
ATOM     13  H   UNL     1       1.048   0.774  -2.481  0.00  0.00    +0.155 HD
BRANCH  10  16
ATOM     14  C   UNL     1       1.016   1.254   0.001  0.00  0.00    +0.047 C 
ATOM     15  C   UNL     1       0.901  -0.247  -0.062  0.00  0.00    -0.011 A 
ATOM     16  C   UNL     1       0.744  -0.881  -1.288  0.00  0.00    +0.038 A 
ATOM     17  C   UNL     1       0.638  -2.265  -1.342  0.00  0.00    +0.023 A 
ATOM     18  C   UNL     1       0.689  -3.006  -0.177  0.00  0.00    +0.003 A 
ATOM     19  C   UNL     1       0.845  -2.373   1.042  0.00  0.00    +0.020 A 
ATOM     20  C   UNL     1       0.957  -0.995   1.099  0.00  0.00    +0.046 A 
ATOM     21 CL   UNL     1       1.161  -0.204   2.631  0.00  0.00    -0.083 Cl
ENDBRANCH  10  16
ENDBRANCH   8  11
ENDBRANCH   1   8
BRANCH   4  22
ATOM     22  N   UNL     1       1.137  -2.973  -9.504  0.00  0.00    -0.187 NA
ATOM     23  H   UNL     1       0.263  -3.320  -9.745  0.00  0.00    +0.148 HD
BRANCH  22  24
ATOM     24  S   UNL     1       2.486  -3.495 -10.310  0.00  0.00    +0.059 S 
ATOM     25  O   UNL     1       2.045  -4.453 -11.262  0.00  0.00    -0.153 OA
ATOM     26  O   UNL     1       3.213  -2.331 -10.681  0.00  0.00    -0.153 OA
BRANCH  24  27
ATOM     27  C   UNL     1       3.484  -4.363  -9.146  0.00  0.00    +0.105 A 
ATOM     28  C   UNL     1       4.433  -3.682  -8.407  0.00  0.00    +0.031 A 
ATOM     29  C   UNL     1       5.217  -4.361  -7.493  0.00  0.00    +0.040 A 
ATOM     30  C   UNL     1       5.051  -5.725  -7.319  0.00  0.00    +0.124 A 
ATOM     31  C   UNL     1       4.100  -6.406  -8.060  0.00  0.00    +0.040 A 
ATOM     32  C   UNL     1       3.314  -5.723  -8.969  0.00  0.00    +0.031 A 
ATOM     33  F   UNL     1       5.817  -6.390  -6.427  0.00  0.00    -0.205 F 
ENDBRANCH  24  27
ENDBRANCH  22  24
ENDBRANCH   4  22
TORSDOF 6
