REMARK  Name = ZINC59258594
REMARK  7 active torsions:
REMARK  status: ('A' for Active; 'I' for Inactive)
REMARK    1  A    between atoms: C_1  and  C_2
REMARK    2  A    between atoms: C_2  and  C_4
REMARK    3  A    between atoms: C_2  and  N_17
REMARK    4  A    between atoms: N_6  and  C_7
REMARK    5  A    between atoms: C_20  and  C_23
REMARK    6  A    between atoms: N_25  and  C_26
REMARK    7  A    between atoms: C_31  and  O_32
REMARK                            x       y       z     vdW  Elec       q    Type
REMARK                         _______ _______ _______ _____ _____    ______ ____
ROOT
ATOM      1  N   UNL     1      -0.210  -0.997  -0.895  0.00  0.00    +0.387 N 
ATOM      2  C   UNL     1      -0.935  -2.212  -0.505  0.00  0.00    -0.077 C 
ATOM      3  C   UNL     1      -0.852  -3.244  -1.633  0.00  0.00    -0.006 C 
ATOM      4  C   UNL     1      -1.479  -2.657  -2.901  0.00  0.00    +0.072 C 
ATOM      5  C   UNL     1      -0.763  -1.351  -3.256  0.00  0.00    -0.006 C 
ATOM      6  C   UNL     1      -0.850  -0.390  -2.068  0.00  0.00    -0.077 C 
ATOM      7  H   UNL     1       0.745  -1.234  -1.119  0.00  0.00    -0.081 HD
ENDROOT
BRANCH   4   8
ATOM      8  C   UNL     1      -1.330  -3.638  -4.036  0.00  0.00    +0.220 C 
ATOM      9  O   UNL     1      -0.777  -4.701  -3.850  0.00  0.00    -0.275 OA
ATOM     10  N   UNL     1      -1.812  -3.333  -5.257  0.00  0.00    -0.282 N 
ATOM     11  H   UNL     1      -2.189  -2.454  -5.424  0.00  0.00    +0.155 HD
BRANCH  10  12
ATOM     12  C   UNL     1      -1.769  -4.284  -6.285  0.00  0.00    +0.077 A 
ATOM     13  C   UNL     1      -1.626  -5.630  -5.981  0.00  0.00    +0.047 A 
ATOM     14  C   UNL     1      -1.584  -6.567  -6.997  0.00  0.00    +0.043 A 
ATOM     15  C   UNL     1      -1.684  -6.165  -8.318  0.00  0.00    +0.023 A 
ATOM     16  C   UNL     1      -1.826  -4.825  -8.627  0.00  0.00    +0.049 A 
ATOM     17  C   UNL     1      -1.875  -3.881  -7.614  0.00  0.00    +0.138 A 
ATOM     18 CL   UNL     1      -1.406  -8.251  -6.616  0.00  0.00    -0.083 Cl
BRANCH  17  19
ATOM     19  O   UNL     1      -2.021  -2.563  -7.917  0.00  0.00    -0.505 OA
ATOM     20  H   UNL     1      -1.185  -2.095  -8.048  0.00  0.00    +0.292 HD
ENDBRANCH  17  19
ENDBRANCH  10  12
ENDBRANCH   4   8
BRANCH   1  22
ATOM     21  C   UNL     1       0.473   1.252  -0.206  0.00  0.00    -0.004 C 
ATOM     22  C   UNL     1      -0.226  -0.040   0.220  0.00  0.00    +0.016 C 
BRANCH  22  23
ATOM     23  C   UNL     1       0.494  -0.634   1.403  0.00  0.00    +0.200 C 
ATOM     24  O   UNL     1       1.373  -1.451   1.229  0.00  0.00    -0.278 OA
ATOM     25  N   UNL     1       0.161  -0.258   2.653  0.00  0.00    -0.311 N 
ATOM     26  H   UNL     1      -0.543   0.395   2.792  0.00  0.00    +0.149 HD
BRANCH  25  27
ATOM     27  C   UNL     1       0.861  -0.836   3.803  0.00  0.00    +0.035 C 
ATOM     28  C   UNL     1       2.353  -0.514   3.706  0.00  0.00    +0.029 C 
ATOM     29  C   UNL     1       3.085  -1.118   4.907  0.00  0.00    -0.008 C 
ATOM     30  C   UNL     1       2.518  -0.526   6.199  0.00  0.00    +0.007 C 
ATOM     31  C   UNL     1       1.026  -0.848   6.296  0.00  0.00    -0.008 C 
ATOM     32  C   UNL     1       0.295  -0.244   5.095  0.00  0.00    +0.029 C 
ATOM     33  C   UNL     1       0.831  -2.365   6.302  0.00  0.00    +0.007 C 
ATOM     34  C   UNL     1       1.397  -2.957   5.010  0.00  0.00    -0.008 C 
ATOM     35  C   UNL     1       2.890  -2.635   4.912  0.00  0.00    +0.007 C 
ATOM     36  C   UNL     1       0.666  -2.354   3.809  0.00  0.00    +0.029 C 
ENDBRANCH  25  27
ENDBRANCH  22  23
ENDBRANCH   1  22
TORSDOF 6
