REMARK  Name = ZINC59171022
REMARK  5 active torsions:
REMARK  status: ('A' for Active; 'I' for Inactive)
REMARK    1  A    between atoms: C_1  and  C_2
REMARK    2  A    between atoms: C_2  and  C_3
REMARK    3  A    between atoms: C_8  and  N_9
REMARK    4  A    between atoms: C_11  and  C_22
REMARK    5  A    between atoms: C_22  and  N_24
REMARK                            x       y       z     vdW  Elec       q    Type
REMARK                         _______ _______ _______ _____ _____    ______ ____
ROOT
ATOM      1  N   UNL     1      -1.208  -0.677  -2.419  0.00  0.00    -0.325 N 
ATOM      2  C   UNL     1      -1.986  -0.727  -3.478  0.00  0.00    +0.209 A 
ATOM      3  C   UNL     1      -1.495  -0.299  -4.803  0.00  0.00    +0.064 A 
ATOM      4  C   UNL     1      -2.096  -0.874  -5.916  0.00  0.00    +0.027 A 
ATOM      5  C   UNL     1      -3.159  -1.852  -5.676  0.00  0.00    +0.020 A 
ATOM      6  C   UNL     1      -3.627  -2.669  -6.713  0.00  0.00    +0.027 A 
ATOM      7  C   UNL     1      -4.626  -3.584  -6.460  0.00  0.00    +0.020 A 
ATOM      8  C   UNL     1      -5.168  -3.699  -5.187  0.00  0.00    +0.034 A 
ATOM      9  C   UNL     1      -4.716  -2.899  -4.156  0.00  0.00    +0.062 A 
ATOM     10  C   UNL     1      -3.712  -1.970  -4.388  0.00  0.00    +0.151 A 
ATOM     11  O   UNL     1      -3.263  -1.178  -3.387  0.00  0.00    -0.438 OA
ATOM     12 BR   UNL     1      -5.466  -3.071  -2.428  0.00  0.00    -0.046 Br
ATOM     13 BR   UNL     1      -5.263  -4.689  -7.856  0.00  0.00    -0.050 Br
ATOM     14  H   UNL     1      -0.272  -0.442  -2.515  0.00  0.00    +0.169 HD
ENDROOT
BRANCH   1  20
ATOM     15  C   UNL     1      -1.093  -1.897  -0.360  0.00  0.00    -0.024 A 
ATOM     16  C   UNL     1      -1.611  -2.170   0.889  0.00  0.00    +0.005 A 
ATOM     17  C   UNL     1      -2.751  -1.519   1.327  0.00  0.00    +0.000 A 
ATOM     18  C   UNL     1      -3.379  -0.590   0.516  0.00  0.00    +0.002 A 
ATOM     19  C   UNL     1      -2.873  -0.306  -0.735  0.00  0.00    +0.026 A 
ATOM     20  C   UNL     1      -1.719  -0.956  -1.181  0.00  0.00    +0.045 A 
BRANCH  15  22
ATOM     21  C   UNL     1       1.376  -1.745  -0.532  0.00  0.00    +0.009 C 
ATOM     22  C   UNL     1       0.149  -2.607  -0.834  0.00  0.00    +0.034 C 
ENDBRANCH  15  22
ENDBRANCH   1  20
BRANCH   3  23
ATOM     23  C   UNL     1      -0.418   0.694  -4.939  0.00  0.00    +0.082 C 
ATOM     24  S   UNL     1       0.184   1.499  -3.554  0.00  0.00    -0.035 S 
BRANCH  23  25
ATOM     25  N   UNL     1       0.094   0.970  -6.155  0.00  0.00    -0.352 N 
ATOM     26  H   UNL     1      -0.247   0.514  -6.940  0.00  0.00    +0.143 HD
ATOM     27  H   UNL     1       0.804   1.625  -6.245  0.00  0.00    +0.143 HD
ENDBRANCH  23  25
ENDBRANCH   3  23
TORSDOF 4
