REMARK  Name = ZINC02785305
REMARK  6 active torsions:
REMARK  status: ('A' for Active; 'I' for Inactive)
REMARK    1  A    between atoms: C_1  and  C_2
REMARK    2  A    between atoms: C_2  and  N_52
REMARK    3  A    between atoms: C_13  and  C_16
REMARK    4  A    between atoms: C_19  and  C_21
REMARK    5  A    between atoms: C_21  and  O_22
REMARK    6  A    between atoms: O_22  and  C_23
REMARK                            x       y       z     vdW  Elec       q    Type
REMARK                         _______ _______ _______ _____ _____    ______ ____
ROOT
ATOM      1  C   UNL     1       2.595   0.855  -6.593  0.00  0.00    -0.074 C 
ATOM      2  C   UNL     1       2.884   0.253  -5.215  0.00  0.00    +0.018 C 
ATOM      3  C   UNL     1       3.133   1.397  -4.237  0.00  0.00    -0.027 A 
ATOM      4  C   UNL     1       3.427   2.633  -4.705  0.00  0.00    -0.021 A 
ATOM      5  S   UNL     1       3.627   3.633  -3.256  0.00  0.00    -0.080 S 
ATOM      6  C   UNL     1       3.329   2.441  -2.064  0.00  0.00    +0.080 A 
ATOM      7  C   UNL     1       3.078   1.267  -2.792  0.00  0.00    +0.068 A 
ATOM      8  C   UNL     1       2.792   0.035  -2.022  0.00  0.00    +0.248 C 
ATOM      9  O   UNL     1       2.733  -1.053  -2.565  0.00  0.00    -0.270 OA
ATOM     10  N   UNL     1       2.600   0.168  -0.694  0.00  0.00    -0.287 N 
ATOM     11  C   UNL     1       2.499   1.455  -0.015  0.00  0.00    +0.227 C 
ATOM     12  N   UNL     1       3.307   2.484  -0.695  0.00  0.00    -0.314 N 
ATOM     13  C   UNL     1       3.548   3.035  -6.141  0.00  0.00    -0.035 C 
ATOM     14  H   UNL     1       2.524  -0.638  -0.160  0.00  0.00    +0.151 HD
ATOM     15  H   UNL     1       3.798   3.157  -0.198  0.00  0.00    +0.149 HD
ATOM     16  N   UNL     1       3.673   1.799  -6.950  0.00  0.00    +0.383 N 
ATOM     17  H   UNL     1       4.581   1.361  -6.753  0.00  0.00    -0.081 HD
ENDROOT
BRANCH  11  18
ATOM     18  C   UNL     1       1.057   1.892   0.002  0.00  0.00    +0.144 A 
ATOM     19  C   UNL     1      -0.013   1.076   0.008  0.00  0.00    +0.049 A 
ATOM     20  C   UNL     1      -1.159   1.903   0.017  0.00  0.00    +0.048 A 
ATOM     21  C   UNL     1      -0.722   3.175   0.026  0.00  0.00    +0.143 A 
ATOM     22  O   UNL     1       0.621   3.162   0.013  0.00  0.00    -0.458 OA
BRANCH  21  23
ATOM     23  C   UNL     1      -1.592   4.406   0.040  0.00  0.00    +0.303 C 
BRANCH  23  24
ATOM     24  O   UNL     1      -1.854   4.788   1.392  0.00  0.00    -0.484 OA
BRANCH  24  25
ATOM     25  C   UNL     1      -2.630   5.887   1.583  0.00  0.00    +0.123 A 
ATOM     26  C   UNL     1      -3.124   6.587   0.491  0.00  0.00    +0.047 A 
ATOM     27  C   UNL     1      -3.917   7.701   0.686  0.00  0.00    +0.025 A 
ATOM     28  C   UNL     1      -4.211   8.126   1.969  0.00  0.00    +0.059 A 
ATOM     29  C   UNL     1      -3.715   7.433   3.061  0.00  0.00    +0.063 A 
ATOM     30  C   UNL     1      -2.925   6.314   2.869  0.00  0.00    +0.067 A 
ATOM     31 CL   UNL     1      -4.085   7.969   4.670  0.00  0.00    -0.082 Cl
ATOM     32 CL   UNL     1      -5.202   9.530   2.212  0.00  0.00    -0.082 Cl
ENDBRANCH  24  25
ENDBRANCH  23  24
ENDBRANCH  21  23
ENDBRANCH  11  18
BRANCH  16  34
ATOM     33  C   UNL     1       4.846   2.929  -8.778  0.00  0.00    -0.017 C 
ATOM     34  C   UNL     1       3.601   2.128  -8.390  0.00  0.00    -0.082 C 
ENDBRANCH  16  34
TORSDOF 5
