REMARK  Name = ZINC12438630
REMARK  10 active torsions:
REMARK  status: ('A' for Active; 'I' for Inactive)
REMARK    1  A    between atoms: C_4  and  O_17
REMARK    2  A    between atoms: C_5  and  C_7
REMARK    3  A    between atoms: C_7  and  N_54
REMARK    4  A    between atoms: C_8  and  C_9
REMARK    5  A    between atoms: C_8  and  N_54
REMARK    6  A    between atoms: O_17  and  C_18
REMARK    7  A    between atoms: C_18  and  C_19
REMARK    8  A    between atoms: C_19  and  C_21
REMARK    9  A    between atoms: C_19  and  O_27
REMARK   10  A    between atoms: C_21  and  N_57
REMARK                            x       y       z     vdW  Elec       q    Type
REMARK                         _______ _______ _______ _____ _____    ______ ____
ROOT
ATOM      1  C   UNL     1      -3.303   8.852  -7.260  0.00  0.00    +0.000 A 
ATOM      2  C   UNL     1      -3.071   7.489  -7.253  0.00  0.00    +0.004 A 
ATOM      3  C   UNL     1      -2.659   6.863  -6.093  0.00  0.00    +0.046 A 
ATOM      4  C   UNL     1      -2.490   7.601  -4.930  0.00  0.00    +0.122 A 
ATOM      5  C   UNL     1      -2.723   8.969  -4.940  0.00  0.00    -0.023 A 
ATOM      6  C   UNL     1      -3.129   9.591  -6.105  0.00  0.00    +0.005 A 
ENDROOT
BRANCH   5   7
ATOM      7  C   UNL     1      -2.533   9.775  -3.681  0.00  0.00    -0.043 C 
BRANCH   7   8
ATOM      8  N   UNL     1      -1.096  10.054  -3.498  0.00  0.00    +0.385 N 
ATOM      9  H   UNL     1      -0.748  10.583  -4.306  0.00  0.00    -0.085 HD
ATOM     10  H   UNL     1      -0.586   9.166  -3.424  0.00  0.00    -0.085 HD
BRANCH   8  11
ATOM     11  C   UNL     1      -0.880  10.844  -2.270  0.00  0.00    -0.024 C 
BRANCH  11  12
ATOM     12  C   UNL     1       0.594  11.113  -2.109  0.00  0.00    +0.043 A 
ATOM     13  C   UNL     1       1.239  12.212  -2.520  0.00  0.00    +0.109 A 
ATOM     14  N   UNL     1       2.585  12.064  -2.177  0.00  0.00    -0.325 N 
ATOM     15  C   UNL     1       2.666  10.851  -1.574  0.00  0.00    +0.169 A 
ATOM     16  N   UNL     1       1.485  10.290  -1.535  0.00  0.00    -0.229 NA
ATOM     17  S   UNL     1       4.369  10.613  -1.123  0.00  0.00    -0.086 S 
ATOM     18  C   UNL     1       5.062  12.189  -1.747  0.00  0.00    +0.099 C 
ATOM     19  C   UNL     1       3.803  12.858  -2.320  0.00  0.00    +0.135 C 
ENDBRANCH  11  12
ENDBRANCH   8  11
ENDBRANCH   7   8
ENDBRANCH   5   7
BRANCH   4  20
ATOM     20  O   UNL     1      -2.090   6.987  -3.786  0.00  0.00    -0.489 OA
BRANCH  20  21
ATOM     21  C   UNL     1      -1.869   5.577  -3.850  0.00  0.00    +0.258 C 
BRANCH  21  22
ATOM     22  C   UNL     1      -1.428   5.067  -2.476  0.00  0.00    +0.135 C 
BRANCH  22  23
ATOM     23  O   UNL     1      -2.493   5.240  -1.539  0.00  0.00    -0.390 OA
ATOM     24  H   UNL     1      -3.303   4.767  -1.773  0.00  0.00    +0.210 HD
ENDBRANCH  22  23
BRANCH  22  25
ATOM     25  C   UNL     1      -1.071   3.582  -2.574  0.00  0.00    -0.044 C 
BRANCH  25  31
ATOM     26  C   UNL     1      -1.580   2.962  -0.293  0.00  0.00    -0.068 C 
ATOM     27  C   UNL     1      -1.082   2.073   0.853  0.00  0.00    +0.050 C 
ATOM     28  S   UNL     1       0.339   2.894   1.640  0.00  0.00    -0.164 S 
ATOM     29  C   UNL     1       1.404   3.299   0.221  0.00  0.00    +0.050 C 
ATOM     30  C   UNL     1       0.552   4.013  -0.835  0.00  0.00    -0.068 C 
ATOM     31  N   UNL     1      -0.505   3.091  -1.305  0.00  0.00    +0.382 N 
ATOM     32  H   UNL     1      -0.089   2.166  -1.463  0.00  0.00    -0.082 HD
ENDBRANCH  25  31
ENDBRANCH  22  25
ENDBRANCH  21  22
ENDBRANCH  20  21
ENDBRANCH   4  20
TORSDOF 10
