REMARK  Name = ZINC08915378
REMARK  6 active torsions:
REMARK  status: ('A' for Active; 'I' for Inactive)
REMARK    1  A    between atoms: C_6  and  C_7
REMARK    2  A    between atoms: C_10  and  C_12
REMARK    3  A    between atoms: C_14  and  C_26
REMARK    4  A    between atoms: C_16  and  C_21
REMARK    5  A    between atoms: C_16  and  O_25
REMARK    6  A    between atoms: C_26  and  C_28
REMARK                            x       y       z     vdW  Elec       q    Type
REMARK                         _______ _______ _______ _____ _____    ______ ____
ROOT
ATOM      1  C   UNL     1      -2.535   1.381   0.020  0.00  0.00    +0.156 C 
ATOM      2  C   UNL     1      -3.095   1.450   1.444  0.00  0.00    +0.147 C 
ATOM      3  C   UNL     1      -4.579   1.068   1.403  0.00  0.00    +0.243 C 
ATOM      4  N   UNL     1      -5.274   1.938   0.452  0.00  0.00    -0.264 N 
ATOM      5  C   UNL     1      -4.638   2.460  -0.608  0.00  0.00    +0.302 C 
ATOM      6  O   UNL     1      -5.264   3.167  -1.373  0.00  0.00    -0.253 OA
ATOM      7  N   UNL     1      -3.340   2.233  -0.857  0.00  0.00    -0.289 N 
ATOM      8  H   UNL     1      -6.212   2.140   0.591  0.00  0.00    +0.153 HD
ATOM      9  H   UNL     1      -2.926   2.641  -1.633  0.00  0.00    +0.151 HD
ENDROOT
BRANCH   1  13
ATOM     10  C   UNL     1       0.632   3.202   0.013  0.00  0.00    +0.135 A 
ATOM     11  C   UNL     1       1.109   1.929   0.002  0.00  0.00    +0.050 A 
ATOM     12  C   UNL     1      -0.013   1.076   0.008  0.00  0.00    +0.047 A 
ATOM     13  C   UNL     1      -1.107   1.862   0.017  0.00  0.00    +0.127 A 
ATOM     14  O   UNL     1      -0.713   3.146   0.026  0.00  0.00    -0.458 OA
BRANCH  10  20
ATOM     15  C   UNL     1       2.843   4.351   0.003  0.00  0.00    +0.013 A 
ATOM     16  C   UNL     1       3.599   5.504  -0.005  0.00  0.00    +0.021 A 
ATOM     17  C   UNL     1       2.980   6.742   0.008  0.00  0.00    +0.041 A 
ATOM     18  C   UNL     1       1.598   6.831   0.023  0.00  0.00    +0.021 A 
ATOM     19  C   UNL     1       0.830   5.685   0.024  0.00  0.00    +0.013 A 
ATOM     20  C   UNL     1       1.449   4.434   0.011  0.00  0.00    +0.017 A 
ATOM     21 CL   UNL     1       3.939   8.189   0.006  0.00  0.00    -0.084 Cl
ENDBRANCH  10  20
ENDBRANCH   1  13
BRANCH   3  22
ATOM     22  C   UNL     1      -4.719  -0.389   0.961  0.00  0.00    +0.436 C 
ATOM     23  F   UNL     1      -4.156  -0.547  -0.311  0.00  0.00    -0.166 F 
ATOM     24  F   UNL     1      -4.055  -1.219   1.870  0.00  0.00    -0.166 F 
ATOM     25  F   UNL     1      -6.074  -0.735   0.917  0.00  0.00    -0.166 F 
ENDBRANCH   3  22
BRANCH   3  26
ATOM     26  O   UNL     1      -5.151   1.230   2.703  0.00  0.00    -0.364 OA
ATOM     27  H   UNL     1      -6.091   1.009   2.749  0.00  0.00    +0.212 HD
ENDBRANCH   3  26
BRANCH   2  28
ATOM     28  C   UNL     1      -2.949   2.852   1.978  0.00  0.00    +0.173 C 
ATOM     29  O   UNL     1      -3.871   3.634   1.889  0.00  0.00    -0.292 OA
BRANCH  28  30
ATOM     30  C   UNL     1      -1.688   3.270   2.607  0.00  0.00    +0.018 A 
ATOM     31  C   UNL     1      -0.623   2.368   2.717  0.00  0.00    +0.014 A 
ATOM     32  C   UNL     1       0.557   2.769   3.303  0.00  0.00    +0.039 A 
ATOM     33  C   UNL     1       0.689   4.060   3.793  0.00  0.00    +0.123 A 
ATOM     34  C   UNL     1      -0.364   4.957   3.692  0.00  0.00    +0.039 A 
ATOM     35  C   UNL     1      -1.548   4.571   3.104  0.00  0.00    +0.014 A 
ATOM     36  F   UNL     1       1.847   4.444   4.372  0.00  0.00    -0.205 F 
ENDBRANCH  28  30
ENDBRANCH   2  28
TORSDOF 6
