REMARK  Name = ZINC14721816
REMARK  12 active torsions:
REMARK  status: ('A' for Active; 'I' for Inactive)
REMARK    1  A    between atoms: C_1  and  C_2
REMARK    2  A    between atoms: C_2  and  C_3
REMARK    3  A    between atoms: C_2  and  C_4
REMARK    4  A    between atoms: C_4  and  N_5
REMARK    5  A    between atoms: C_6  and  N_30
REMARK    6  A    between atoms: C_7  and  N_14
REMARK    7  A    between atoms: N_14  and  C_15
REMARK    8  A    between atoms: C_15  and  C_16
REMARK    9  A    between atoms: C_16  and  O_17
REMARK   10  A    between atoms: O_17  and  C_18
REMARK   11  A    between atoms: C_19  and  C_21
REMARK   12  A    between atoms: C_22  and  C_23
REMARK                            x       y       z     vdW  Elec       q    Type
REMARK                         _______ _______ _______ _____ _____    ______ ____
ROOT
ATOM      1  N   UNL     1       9.013  -0.371   0.661  0.00  0.00    -0.280 N 
ATOM      2  C   UNL     1       7.774   0.218   0.768  0.00  0.00    +0.127 A 
ATOM      3  C   UNL     1       7.347   1.073  -0.227  0.00  0.00    +0.140 A 
ATOM      4  C   UNL     1       8.200   1.326  -1.318  0.00  0.00    +0.277 A 
ATOM      5  O   UNL     1       7.849   2.081  -2.210  0.00  0.00    -0.266 OA
ATOM      6  N   UNL     1       9.406   0.728  -1.371  0.00  0.00    -0.273 N 
ATOM      7  H   UNL     1      10.013   0.907  -2.146  0.00  0.00    +0.173 HD
ATOM      8  C   UNL     1       9.803  -0.107  -0.395  0.00  0.00    +0.331 A 
ATOM      9  O   UNL     1      10.897  -0.633  -0.468  0.00  0.00    -0.246 OA
ENDROOT
BRANCH   3  10
ATOM     10  N   UNL     1       6.080   1.688  -0.150  0.00  0.00    -0.259 N 
ATOM     11  C   UNL     1       4.965   0.932  -0.125  0.00  0.00    +0.244 C 
ATOM     12  O   UNL     1       5.045  -0.276  -0.251  0.00  0.00    -0.270 OA
BRANCH  11  13
ATOM     13  C   UNL     1       3.656   1.564   0.053  0.00  0.00    +0.068 C 
ATOM     14  C   UNL     1       2.540   0.808   0.078  0.00  0.00    +0.013 C 
BRANCH  14  15
ATOM     15  C   UNL     1       1.224   1.443   0.257  0.00  0.00    -0.024 A 
ATOM     16  C   UNL     1       1.128   2.831   0.403  0.00  0.00    +0.008 A 
ATOM     17  C   UNL     1      -0.108   3.419   0.570  0.00  0.00    +0.002 A 
ATOM     18  C   UNL     1      -1.252   2.640   0.595  0.00  0.00    +0.015 A 
ATOM     19  C   UNL     1      -1.165   1.266   0.447  0.00  0.00    +0.018 A 
ATOM     20  C   UNL     1       0.065   0.662   0.284  0.00  0.00    +0.023 A 
ATOM     21 BR   UNL     1      -2.736   0.213   0.474  0.00  0.00    -0.050 Br
ENDBRANCH  14  15
ENDBRANCH  11  13
BRANCH  10  22
ATOM     22  C   UNL     1       5.977   3.148  -0.096  0.00  0.00    +0.142 C 
BRANCH  22  23
ATOM     23  C   UNL     1       5.866   3.599   1.362  0.00  0.00    +0.179 C 
BRANCH  23  24
ATOM     24  O   UNL     1       7.076   3.280   2.052  0.00  0.00    -0.381 OA
ATOM     25  C   UNL     1       7.077   3.660   3.429  0.00  0.00    +0.194 C 
ENDBRANCH  23  24
ENDBRANCH  22  23
ENDBRANCH  10  22
ENDBRANCH   3  10
BRANCH   2  26
ATOM     26  N   UNL     1       6.969  -0.047   1.850  0.00  0.00    -0.343 N 
ATOM     27  H   UNL     1       6.145   0.449   1.974  0.00  0.00    +0.144 HD
ATOM     28  H   UNL     1       7.225  -0.730   2.489  0.00  0.00    +0.144 HD
ENDBRANCH   2  26
BRANCH   1  29
ATOM     29  C   UNL     1       9.477  -1.285   1.708  0.00  0.00    +0.131 C 
BRANCH  29  31
ATOM     30  C   UNL     1       9.246   0.458   3.482  0.00  0.00    +0.009 C 
ATOM     31  C   UNL     1      10.220  -0.493   2.785  0.00  0.00    +0.003 C 
ATOM     32  C   UNL     1      10.812  -1.460   3.812  0.00  0.00    +0.009 C 
ENDBRANCH  29  31
ENDBRANCH   1  29
TORSDOF 9
