REMARK  Name = ZINC09639411
REMARK  8 active torsions:
REMARK  status: ('A' for Active; 'I' for Inactive)
REMARK    1  A    between atoms: C_1  and  C_2
REMARK    2  A    between atoms: C_3  and  C_30
REMARK    3  A    between atoms: C_11  and  C_13
REMARK    4  A    between atoms: C_13  and  C_15
REMARK    5  A    between atoms: C_13  and  S_16
REMARK    6  A    between atoms: S_16  and  C_17
REMARK    7  A    between atoms: C_20  and  C_23
REMARK    8  A    between atoms: N_21  and  N_22
REMARK                            x       y       z     vdW  Elec       q    Type
REMARK                         _______ _______ _______ _____ _____    ______ ____
ROOT
ATOM      1  S   UNL     1      -0.860   1.669   1.497  0.00  0.00    -0.074 S 
ENDROOT
BRANCH   1   2
ATOM      2  C   UNL     1      -2.391   0.813   1.334  0.00  0.00    +0.209 A 
ATOM      3  N   UNL     1      -2.728  -0.003   0.360  0.00  0.00    -0.121 NA
ATOM      4  N   UNL     1      -3.916  -0.454   0.553  0.00  0.00    -0.127 NA
ATOM      5  C   UNL     1      -4.410   0.047   1.661  0.00  0.00    +0.182 A 
ATOM      6  N   UNL     1      -3.447   0.870   2.198  0.00  0.00    -0.224 N 
BRANCH   5   7
ATOM      7  C   UNL     1      -5.748  -0.226   2.228  0.00  0.00    +0.021 A 
ATOM      8  C   UNL     1      -6.264   0.593   3.233  0.00  0.00    +0.013 A 
ATOM      9  C   UNL     1      -7.514   0.336   3.756  0.00  0.00    +0.021 A 
ATOM     10  C   UNL     1      -8.254  -0.739   3.291  0.00  0.00    +0.041 A 
ATOM     11  C   UNL     1      -7.745  -1.558   2.297  0.00  0.00    +0.021 A 
ATOM     12  C   UNL     1      -6.498  -1.308   1.764  0.00  0.00    +0.013 A 
ATOM     13 CL   UNL     1      -9.824  -1.060   3.958  0.00  0.00    -0.084 Cl
ENDBRANCH   5   7
BRANCH   6  14
ATOM     14  N   UNL     1      -3.531   1.594   3.353  0.00  0.00    -0.295 N 
ATOM     15  H   UNL     1      -3.909   2.513   3.177  0.00  0.00    +0.163 HD
ATOM     16  H   UNL     1      -4.076   1.106   4.047  0.00  0.00    +0.163 HD
ENDBRANCH   6  14
ENDBRANCH   1   2
BRANCH   1  17
ATOM     17  C   UNL     1      -0.013   1.086   0.008  0.00  0.00    +0.117 C 
ATOM     18  C   UNL     1      -0.753   1.593  -1.232  0.00  0.00    +0.027 C 
BRANCH  17  29
ATOM     19  C   UNL     1       6.509   2.572  -0.451  0.00  0.00    +0.045 C 
ATOM     20  C   UNL     1       5.258   3.239   0.061  0.00  0.00    -0.026 A 
ATOM     21  C   UNL     1       5.315   4.468   0.598  0.00  0.00    -0.008 A 
ATOM     22  S   UNL     1       3.620   4.805   1.038  0.00  0.00    -0.073 S 
ATOM     23  C   UNL     1       2.886   3.286   0.489  0.00  0.00    +0.116 A 
ATOM     24  C   UNL     1       3.978   2.560  -0.021  0.00  0.00    +0.075 A 
ATOM     25  C   UNL     1       3.669   1.263  -0.546  0.00  0.00    +0.260 A 
ATOM     26  O   UNL     1       4.548   0.557  -1.010  0.00  0.00    -0.267 OA
ATOM     27  N   UNL     1       2.394   0.833  -0.511  0.00  0.00    -0.309 N 
ATOM     28  H   UNL     1       2.179  -0.046  -0.861  0.00  0.00    +0.170 HD
ATOM     29  C   UNL     1       1.401   1.607  -0.003  0.00  0.00    +0.124 A 
ATOM     30  N   UNL     1       1.651   2.794   0.482  0.00  0.00    -0.225 NA
ATOM     31  C   UNL     1       6.521   5.351   0.784  0.00  0.00    +0.052 C 
ENDBRANCH  17  29
ENDBRANCH   1  17
TORSDOF 5
