REMARK  Name = ZINC37428696
REMARK  4 active torsions:
REMARK  status: ('A' for Active; 'I' for Inactive)
REMARK    1  A    between atoms: C_4  and  C_8
REMARK    2  A    between atoms: C_8  and  O_9
REMARK    3  A    between atoms: O_9  and  C_10
REMARK    4  A    between atoms: C_13  and  N_17
REMARK                            x       y       z     vdW  Elec       q    Type
REMARK                         _______ _______ _______ _____ _____    ______ ____
ROOT
ATOM      1  C   UNL     1       5.322  -1.606   1.466  0.00  0.00    +0.149 A 
ATOM      2  C   UNL     1       5.337  -2.991   1.543  0.00  0.00    +0.062 A 
ATOM      3  C   UNL     1       6.534  -3.661   1.709  0.00  0.00    +0.041 A 
ATOM      4  C   UNL     1       7.722  -2.948   1.797  0.00  0.00    +0.027 A 
ATOM      5  C   UNL     1       7.706  -1.562   1.719  0.00  0.00    +0.041 A 
ATOM      6  C   UNL     1       6.509  -0.893   1.548  0.00  0.00    +0.062 A 
ATOM      7 BR   UNL     1       6.488   0.995   1.435  0.00  0.00    -0.046 Br
ATOM      8 BR   UNL     1       3.719  -3.962   1.424  0.00  0.00    -0.046 Br
ENDROOT
BRANCH   4   9
ATOM      9  N   UNL     1       8.935  -3.626   1.965  0.00  0.00    -0.358 N 
ATOM     10  H   UNL     1       8.946  -4.594   2.019  0.00  0.00    +0.142 HD
ATOM     11  H   UNL     1       9.765  -3.127   2.026  0.00  0.00    +0.142 HD
ENDBRANCH   4   9
BRANCH   1  12
ATOM     12  O   UNL     1       4.143  -0.947   1.303  0.00  0.00    -0.485 OA
BRANCH  12  13
ATOM     13  C   UNL     1       3.713  -0.707  -0.038  0.00  0.00    +0.267 C 
BRANCH  13  17
ATOM     14  C   UNL     1      -0.017   1.378   0.010  0.00  0.00    +0.003 A 
ATOM     15  C   UNL     1       1.171   2.086   0.002  0.00  0.00    +0.020 A 
ATOM     16  C   UNL     1       2.378   1.411  -0.013  0.00  0.00    +0.049 A 
ATOM     17  C   UNL     1       2.398   0.028  -0.021  0.00  0.00    +0.026 A 
ATOM     18  C   UNL     1       1.209  -0.680  -0.013  0.00  0.00    +0.049 A 
ATOM     19  C   UNL     1       0.002  -0.004   0.002  0.00  0.00    +0.020 A 
ATOM     20 CL   UNL     1       1.233  -2.416  -0.023  0.00  0.00    -0.083 Cl
ATOM     21 CL   UNL     1       3.869   2.300  -0.024  0.00  0.00    -0.083 Cl
ENDBRANCH  13  17
ENDBRANCH  12  13
ENDBRANCH   1  12
TORSDOF 4
