REMARK  Name = ZINC39691982
REMARK  10 active torsions:
REMARK  status: ('A' for Active; 'I' for Inactive)
REMARK    1  A    between atoms: C_1  and  C_2
REMARK    2  A    between atoms: C_4  and  C_32
REMARK    3  A    between atoms: C_8  and  C_12
REMARK    4  A    between atoms: C_12  and  S_13
REMARK    5  A    between atoms: S_13  and  C_14
REMARK    6  A    between atoms: N_24  and  C_25
REMARK    7  A    between atoms: C_25  and  C_26
REMARK    8  A    between atoms: C_26  and  C_27
REMARK    9  A    between atoms: C_27  and  C_28
REMARK   10  A    between atoms: C_27  and  C_29
REMARK                            x       y       z     vdW  Elec       q    Type
REMARK                         _______ _______ _______ _____ _____    ______ ____
ROOT
ATOM      1  C   UNL     1      -2.074  -4.954   6.806  0.00  0.00    +0.173 A 
ATOM      2  N   UNL     1      -0.865  -4.799   7.289  0.00  0.00    -0.223 NA
ATOM      3  C   UNL     1      -0.489  -5.376   8.454  0.00  0.00    +0.080 A 
ATOM      4  C   UNL     1       0.799  -5.212   8.970  0.00  0.00    +0.048 A 
ATOM      5  C   UNL     1       1.136  -5.819  10.160  0.00  0.00    +0.043 A 
ATOM      6  C   UNL     1       0.211  -6.592  10.853  0.00  0.00    +0.021 A 
ATOM      7  C   UNL     1      -1.055  -6.767  10.368  0.00  0.00    +0.017 A 
ATOM      8  C   UNL     1      -1.423  -6.164   9.165  0.00  0.00    +0.065 A 
ATOM      9  C   UNL     1      -2.770  -6.320   8.601  0.00  0.00    +0.262 A 
ATOM     10  O   UNL     1      -3.618  -6.986   9.167  0.00  0.00    -0.267 OA
ATOM     11  N   UNL     1      -3.036  -5.693   7.432  0.00  0.00    -0.287 N 
ATOM     12 CL   UNL     1       2.736  -5.616  10.803  0.00  0.00    -0.083 Cl
ENDROOT
BRANCH   1  13
ATOM     13  S   UNL     1      -2.477  -4.165   5.283  0.00  0.00    -0.080 S 
BRANCH  13  14
ATOM     14  C   UNL     1      -0.948  -3.312   4.811  0.00  0.00    +0.151 C 
BRANCH  14  21
ATOM     15  C   UNL     1      -0.019   1.526   0.010  0.00  0.00    +0.057 C 
ATOM     16  C   UNL     1       0.002  -0.004   0.002  0.00  0.00    +0.210 C 
ATOM     17  C   UNL     1      -1.411  -0.541   0.029  0.00  0.00    +0.098 C 
ATOM     18  C   UNL     1      -1.518  -1.277   1.161  0.00  0.00    +0.114 C 
ATOM     19  C   UNL     1      -0.225  -1.240   1.876  0.00  0.00    +0.230 C 
ATOM     20  N   UNL     1      -0.135  -1.907   3.013  0.00  0.00    -0.199 NA
ATOM     21  C   UNL     1      -1.158  -2.587   3.507  0.00  0.00    +0.136 C 
ATOM     22  N   UNL     1      -2.338  -2.679   2.948  0.00  0.00    -0.160 NA
ATOM     23  C   UNL     1      -2.613  -2.063   1.783  0.00  0.00    +0.275 C 
ATOM     24  O   UNL     1      -3.711  -2.147   1.263  0.00  0.00    -0.268 OA
ATOM     25  O   UNL     1       0.649  -0.492   1.181  0.00  0.00    -0.468 OA
BRANCH  17  26
ATOM     26  C   UNL     1      -2.470  -0.309  -0.983  0.00  0.00    +0.387 C 
ATOM     27  O   UNL     1      -3.576  -0.806  -0.835  0.00  0.00    -0.241 OA
ATOM     28  O   UNL     1      -2.237   0.381  -1.964  0.00  0.00    -0.241 OA
ENDBRANCH  17  26
ENDBRANCH  14  21
ENDBRANCH  13  14
ENDBRANCH   1  13
BRANCH  11  29
ATOM     29  C   UNL     1      -4.367  -5.812   6.830  0.00  0.00    +0.127 C 
BRANCH  29  30
ATOM     30  C   UNL     1      -4.398  -7.026   5.899  0.00  0.00    +0.025 C 
BRANCH  30  31
ATOM     31  C   UNL     1      -5.787  -7.151   5.270  0.00  0.00    -0.016 C 
ATOM     32  C   UNL     1      -5.784  -8.288   4.246  0.00  0.00    +0.007 C 
ATOM     33  C   UNL     1      -6.816  -7.451   6.362  0.00  0.00    +0.007 C 
ENDBRANCH  30  31
ENDBRANCH  29  30
ENDBRANCH  11  29
TORSDOF 7
