REMARK  Name = ZINC09336304
REMARK  5 active torsions:
REMARK  status: ('A' for Active; 'I' for Inactive)
REMARK    1  A    between atoms: C_4  and  C_7
REMARK    2  A    between atoms: C_12  and  N_22
REMARK    3  A    between atoms: C_14  and  C_16
REMARK    4  A    between atoms: C_27  and  C_28
REMARK    5  A    between atoms: C_27  and  N_66
REMARK                            x       y       z     vdW  Elec       q    Type
REMARK                         _______ _______ _______ _____ _____    ______ ____
ROOT
ATOM      1  C   UNL     1       1.710   4.771   0.771  0.00  0.00    +0.002 A 
ATOM      2  C   UNL     1       2.064   5.448   1.889  0.00  0.00    +0.056 A 
ATOM      3  S   UNL     1       3.634   6.173   1.458  0.00  0.00    -0.076 S 
ATOM      4  C   UNL     1       3.782   5.558  -0.199  0.00  0.00    +0.115 A 
ATOM      5  C   UNL     1       2.608   4.795  -0.378  0.00  0.00    +0.055 A 
ATOM      6  C   UNL     1       2.464   4.180  -1.652  0.00  0.00    +0.134 A 
ATOM      7  N   UNL     1       3.411   4.343  -2.559  0.00  0.00    -0.210 NA
ATOM      8  C   UNL     1       4.497   5.071  -2.322  0.00  0.00    +0.181 A 
ATOM      9  N   UNL     1       4.681   5.672  -1.154  0.00  0.00    -0.219 NA
ENDROOT
BRANCH   6  10
ATOM     10  N   UNL     1       1.347   3.415  -1.937  0.00  0.00    -0.318 N 
ATOM     11  C   UNL     1       1.686   1.985  -1.982  0.00  0.00    +0.088 C 
ATOM     12  C   UNL     1       0.414   1.169  -2.219  0.00  0.00    -0.059 C 
ATOM     13  C   UNL     1      -0.552   3.028  -3.433  0.00  0.00    -0.059 C 
ATOM     14  C   UNL     1       0.721   3.844  -3.195  0.00  0.00    +0.088 C 
ATOM     15  N   UNL     1      -0.194   1.595  -3.498  0.00  0.00    +0.387 N 
ATOM     16  H   UNL     1       0.487   1.455  -4.254  0.00  0.00    -0.081 HD
BRANCH  15  17
ATOM     17  C   UNL     1      -1.398   0.786  -3.780  0.00  0.00    +0.019 C 
BRANCH  17  18
ATOM     18  C   UNL     1      -1.913   1.139  -5.151  0.00  0.00    +0.199 C 
ATOM     19  O   UNL     1      -1.287   1.902  -5.856  0.00  0.00    -0.278 OA
ATOM     20  N   UNL     1      -3.069   0.607  -5.595  0.00  0.00    -0.303 N 
ATOM     21  C   UNL     1      -3.836  -0.324  -4.755  0.00  0.00    +0.107 C 
ATOM     22  C   UNL     1      -5.277   0.197  -4.639  0.00  0.00    +0.019 C 
ATOM     23  C   UNL     1      -5.855   0.399  -6.041  0.00  0.00    +0.003 C 
ATOM     24  C   UNL     1      -5.025   1.443  -6.791  0.00  0.00    +0.019 C 
ATOM     25  C   UNL     1      -3.584   0.941  -6.930  0.00  0.00    +0.107 C 
ENDBRANCH  17  18
ENDBRANCH  15  17
ENDBRANCH   6  10
BRANCH   1  29
ATOM     26  C   UNL     1      -1.940   2.596   0.621  0.00  0.00    +0.000 A 
ATOM     27  C   UNL     1      -1.678   3.571  -0.326  0.00  0.00    +0.001 A 
ATOM     28  C   UNL     1      -0.495   4.280  -0.282  0.00  0.00    +0.008 A 
ATOM     29  C   UNL     1       0.438   4.013   0.719  0.00  0.00    -0.017 A 
ATOM     30  C   UNL     1       0.169   3.030   1.671  0.00  0.00    +0.008 A 
ATOM     31  C   UNL     1      -1.018   2.327   1.617  0.00  0.00    +0.001 A 
ENDBRANCH   1  29
BRANCH   8  32
ATOM     32  C   UNL     1       5.523   5.214  -3.384  0.00  0.00    +0.108 A 
ATOM     33  C   UNL     1       6.665   5.976  -3.143  0.00  0.00    +0.031 A 
ATOM     34  C   UNL     1       7.614   6.100  -4.144  0.00  0.00    +0.004 A 
ATOM     35  C   UNL     1       7.389   5.458  -5.353  0.00  0.00    +0.020 A 
ATOM     36  C   UNL     1       6.233   4.718  -5.523  0.00  0.00    +0.111 A 
ATOM     37  N   UNL     1       5.349   4.611  -4.553  0.00  0.00    -0.252 NA
ENDBRANCH   8  32
TORSDOF 5
