REMARK  Name = ZINC09742194
REMARK  5 active torsions:
REMARK  status: ('A' for Active; 'I' for Inactive)
REMARK    1  A    between atoms: C_1  and  C_2
REMARK    2  A    between atoms: C_2  and  C_28
REMARK    3  A    between atoms: N_5  and  C_9
REMARK    4  A    between atoms: C_9  and  C_10
REMARK    5  A    between atoms: C_17  and  C_19
REMARK                            x       y       z     vdW  Elec       q    Type
REMARK                         _______ _______ _______ _____ _____    ______ ____
ROOT
ATOM      1  C   UNL     1       0.596   6.222  -1.428  0.00  0.00    +0.047 C 
ATOM      2  C   UNL     1       0.376   5.600  -0.047  0.00  0.00    +0.135 C 
ATOM      3  C   UNL     1       0.139   6.676   0.994  0.00  0.00    +0.251 C 
ATOM      4  O   UNL     1       0.902   7.559   1.322  0.00  0.00    -0.272 OA
ATOM      5  N   UNL     1      -1.097   6.446   1.480  0.00  0.00    -0.215 N 
ATOM      6  C   UNL     1      -1.667   5.386   0.897  0.00  0.00    +0.310 C 
ATOM      7  O   UNL     1      -2.781   4.982   1.170  0.00  0.00    -0.252 OA
ATOM      8  N   UNL     1      -0.870   4.815  -0.024  0.00  0.00    -0.281 N 
ATOM      9  H   UNL     1      -1.076   4.039  -0.568  0.00  0.00    +0.152 HD
ENDROOT
BRANCH   2  10
ATOM     10  C   UNL     1       1.552   4.739   0.338  0.00  0.00    -0.015 A 
ATOM     11  C   UNL     1       2.633   5.313   1.005  0.00  0.00    +0.007 A 
ATOM     12  C   UNL     1       3.710   4.564   1.367  0.00  0.00    +0.009 A 
ATOM     13  C   UNL     1       3.736   3.192   1.065  0.00  0.00    -0.018 A 
ATOM     14  C   UNL     1       4.830   2.386   1.423  0.00  0.00    +0.008 A 
ATOM     15  C   UNL     1       4.821   1.061   1.114  0.00  0.00    +0.001 A 
ATOM     16  C   UNL     1       3.740   0.487   0.447  0.00  0.00    +0.001 A 
ATOM     17  C   UNL     1       2.662   1.236   0.085  0.00  0.00    +0.008 A 
ATOM     18  C   UNL     1       2.636   2.609   0.387  0.00  0.00    -0.018 A 
ATOM     19  C   UNL     1       1.544   3.415   0.025  0.00  0.00    +0.014 A 
ENDBRANCH   2  10
BRANCH   5  20
ATOM     20  C   UNL     1      -1.736   7.257   2.520  0.00  0.00    +0.213 C 
BRANCH  20  21
ATOM     21  C   UNL     1      -1.405   6.688   3.875  0.00  0.00    +0.234 C 
ATOM     22  O   UNL     1      -0.703   5.703   3.965  0.00  0.00    -0.274 OA
ATOM     23  N   UNL     1      -1.887   7.275   4.989  0.00  0.00    -0.291 N 
ATOM     24  C   UNL     1      -2.632   8.539   4.906  0.00  0.00    +0.108 C 
ATOM     25  C   UNL     1      -3.979   8.364   5.614  0.00  0.00    +0.019 C 
ATOM     26  C   UNL     1      -3.740   7.867   7.042  0.00  0.00    +0.004 C 
ATOM     27  C   UNL     1      -3.037   6.509   7.000  0.00  0.00    +0.029 C 
ATOM     28  C   UNL     1      -1.684   6.660   6.307  0.00  0.00    +0.132 C 
BRANCH  28  29
ATOM     29  C   UNL     1      -1.050   5.303   6.139  0.00  0.00    +0.100 A 
ATOM     30  N   UNL     1       0.158   4.930   6.455  0.00  0.00    -0.242 NA
ATOM     31  C   UNL     1       0.605   3.673   6.251  0.00  0.00    +0.079 A 
ATOM     32  C   UNL     1       1.874   3.122   6.537  0.00  0.00    +0.029 A 
ATOM     33  C   UNL     1       2.144   1.818   6.257  0.00  0.00    +0.002 A 
ATOM     34  C   UNL     1       1.194   0.984   5.685  0.00  0.00    +0.001 A 
ATOM     35  C   UNL     1      -0.060   1.486   5.389  0.00  0.00    +0.017 A 
ATOM     36  C   UNL     1      -0.343   2.801   5.668  0.00  0.00    +0.039 A 
ATOM     37  S   UNL     1      -1.757   3.858   5.485  0.00  0.00    -0.070 S 
ENDBRANCH  28  29
ENDBRANCH  20  21
ENDBRANCH   5  20
TORSDOF 4
