REMARK  Name = ZINC39363265
REMARK  8 active torsions:
REMARK  status: ('A' for Active; 'I' for Inactive)
REMARK    1  A    between atoms: C_1  and  C_2
REMARK    2  A    between atoms: C_4  and  C_8
REMARK    3  A    between atoms: N_10  and  C_11
REMARK    4  A    between atoms: N_21  and  C_22
REMARK    5  A    between atoms: C_25  and  C_28
REMARK    6  A    between atoms: C_28  and  C_29
REMARK    7  A    between atoms: C_28  and  C_30
REMARK    8  A    between atoms: C_28  and  C_31
REMARK                            x       y       z     vdW  Elec       q    Type
REMARK                         _______ _______ _______ _____ _____    ______ ____
ROOT
ATOM      1  C   UNL     1      -1.015   0.562  -4.348  0.00  0.00    +0.103 C 
ATOM      2  C   UNL     1      -1.904  -0.607  -4.804  0.00  0.00    +0.027 C 
ATOM      3  C   UNL     1      -2.452  -0.334  -6.204  0.00  0.00    +0.004 C 
ATOM      4  C   UNL     1      -3.367   0.895  -6.209  0.00  0.00    +0.029 C 
ATOM      5  C   UNL     1      -2.527   2.127  -5.867  0.00  0.00    +0.123 C 
ATOM      6  C   UNL     1      -1.817   1.825  -4.555  0.00  0.00    -0.013 C 
ATOM      7  C   UNL     1      -2.064   2.808  -3.733  0.00  0.00    +0.091 C 
ATOM      8  N   UNL     1      -2.923   3.738  -4.295  0.00  0.00    -0.271 N 
ATOM      9  N   UNL     1      -3.360   3.297  -5.574  0.00  0.00    -0.246 N 
ATOM     10  H   UNL     1      -3.188   4.573  -3.877  0.00  0.00    +0.169 HD
ENDROOT
BRANCH   9  11
ATOM     11  C   UNL     1      -4.359   3.848  -6.380  0.00  0.00    +0.048 A 
ATOM     12  C   UNL     1      -5.170   4.863  -5.888  0.00  0.00    +0.025 A 
ATOM     13  C   UNL     1      -6.156   5.406  -6.688  0.00  0.00    +0.006 A 
ATOM     14  C   UNL     1      -6.337   4.940  -7.977  0.00  0.00    -0.042 A 
ATOM     15  C   UNL     1      -5.532   3.929  -8.470  0.00  0.00    +0.006 A 
ATOM     16  C   UNL     1      -4.540   3.386  -7.678  0.00  0.00    +0.025 A 
BRANCH  14  17
ATOM     17  C   UNL     1      -7.414   5.535  -8.847  0.00  0.00    -0.013 C 
ATOM     18  C   UNL     1      -7.156   7.032  -9.027  0.00  0.00    +0.015 C 
ATOM     19  C   UNL     1      -7.403   4.847 -10.214  0.00  0.00    +0.015 C 
ATOM     20  C   UNL     1      -8.777   5.328  -8.184  0.00  0.00    +0.015 C 
ENDBRANCH  14  17
ENDBRANCH   9  11
BRANCH   1  23
ATOM     21  C   UNL     1       0.392  -0.330  -2.571  0.00  0.00    +0.244 C 
ATOM     22  O   UNL     1       1.072  -0.872  -3.421  0.00  0.00    -0.270 OA
ATOM     23  N   UNL     1      -0.674   0.411  -2.932  0.00  0.00    -0.305 N 
ATOM     24  H   UNL     1      -1.217   0.843  -2.254  0.00  0.00    +0.150 HD
BRANCH  21  27
ATOM     25  C   UNL     1       0.047   1.636   0.005  0.00  0.00    +0.040 C 
ATOM     26  C   UNL     1       0.020   0.107   0.055  0.00  0.00    +0.161 C 
ATOM     27  C   UNL     1       0.734  -0.482  -1.149  0.00  0.00    +0.060 C 
ATOM     28  C   UNL     1       1.756  -1.180  -0.606  0.00  0.00    +0.145 C 
ATOM     29  N   UNL     1       1.735  -1.078   0.742  0.00  0.00    -0.161 NA
ATOM     30  N   UNL     1       0.812  -0.390   1.193  0.00  0.00    -0.180 NA
ENDBRANCH  21  27
ENDBRANCH   1  23
TORSDOF 4
