REMARK  Name = ZINC22196813
REMARK  9 active torsions:
REMARK  status: ('A' for Active; 'I' for Inactive)
REMARK    1  A    between atoms: C_1  and  C_2
REMARK    2  A    between atoms: C_6  and  C_15
REMARK    3  A    between atoms: N_17  and  C_18
REMARK    4  A    between atoms: C_20  and  S_25
REMARK    5  A    between atoms: C_23  and  O_24
REMARK    6  A    between atoms: S_25  and  N_28
REMARK    7  A    between atoms: N_28  and  C_29
REMARK    8  A    between atoms: C_34  and  O_35
REMARK    9  A    between atoms: O_35  and  C_36
REMARK                            x       y       z     vdW  Elec       q    Type
REMARK                         _______ _______ _______ _____ _____    ______ ____
ROOT
ATOM      1  C   UNL     1       2.429  -5.670  -0.524  0.00  0.00    +0.077 A 
ATOM      2  C   UNL     1       1.601  -6.438   0.280  0.00  0.00    +0.055 A 
ATOM      3  C   UNL     1       1.813  -7.800   0.389  0.00  0.00    +0.110 A 
ATOM      4  C   UNL     1       2.859  -8.396  -0.291  0.00  0.00    +0.032 A 
ATOM      5  C   UNL     1       3.692  -7.636  -1.090  0.00  0.00    +0.049 A 
ATOM      6  C   UNL     1       3.482  -6.271  -1.210  0.00  0.00    +0.138 A 
ENDROOT
BRANCH   1   9
ATOM      7  C   UNL     1       0.957  -3.800  -0.600  0.00  0.00    +0.260 C 
ATOM      8  O   UNL     1       0.024  -4.541  -0.373  0.00  0.00    -0.271 OA
ATOM      9  N   UNL     1       2.212  -4.290  -0.642  0.00  0.00    -0.279 N 
ATOM     10  H   UNL     1       3.065  -3.608  -0.768  0.00  0.00    +0.155 HD
BRANCH   7  16
ATOM     11  C   UNL     1       3.318   0.500   0.820  0.00  0.00    +0.109 C 
ATOM     12  C   UNL     1       1.975   0.859   0.236  0.00  0.00    +0.217 C 
ATOM     13  O   UNL     1       1.734   2.008  -0.069  0.00  0.00    -0.276 OA
ATOM     14  N   UNL     1       1.043  -0.097   0.053  0.00  0.00    -0.264 N 
ATOM     15  C   UNL     1       1.348  -1.516   0.300  0.00  0.00    +0.168 C 
ATOM     16  C   UNL     1       0.713  -2.332  -0.835  0.00  0.00    +0.276 C 
ATOM     17  O   UNL     1      -0.693  -2.077  -0.856  0.00  0.00    -0.476 OA
ATOM     18  C   UNL     1      -1.102  -0.781  -0.834  0.00  0.00    +0.143 A 
ATOM     19  C   UNL     1      -0.254   0.227  -0.381  0.00  0.00    +0.078 A 
ATOM     20  C   UNL     1      -0.686   1.542  -0.358  0.00  0.00    +0.027 A 
ATOM     21  C   UNL     1      -1.962   1.856  -0.790  0.00  0.00    +0.002 A 
ATOM     22  C   UNL     1      -2.805   0.858  -1.243  0.00  0.00    +0.004 A 
ATOM     23  C   UNL     1      -2.379  -0.457  -1.266  0.00  0.00    +0.047 A 
ENDBRANCH   7  16
ENDBRANCH   1   9
BRANCH   3  24
ATOM     24  S   UNL     1       0.754  -8.776   1.404  0.00  0.00    +0.073 S 
ATOM     25  O   UNL     1      -0.477  -8.072   1.501  0.00  0.00    -0.150 OA
ATOM     26  O   UNL     1       0.834 -10.107   0.912  0.00  0.00    -0.150 OA
BRANCH  24  27
ATOM     27  N   UNL     1       1.411  -8.792   2.924  0.00  0.00    -0.213 N 
ATOM     28  H   UNL     1       1.721  -9.745   3.379  0.00  0.00    +0.174 HD
BRANCH  27  29
ATOM     29  C   UNL     1       1.571  -7.595   3.630  0.00  0.00    +0.090 A 
ATOM     30  C   UNL     1       0.632  -6.582   3.504  0.00  0.00    +0.028 A 
ATOM     31  C   UNL     1       0.790  -5.402   4.207  0.00  0.00    +0.002 A 
ATOM     32  C   UNL     1       1.888  -5.224   5.027  0.00  0.00    +0.004 A 
ATOM     33  C   UNL     1       2.832  -6.227   5.153  0.00  0.00    +0.047 A 
ATOM     34  C   UNL     1       2.678  -7.414   4.457  0.00  0.00    +0.142 A 
BRANCH  34  35
ATOM     35  O   UNL     1       3.605  -8.402   4.580  0.00  0.00    -0.493 OA
ATOM     36  C   UNL     1       4.713  -8.147   5.446  0.00  0.00    +0.277 C 
ENDBRANCH  34  35
ENDBRANCH  27  29
ENDBRANCH  24  27
ENDBRANCH   3  24
BRANCH   6  37
ATOM     37  O   UNL     1       4.301  -5.522  -1.995  0.00  0.00    -0.505 OA
ATOM     38  H   UNL     1       5.132  -5.999  -2.536  0.00  0.00    +0.292 HD
ENDBRANCH   6  37
TORSDOF 7
