REMARK  Name = ZINC36828463
REMARK  6 active torsions:
REMARK  status: ('A' for Active; 'I' for Inactive)
REMARK    1  A    between atoms: C_1  and  S_2
REMARK    2  A    between atoms: S_2  and  N_5
REMARK    3  A    between atoms: C_8  and  N_11
REMARK    4  A    between atoms: N_11  and  C_12
REMARK    5  A    between atoms: C_12  and  C_13
REMARK    6  A    between atoms: C_18  and  O_19
REMARK                            x       y       z     vdW  Elec       q    Type
REMARK                         _______ _______ _______ _____ _____    ______ ____
ROOT
ATOM      1  N   UNL     1       2.260  -3.397  -3.953  0.00  0.00    +0.384 N 
ATOM      2  H   UNL     1       1.996  -4.131  -3.313  0.00  0.00    -0.085 HD
ATOM      3  H   UNL     1       1.763  -3.515  -4.823  0.00  0.00    -0.085 HD
ENDROOT
BRANCH   1   7
ATOM      4  N   UNL     1       0.795  -0.411  -1.394  0.00  0.00    -0.182 NA
ATOM      5  C   UNL     1       0.053  -0.601  -2.648  0.00  0.00    +0.107 C 
ATOM      6  C   UNL     1       0.403  -1.976  -3.225  0.00  0.00    +0.001 C 
ATOM      7  C   UNL     1       1.922  -2.092  -3.369  0.00  0.00    -0.069 C 
ATOM      8  C   UNL     1       2.579  -1.965  -1.993  0.00  0.00    +0.001 C 
ATOM      9  C   UNL     1       2.254  -0.584  -1.403  0.00  0.00    +0.107 C 
BRANCH   4  11
ATOM     10  C   UNL     1      -0.022   1.810   0.012  0.00  0.00    +0.215 C 
ATOM     11  S   UNL     1       0.002  -0.004   0.002  0.00  0.00    +0.029 S 
ATOM     12  O   UNL     1       0.835  -0.488   1.046  0.00  0.00    -0.158 OA
ATOM     13  O   UNL     1      -1.315  -0.510  -0.168  0.00  0.00    -0.158 OA
ENDBRANCH   4  11
ENDBRANCH   1   7
BRANCH   1  14
ATOM     14  C   UNL     1       3.706  -3.463  -4.203  0.00  0.00    -0.043 C 
BRANCH  14  15
ATOM     15  C   UNL     1       4.052  -4.801  -4.802  0.00  0.00    -0.020 A 
ATOM     16  C   UNL     1       4.573  -5.802  -4.004  0.00  0.00    +0.025 A 
ATOM     17  C   UNL     1       4.891  -7.031  -4.553  0.00  0.00    +0.043 A 
ATOM     18  C   UNL     1       4.690  -7.262  -5.902  0.00  0.00    +0.043 A 
ATOM     19  C   UNL     1       4.170  -6.264  -6.704  0.00  0.00    +0.084 A 
ATOM     20  C   UNL     1       3.844  -5.032  -6.153  0.00  0.00    +0.136 A 
ATOM     21 CL   UNL     1       3.918  -6.552  -8.398  0.00  0.00    -0.080 Cl
ATOM     22 CL   UNL     1       5.545  -8.287  -3.547  0.00  0.00    -0.083 Cl
BRANCH  20  23
ATOM     23  O   UNL     1       3.327  -4.050  -6.939  0.00  0.00    -0.505 OA
ATOM     24  H   UNL     1       3.993  -3.476  -7.342  0.00  0.00    +0.292 HD
ENDBRANCH  20  23
ENDBRANCH  14  15
ENDBRANCH   1  14
TORSDOF 5
