REMARK  Name = ZINC10000451
REMARK  10 active torsions:
REMARK  status: ('A' for Active; 'I' for Inactive)
REMARK    1  A    between atoms: C_1  and  C_2
REMARK    2  A    between atoms: C_2  and  C_3
REMARK    3  A    between atoms: C_2  and  C_4
REMARK    4  A    between atoms: C_4  and  C_6
REMARK    5  A    between atoms: C_4  and  N_28
REMARK    6  A    between atoms: N_8  and  N_9
REMARK    7  A    between atoms: C_10  and  C_11
REMARK    8  A    between atoms: N_13  and  C_20
REMARK    9  A    between atoms: C_20  and  C_21
REMARK   10  A    between atoms: C_29  and  C_31
REMARK                            x       y       z     vdW  Elec       q    Type
REMARK                         _______ _______ _______ _____ _____    ______ ____
ROOT
ATOM      1  C   UNL     1       3.185   1.224   2.086  0.00  0.00    +0.253 C 
ATOM      2  O   UNL     1       2.562   2.167   2.527  0.00  0.00    -0.272 OA
ATOM      3  N   UNL     1       4.516   1.323   1.902  0.00  0.00    -0.205 N 
ATOM      4  H   UNL     1       5.022   0.553   1.598  0.00  0.00    +0.177 HD
ENDROOT
BRANCH   3   5
ATOM      5  N   UNL     1       5.170   2.537   2.150  0.00  0.00    -0.188 NA
ATOM      6  C   UNL     1       6.431   2.664   1.869  0.00  0.00    +0.140 C 
BRANCH   6   7
ATOM      7  C   UNL     1       7.114   1.637   1.066  0.00  0.00    +0.020 A 
ATOM      8  C   UNL     1       6.544   0.814   0.145  0.00  0.00    +0.096 A 
ATOM      9  N   UNL     1       7.495  -0.002  -0.393  0.00  0.00    -0.342 N 
ATOM     10  C   UNL     1       8.726   0.267   0.166  0.00  0.00    +0.050 A 
ATOM     11  C   UNL     1       8.549   1.305   1.097  0.00  0.00    +0.009 A 
ATOM     12  C   UNL     1       9.637   1.782   1.825  0.00  0.00    +0.010 A 
ATOM     13  C   UNL     1      10.886   1.239   1.620  0.00  0.00    +0.001 A 
ATOM     14  C   UNL     1      11.063   0.218   0.697  0.00  0.00    +0.002 A 
ATOM     15  C   UNL     1       9.996  -0.268  -0.026  0.00  0.00    +0.026 A 
BRANCH   9  16
ATOM     16  C   UNL     1       7.244  -1.018  -1.417  0.00  0.00    +0.157 C 
BRANCH  16  17
ATOM     17  C   UNL     1       7.029  -2.356  -0.756  0.00  0.00    -0.028 A 
ATOM     18  C   UNL     1       8.104  -3.193  -0.525  0.00  0.00    +0.007 A 
ATOM     19  C   UNL     1       7.907  -4.417   0.086  0.00  0.00    +0.020 A 
ATOM     20  C   UNL     1       6.633  -4.809   0.456  0.00  0.00    +0.041 A 
ATOM     21  C   UNL     1       5.557  -3.972   0.219  0.00  0.00    +0.020 A 
ATOM     22  C   UNL     1       5.755  -2.746  -0.387  0.00  0.00    +0.007 A 
ATOM     23 CL   UNL     1       6.385  -6.349   1.218  0.00  0.00    -0.084 Cl
ENDBRANCH  16  17
ENDBRANCH   9  16
ENDBRANCH   6   7
ENDBRANCH   3   5
BRANCH   1  24
ATOM     24  C   UNL     1       2.469  -0.057   1.743  0.00  0.00    +0.163 C 
BRANCH  24  25
ATOM     25  N   UNL     1       1.244  -0.160   2.540  0.00  0.00    -0.300 N 
ATOM     26  C   UNL     1       0.711  -1.370   2.802  0.00  0.00    +0.246 C 
ATOM     27  O   UNL     1       1.247  -2.375   2.378  0.00  0.00    -0.270 OA
ATOM     28  H   UNL     1       0.817   0.642   2.878  0.00  0.00    +0.150 HD
BRANCH  26  29
ATOM     29  C   UNL     1      -0.528  -1.474   3.600  0.00  0.00    +0.055 A 
ATOM     30  C   UNL     1      -1.143  -0.322   4.094  0.00  0.00    +0.014 A 
ATOM     31  C   UNL     1      -2.303  -0.425   4.833  0.00  0.00    +0.001 A 
ATOM     32  C   UNL     1      -2.851  -1.669   5.097  0.00  0.00    +0.001 A 
ATOM     33  C   UNL     1      -2.246  -2.815   4.616  0.00  0.00    +0.021 A 
ATOM     34  C   UNL     1      -1.087  -2.726   3.869  0.00  0.00    +0.053 A 
ATOM     35 CL   UNL     1      -0.327  -4.166   3.267  0.00  0.00    -0.083 Cl
ENDBRANCH  26  29
ENDBRANCH  24  25
BRANCH  24  37
ATOM     36  C   UNL     1       3.394   0.011  -0.577  0.00  0.00    +0.009 C 
ATOM     37  C   UNL     1       2.112  -0.059   0.255  0.00  0.00    +0.012 C 
ATOM     38  C   UNL     1       1.353  -1.343  -0.085  0.00  0.00    +0.009 C 
ENDBRANCH  24  37
ENDBRANCH   1  24
TORSDOF 8
