REMARK  Name = ZINC36575624
REMARK  7 active torsions:
REMARK  status: ('A' for Active; 'I' for Inactive)
REMARK    1  A    between atoms: C_1  and  O_2
REMARK    2  A    between atoms: O_2  and  C_3
REMARK    3  A    between atoms: C_3  and  C_5
REMARK    4  A    between atoms: C_5  and  C_7
REMARK    5  A    between atoms: C_5  and  N_14
REMARK    6  A    between atoms: C_7  and  C_8
REMARK    7  A    between atoms: C_26  and  C_28
REMARK                            x       y       z     vdW  Elec       q    Type
REMARK                         _______ _______ _______ _____ _____    ______ ____
ROOT
ATOM      1  N   UNL     1      -2.731  -2.432  -2.728  0.00  0.00    -0.286 N 
ATOM      2  C   UNL     1      -3.179  -2.607  -1.469  0.00  0.00    +0.304 C 
ATOM      3  O   UNL     1      -2.408  -2.525  -0.533  0.00  0.00    -0.253 OA
ATOM      4  N   UNL     1      -4.481  -2.872  -1.248  0.00  0.00    -0.273 N 
ATOM      5  C   UNL     1      -5.011  -2.956   0.121  0.00  0.00    +0.116 C 
ATOM      6  C   UNL     1      -5.500  -4.387   0.383  0.00  0.00    +0.074 C 
ATOM      7  C   UNL     1      -6.300  -4.851  -0.806  0.00  0.00    +0.040 A 
ATOM      8  C   UNL     1      -6.263  -4.284  -2.030  0.00  0.00    +0.062 A 
ATOM      9  N   UNL     1      -7.093  -4.960  -2.827  0.00  0.00    -0.348 N 
ATOM     10  C   UNL     1      -7.649  -5.927  -2.144  0.00  0.00    +0.171 A 
ATOM     11  N   UNL     1      -7.179  -5.890  -0.876  0.00  0.00    -0.349 N 
ATOM     12  H   UNL     1      -7.422  -6.490  -0.153  0.00  0.00    +0.166 HD
ATOM     13  C   UNL     1      -5.411  -3.080  -2.373  0.00  0.00    +0.159 C 
ATOM     14  H   UNL     1      -3.331  -2.562  -3.479  0.00  0.00    +0.151 HD
ATOM     15  H   UNL     1      -7.257  -4.766  -3.763  0.00  0.00    +0.167 HD
ENDROOT
BRANCH  13  16
ATOM     16  C   UNL     1      -6.283  -1.863  -2.549  0.00  0.00    +0.017 A 
ATOM     17  C   UNL     1      -7.627  -2.012  -2.838  0.00  0.00    +0.009 A 
ATOM     18  C   UNL     1      -8.428  -0.897  -2.999  0.00  0.00    +0.003 A 
ATOM     19  C   UNL     1      -7.887   0.369  -2.871  0.00  0.00    +0.041 A 
ATOM     20  C   UNL     1      -6.543   0.521  -2.582  0.00  0.00    +0.159 A 
ATOM     21  C   UNL     1      -5.740  -0.598  -2.415  0.00  0.00    +0.164 A 
ATOM     22  F   UNL     1      -4.428  -0.452  -2.127  0.00  0.00    -0.202 F 
ATOM     23  F   UNL     1      -6.014   1.758  -2.457  0.00  0.00    -0.202 F 
ENDBRANCH  13  16
BRANCH   1  24
ATOM     24  C   UNL     1      -1.338  -2.045  -2.963  0.00  0.00    +0.187 C 
BRANCH  24  25
ATOM     25  C   UNL     1      -0.470  -3.277  -2.980  0.00  0.00    +0.328 C 
ATOM     26  O   UNL     1      -0.965  -4.366  -2.813  0.00  0.00    -0.249 OA
BRANCH  25  28
ATOM     27  C   UNL     1       1.614  -4.373  -3.184  0.00  0.00    +0.280 C 
ATOM     28  O   UNL     1       0.852  -3.164  -3.180  0.00  0.00    -0.467 OA
ENDBRANCH  25  28
ENDBRANCH  24  25
BRANCH  24  29
ATOM     29  C   UNL     1      -1.228  -1.325  -4.309  0.00  0.00    +0.069 C 
BRANCH  29  30
ATOM     30  C   UNL     1      -1.997  -0.031  -4.251  0.00  0.00    -0.045 A 
ATOM     31  C   UNL     1      -3.334  -0.004  -4.602  0.00  0.00    +0.004 A 
ATOM     32  C   UNL     1      -4.039   1.183  -4.548  0.00  0.00    +0.000 A 
ATOM     33  C   UNL     1      -3.408   2.345  -4.144  0.00  0.00    +0.000 A 
ATOM     34  C   UNL     1      -2.071   2.318  -3.792  0.00  0.00    +0.000 A 
ATOM     35  C   UNL     1      -1.367   1.130  -3.841  0.00  0.00    +0.004 A 
ENDBRANCH  29  30
ENDBRANCH  24  29
ENDBRANCH   1  24
TORSDOF 6
