REMARK  Name = ZINC40008933
REMARK  19 active torsions:
REMARK  status: ('A' for Active; 'I' for Inactive)
REMARK    1  A    between atoms: C_1  and  C_2
REMARK    2  A    between atoms: C_2  and  C_3
REMARK    3  A    between atoms: C_3  and  C_4
REMARK    4  A    between atoms: C_4  and  N_5
REMARK    5  A    between atoms: N_5  and  C_6
REMARK    6  A    between atoms: N_5  and  C_10
REMARK    7  A    between atoms: C_6  and  C_7
REMARK    8  A    between atoms: C_7  and  C_8
REMARK    9  A    between atoms: C_8  and  C_9
REMARK   10  A    between atoms: C_10  and  C_11
REMARK   11  A    between atoms: C_11  and  C_12
REMARK   12  A    between atoms: C_12  and  N_13
REMARK   13  A    between atoms: C_14  and  C_31
REMARK   14  A    between atoms: C_21  and  C_30
REMARK   15  A    between atoms: C_22  and  C_29
REMARK   16  A    between atoms: C_34  and  O_39
REMARK   17  A    between atoms: C_35  and  O_37
REMARK   18  A    between atoms: O_37  and  C_38
REMARK   19  A    between atoms: O_39  and  C_40
REMARK                            x       y       z     vdW  Elec       q    Type
REMARK                         _______ _______ _______ _____ _____    ______ ____
ROOT
ATOM      1  N   UNL     1      -5.729  -6.638   0.103  0.00  0.00    -0.284 N 
ATOM      2  C   UNL     1      -6.686  -6.786   1.212  0.00  0.00    +0.145 C 
ATOM      3  C   UNL     1      -7.943  -7.311   0.598  0.00  0.00    +0.072 A 
ATOM      4  C   UNL     1      -9.235  -7.665   1.194  0.00  0.00    +0.199 A 
ATOM      5  O   UNL     1      -9.531  -7.404   2.347  0.00  0.00    -0.287 OA
ATOM      6  C   UNL     1     -10.148  -8.370   0.260  0.00  0.00    +0.065 A 
ATOM      7  C   UNL     1     -11.329  -8.947   0.726  0.00  0.00    +0.019 A 
ATOM      8  C   UNL     1     -12.156  -9.598  -0.146  0.00  0.00    -0.047 A 
ATOM      9  C   UNL     1     -11.823  -9.686  -1.491  0.00  0.00    -0.044 A 
ATOM     10  C   UNL     1     -10.662  -9.121  -1.969  0.00  0.00    +0.050 A 
ATOM     11  C   UNL     1      -9.803  -8.449  -1.099  0.00  0.00    +0.140 A 
ATOM     12  O   UNL     1      -8.673  -7.893  -1.592  0.00  0.00    -0.450 OA
ATOM     13  C   UNL     1      -7.726  -7.445  -0.744  0.00  0.00    +0.199 A 
ATOM     14  C   UNL     1      -6.345  -7.020  -1.034  0.00  0.00    +0.283 C 
ATOM     15  O   UNL     1      -5.836  -7.016  -2.137  0.00  0.00    -0.267 OA
ATOM     16  C   UNL     1     -12.744 -10.409  -2.439  0.00  0.00    +0.044 C 
ATOM     17  C   UNL     1     -13.433 -10.223   0.354  0.00  0.00    +0.044 C 
ENDROOT
BRANCH   2  18
ATOM     18  C   UNL     1      -6.156  -7.763   2.229  0.00  0.00    -0.019 A 
ATOM     19  C   UNL     1      -5.498  -8.905   1.811  0.00  0.00    +0.009 A 
ATOM     20  C   UNL     1      -5.010  -9.805   2.740  0.00  0.00    +0.050 A 
ATOM     21  C   UNL     1      -5.178  -9.562   4.094  0.00  0.00    +0.162 A 
ATOM     22  C   UNL     1      -5.840  -8.413   4.515  0.00  0.00    +0.162 A 
ATOM     23  C   UNL     1      -6.322  -7.513   3.578  0.00  0.00    +0.055 A 
BRANCH  22  24
ATOM     24  O   UNL     1      -6.007  -8.170   5.842  0.00  0.00    -0.491 OA
ATOM     25  C   UNL     1      -6.696  -6.970   6.201  0.00  0.00    +0.277 C 
ENDBRANCH  22  24
BRANCH  21  26
ATOM     26  O   UNL     1      -4.699 -10.446   5.010  0.00  0.00    -0.491 OA
ATOM     27  C   UNL     1      -4.031 -11.605   4.505  0.00  0.00    +0.277 C 
ENDBRANCH  21  26
ENDBRANCH   2  18
BRANCH   1  28
ATOM     28  C   UNL     1      -4.351  -6.154   0.214  0.00  0.00    +0.107 C 
BRANCH  28  29
ATOM     29  C   UNL     1      -4.329  -4.633   0.047  0.00  0.00    +0.000 C 
BRANCH  29  30
ATOM     30  C   UNL     1      -2.889  -4.128   0.163  0.00  0.00    -0.077 C 
BRANCH  30  31
ATOM     31  N   UNL     1      -2.855  -2.684  -0.101  0.00  0.00    +0.380 N 
ATOM     32  H   UNL     1      -3.280  -2.495  -0.996  0.00  0.00    -0.082 HD
BRANCH  31  33
ATOM     33  C   UNL     1      -3.595  -1.975   0.952  0.00  0.00    -0.079 C 
BRANCH  33  34
ATOM     34  C   UNL     1      -3.665  -0.485   0.611  0.00  0.00    -0.019 C 
BRANCH  34  36
ATOM     35  C   UNL     1      -4.506   1.742   1.367  0.00  0.00    +0.004 C 
ATOM     36  C   UNL     1      -4.436   0.253   1.708  0.00  0.00    -0.005 C 
ENDBRANCH  34  36
ENDBRANCH  33  34
ENDBRANCH  31  33
BRANCH  31  37
ATOM     37  C   UNL     1      -1.460  -2.222  -0.115  0.00  0.00    -0.079 C 
BRANCH  37  38
ATOM     38  C   UNL     1      -0.731  -2.836  -1.312  0.00  0.00    -0.019 C 
BRANCH  38  39
ATOM     39  C   UNL     1       0.733  -2.393  -1.299  0.00  0.00    -0.005 C 
ATOM     40  C   UNL     1       1.462  -3.007  -2.496  0.00  0.00    +0.004 C 
ENDBRANCH  38  39
ENDBRANCH  37  38
ENDBRANCH  31  37
ENDBRANCH  30  31
ENDBRANCH  29  30
ENDBRANCH  28  29
ENDBRANCH   1  28
TORSDOF 13
