REMARK  Name = ZINC17157150
REMARK  9 active torsions:
REMARK  status: ('A' for Active; 'I' for Inactive)
REMARK    1  A    between atoms: C_1  and  C_2
REMARK    2  A    between atoms: C_2  and  C_3
REMARK    3  A    between atoms: C_2  and  C_4
REMARK    4  A    between atoms: C_4  and  C_6
REMARK    5  A    between atoms: C_4  and  N_22
REMARK    6  A    between atoms: N_8  and  N_9
REMARK    7  A    between atoms: C_10  and  C_12
REMARK    8  A    between atoms: N_22  and  S_23
REMARK    9  A    between atoms: S_23  and  C_26
REMARK                            x       y       z     vdW  Elec       q    Type
REMARK                         _______ _______ _______ _____ _____    ______ ____
ROOT
ATOM      1  C   UNL     1       1.408   3.585   0.682  0.00  0.00    +0.248 C 
ATOM      2  O   UNL     1       0.482   3.958   1.372  0.00  0.00    -0.273 OA
ATOM      3  N   UNL     1       2.571   4.266   0.690  0.00  0.00    -0.233 N 
ATOM      4  H   UNL     1       3.382   3.977   0.006  0.00  0.00    +0.173 HD
ENDROOT
BRANCH   3   5
ATOM      5  N   UNL     1       2.747   5.341   1.571  0.00  0.00    -0.234 N 
ATOM      6  C   UNL     1       3.910   6.022   1.579  0.00  0.00    +0.235 C 
ATOM      7  O   UNL     1       4.805   5.703   0.824  0.00  0.00    -0.274 OA
ATOM      8  H   UNL     1       1.936   5.630   2.255  0.00  0.00    +0.173 HD
BRANCH   6   9
ATOM      9  C   UNL     1       4.100   7.179   2.526  0.00  0.00    +0.049 C 
ATOM     10  C   UNL     1       3.047   8.251   2.238  0.00  0.00    +0.019 C 
ATOM     11  C   UNL     1       3.239   9.425   3.200  0.00  0.00    -0.009 C 
ATOM     12  C   UNL     1       4.636  10.019   3.007  0.00  0.00    +0.007 C 
ATOM     13  C   UNL     1       5.689   8.947   3.294  0.00  0.00    -0.009 C 
ATOM     14  C   UNL     1       5.497   7.772   2.333  0.00  0.00    +0.019 C 
ATOM     15  C   UNL     1       5.538   8.456   4.735  0.00  0.00    +0.007 C 
ATOM     16  C   UNL     1       4.141   7.863   4.928  0.00  0.00    -0.009 C 
ATOM     17  C   UNL     1       3.088   8.935   4.641  0.00  0.00    +0.007 C 
ATOM     18  C   UNL     1       3.949   6.688   3.967  0.00  0.00    +0.019 C 
ENDBRANCH   6   9
ENDBRANCH   3   5
BRANCH   1  19
ATOM     19  C   UNL     1       1.257   2.361  -0.183  0.00  0.00    +0.166 C 
BRANCH  19  21
ATOM     20  C   UNL     1       0.936   1.543  -2.522  0.00  0.00    +0.009 C 
ATOM     21  C   UNL     1       1.066   2.787  -1.640  0.00  0.00    +0.010 C 
ATOM     22  C   UNL     1      -0.203   3.632  -1.762  0.00  0.00    +0.009 C 
ENDBRANCH  19  21
BRANCH  19  23
ATOM     23  N   UNL     1       0.091   1.591   0.258  0.00  0.00    -0.178 NA
ATOM     24  H   UNL     1      -0.896   2.073   0.315  0.00  0.00    +0.149 HD
BRANCH  23  25
ATOM     25  S   UNL     1       0.292   0.080   0.903  0.00  0.00    +0.059 S 
ATOM     26  O   UNL     1      -1.006  -0.403   1.219  0.00  0.00    -0.153 OA
ATOM     27  O   UNL     1       1.175  -0.618   0.036  0.00  0.00    -0.153 OA
BRANCH  25  28
ATOM     28  C   UNL     1       1.142   0.276   2.434  0.00  0.00    +0.107 A 
ATOM     29  C   UNL     1       0.426   0.457   3.604  0.00  0.00    +0.028 A 
ATOM     30  C   UNL     1       1.092   0.610   4.805  0.00  0.00    +0.003 A 
ATOM     31  C   UNL     1       2.474   0.584   4.838  0.00  0.00    +0.020 A 
ATOM     32  C   UNL     1       3.190   0.404   3.669  0.00  0.00    +0.043 A 
ATOM     33  C   UNL     1       2.523   0.244   2.467  0.00  0.00    +0.048 A 
ATOM     34 CL   UNL     1       4.925   0.369   3.710  0.00  0.00    -0.083 Cl
ENDBRANCH  25  28
ENDBRANCH  23  25
ENDBRANCH  19  23
ENDBRANCH   1  19
TORSDOF 7
