REMARK  Name = ZINC06994712
REMARK  7 active torsions:
REMARK  status: ('A' for Active; 'I' for Inactive)
REMARK    1  A    between atoms: C_1  and  C_2
REMARK    2  A    between atoms: C_2  and  C_3
REMARK    3  A    between atoms: C_2  and  C_4
REMARK    4  A    between atoms: C_4  and  C_6
REMARK    5  A    between atoms: C_4  and  S_12
REMARK    6  A    between atoms: S_12  and  C_13
REMARK    7  A    between atoms: N_17  and  C_18
REMARK                            x       y       z     vdW  Elec       q    Type
REMARK                         _______ _______ _______ _____ _____    ______ ____
ROOT
ATOM      1  C   UNL     1      -1.380  -0.926  -2.777  0.00  0.00    +0.198 A 
ATOM      2  N   UNL     1      -0.361  -1.729  -2.584  0.00  0.00    -0.120 NA
ATOM      3  N   UNL     1       0.052  -2.214  -3.832  0.00  0.00    -0.112 NA
ATOM      4  C   UNL     1      -0.726  -1.693  -4.748  0.00  0.00    +0.225 A 
ATOM      5  N   UNL     1      -1.637  -0.887  -4.121  0.00  0.00    -0.258 N 
ATOM      6  N   UNL     1      -0.645  -1.924  -6.116  0.00  0.00    -0.299 N 
ATOM      7  C   UNL     1      -1.518  -1.330  -7.138  0.00  0.00    +0.108 C 
ATOM      8  C   UNL     1      -1.072  -1.892  -8.504  0.00  0.00    +0.020 C 
ATOM      9  C   UNL     1      -0.341  -3.205  -8.118  0.00  0.00    +0.020 C 
ATOM     10  C   UNL     1       0.336  -2.799  -6.782  0.00  0.00    +0.108 C 
ENDROOT
BRANCH   5  11
ATOM     11  C   UNL     1      -2.652  -0.148  -4.746  0.00  0.00    +0.053 A 
ATOM     12  C   UNL     1      -3.689  -0.803  -5.397  0.00  0.00    +0.026 A 
ATOM     13  C   UNL     1      -4.689  -0.073  -6.011  0.00  0.00    +0.003 A 
ATOM     14  C   UNL     1      -4.657   1.309  -5.978  0.00  0.00    +0.020 A 
ATOM     15  C   UNL     1      -3.625   1.965  -5.331  0.00  0.00    +0.043 A 
ATOM     16  C   UNL     1      -2.626   1.239  -4.710  0.00  0.00    +0.046 A 
ATOM     17 CL   UNL     1      -3.589   3.700  -5.292  0.00  0.00    -0.083 Cl
ENDBRANCH   5  11
BRANCH   1  18
ATOM     18  S   UNL     1      -2.265  -0.057  -1.527  0.00  0.00    -0.073 S 
BRANCH  18  19
ATOM     19  C   UNL     1      -1.433  -0.534   0.013  0.00  0.00    +0.143 C 
BRANCH  19  20
ATOM     20  C   UNL     1      -2.175   0.051   1.187  0.00  0.00    +0.234 C 
ATOM     21  O   UNL     1      -2.922   0.992   1.024  0.00  0.00    -0.274 OA
ATOM     22  N   UNL     1      -2.009  -0.473   2.418  0.00  0.00    -0.239 N 
ATOM     23  C   UNL     1      -2.673   0.050   3.468  0.00  0.00    +0.303 C 
ATOM     24  O   UNL     1      -3.421   0.993   3.305  0.00  0.00    -0.253 OA
ATOM     25  N   UNL     1      -2.506  -0.473   4.699  0.00  0.00    -0.313 N 
ATOM     26  H   UNL     1      -1.411  -1.225   2.548  0.00  0.00    +0.159 HD
ATOM     27  H   UNL     1      -1.908  -1.226   4.829  0.00  0.00    +0.146 HD
ATOM     28  H   UNL     1      -2.984  -0.097   5.454  0.00  0.00    +0.146 HD
ENDBRANCH  19  20
BRANCH  19  30
ATOM     29  C   UNL     1      -0.019   1.526   0.010  0.00  0.00    +0.009 C 
ATOM     30  C   UNL     1       0.002  -0.004   0.002  0.00  0.00    +0.005 C 
ATOM     31  C   UNL     1       0.742  -0.511   1.242  0.00  0.00    +0.009 C 
ENDBRANCH  19  30
ENDBRANCH  18  19
ENDBRANCH   1  18
TORSDOF 5
