REMARK  Name = ZINC32777016
REMARK  5 active torsions:
REMARK  status: ('A' for Active; 'I' for Inactive)
REMARK    1  A    between atoms: C_6  and  N_7
REMARK    2  A    between atoms: C_13  and  C_15
REMARK    3  A    between atoms: C_15  and  C_16
REMARK    4  A    between atoms: C_16  and  S_17
REMARK    5  A    between atoms: S_17  and  C_18
REMARK                            x       y       z     vdW  Elec       q    Type
REMARK                         _______ _______ _______ _____ _____    ______ ____
ROOT
ATOM      1  N   UNL     1      -0.913   3.056  -1.135  0.00  0.00    -0.327 N 
ATOM      2  C   UNL     1      -0.762   1.597  -1.227  0.00  0.00    +0.124 C 
ATOM      3  C   UNL     1      -0.013   1.086   0.008  0.00  0.00    +0.126 C 
ATOM      4  N   UNL     1      -0.709   1.564   1.212  0.00  0.00    -0.298 N 
ATOM      5  C   UNL     1      -1.023   2.998   1.310  0.00  0.00    +0.126 C 
ATOM      6  C   UNL     1      -1.732   3.434   0.024  0.00  0.00    +0.124 C 
ATOM      7  C   UNL     1      -1.054   0.710   2.197  0.00  0.00    +0.216 C 
ATOM      8  O   UNL     1      -0.790  -0.469   2.096  0.00  0.00    -0.276 OA
ENDROOT
BRANCH   1  14
ATOM      9  C   UNL     1      -1.747   2.736  -3.378  0.00  0.00    +0.026 A 
ATOM     10  C   UNL     1      -2.277   3.255  -4.543  0.00  0.00    +0.040 A 
ATOM     11  C   UNL     1      -2.497   4.617  -4.658  0.00  0.00    +0.124 A 
ATOM     12  C   UNL     1      -2.192   5.461  -3.603  0.00  0.00    +0.040 A 
ATOM     13  C   UNL     1      -1.667   4.946  -2.434  0.00  0.00    +0.026 A 
ATOM     14  C   UNL     1      -1.445   3.580  -2.317  0.00  0.00    +0.030 A 
ATOM     15  F   UNL     1      -3.011   5.124  -5.800  0.00  0.00    -0.205 F 
ENDBRANCH   1  14
BRANCH   7  16
ATOM     16  C   UNL     1      -1.766   1.222   3.422  0.00  0.00    +0.107 C 
BRANCH  16  17
ATOM     17  C   UNL     1      -2.040   0.057   4.376  0.00  0.00    +0.085 C 
BRANCH  17  18
ATOM     18  S   UNL     1      -2.897   0.673   5.851  0.00  0.00    -0.096 S 
BRANCH  18  19
ATOM     19  C   UNL     1      -3.137  -0.768   6.837  0.00  0.00    +0.160 A 
ATOM     20  N   UNL     1      -2.788  -2.016   6.592  0.00  0.00    -0.133 NA
ATOM     21  N   UNL     1      -3.075  -3.000   7.510  0.00  0.00    -0.125 NA
ATOM     22  C   UNL     1      -3.698  -2.690   8.631  0.00  0.00    +0.180 A 
ATOM     23  S   UNL     1      -3.911  -0.927   8.439  0.00  0.00    -0.025 S 
ATOM     24  N   UNL     1      -4.081  -3.515   9.682  0.00  0.00    -0.336 N 
ATOM     25  H   UNL     1      -4.599  -3.089  10.554  0.00  0.00    +0.144 HD
ATOM     26  H   UNL     1      -3.866  -4.593   9.642  0.00  0.00    +0.144 HD
ENDBRANCH  18  19
ENDBRANCH  17  18
ENDBRANCH  16  17
ENDBRANCH   7  16
TORSDOF 5
