REMARK  Name = ZINC28714942
REMARK  11 active torsions:
REMARK  status: ('A' for Active; 'I' for Inactive)
REMARK    1  A    between atoms: C_1  and  C_2
REMARK    2  A    between atoms: C_7  and  N_12
REMARK    3  A    between atoms: C_9  and  C_11
REMARK    4  A    between atoms: C_13  and  C_15
REMARK    5  A    between atoms: C_15  and  C_17
REMARK    6  A    between atoms: C_15  and  S_18
REMARK    7  A    between atoms: S_18  and  C_19
REMARK    8  A    between atoms: C_22  and  C_25
REMARK    9  A    between atoms: N_23  and  N_24
REMARK   10  A    between atoms: C_28  and  O_31
REMARK   11  A    between atoms: O_31  and  C_32
REMARK                            x       y       z     vdW  Elec       q    Type
REMARK                         _______ _______ _______ _____ _____    ______ ____
ROOT
ATOM      1  C   UNL     1       0.972   3.718   1.413  0.00  0.00    +0.209 A 
ATOM      2  N   UNL     1       1.933   2.824   1.482  0.00  0.00    -0.121 NA
ATOM      3  N   UNL     1       3.074   3.408   1.574  0.00  0.00    -0.127 NA
ATOM      4  C   UNL     1       2.912   4.711   1.570  0.00  0.00    +0.182 A 
ATOM      5  N   UNL     1       1.561   4.949   1.462  0.00  0.00    -0.224 N 
ENDROOT
BRANCH   4   6
ATOM      6  C   UNL     1       3.980   5.729   1.659  0.00  0.00    +0.021 A 
ATOM      7  C   UNL     1       3.659   7.056   1.951  0.00  0.00    +0.015 A 
ATOM      8  C   UNL     1       4.658   8.002   2.037  0.00  0.00    +0.046 A 
ATOM      9  C   UNL     1       5.981   7.638   1.825  0.00  0.00    +0.127 A 
ATOM     10  C   UNL     1       6.304   6.320   1.529  0.00  0.00    +0.046 A 
ATOM     11  C   UNL     1       5.311   5.367   1.446  0.00  0.00    +0.015 A 
BRANCH   9  12
ATOM     12  O   UNL     1       6.963   8.574   1.906  0.00  0.00    -0.434 OA
BRANCH  12  13
ATOM     13  C   UNL     1       6.561   9.911   2.213  0.00  0.00    +0.541 C 
ATOM     14  F   UNL     1       5.682  10.372   1.227  0.00  0.00    -0.166 F 
ATOM     15  F   UNL     1       5.919   9.930   3.456  0.00  0.00    -0.166 F 
ENDBRANCH  12  13
ENDBRANCH   9  12
ENDBRANCH   4   6
BRANCH   5  16
ATOM     16  N   UNL     1       0.939   6.165   1.415  0.00  0.00    -0.295 N 
ATOM     17  H   UNL     1       1.533   7.089   1.463  0.00  0.00    +0.163 HD
ATOM     18  H   UNL     1      -0.156   6.219   1.329  0.00  0.00    +0.163 HD
ENDBRANCH   5  16
BRANCH   1  19
ATOM     19  S   UNL     1      -0.753   3.389   1.277  0.00  0.00    -0.072 S 
BRANCH  19  20
ATOM     20  C   UNL     1      -0.729   1.579   1.267  0.00  0.00    +0.137 C 
ATOM     21  C   UNL     1      -0.013   1.086   0.008  0.00  0.00    +0.029 C 
BRANCH  20  23
ATOM     22  N   UNL     1      -2.404  -0.171   1.767  0.00  0.00    -0.311 N 
ATOM     23  C   UNL     1      -2.143   1.058   1.278  0.00  0.00    +0.226 C 
ATOM     24  O   UNL     1      -3.045   1.743   0.846  0.00  0.00    -0.275 OA
ATOM     25  H   UNL     1      -1.585  -0.792   2.158  0.00  0.00    +0.149 HD
BRANCH  22  31
ATOM     26  C   UNL     1      -3.105  -3.937   3.713  0.00  0.00    +0.008 C 
ATOM     27  C   UNL     1      -2.958  -2.885   2.612  0.00  0.00    -0.009 C 
ATOM     28  C   UNL     1      -3.279  -3.517   1.256  0.00  0.00    +0.003 C 
ATOM     29  C   UNL     1      -3.131  -2.465   0.155  0.00  0.00    +0.002 C 
ATOM     30  C   UNL     1      -4.099  -1.310   0.421  0.00  0.00    +0.022 C 
ATOM     31  C   UNL     1      -3.779  -0.678   1.777  0.00  0.00    +0.076 C 
ATOM     32  C   UNL     1      -3.925  -1.730   2.878  0.00  0.00    +0.009 C 
ATOM     33  C   UNL     1      -3.605  -1.098   4.234  0.00  0.00    +0.009 C 
ENDBRANCH  22  31
ENDBRANCH  20  23
ENDBRANCH  19  20
ENDBRANCH   1  19
TORSDOF 8
