REMARK  Name = ZINC08706810
REMARK  4 active torsions:
REMARK  status: ('A' for Active; 'I' for Inactive)
REMARK    1  A    between atoms: C_1  and  C_2
REMARK    2  A    between atoms: C_3  and  C_15
REMARK    3  A    between atoms: N_5  and  C_7
REMARK    4  A    between atoms: C_7  and  C_8
REMARK                            x       y       z     vdW  Elec       q    Type
REMARK                         _______ _______ _______ _____ _____    ______ ____
ROOT
ATOM      1  C   UNL     1      -4.676   3.793   2.844  0.00  0.00    +0.068 C 
ATOM      2  C   UNL     1      -3.905   2.532   3.140  0.00  0.00    +0.068 A 
ATOM      3  C   UNL     1      -3.422   1.625   2.191  0.00  0.00    +0.050 A 
ATOM      4  C   UNL     1      -2.780   0.633   2.853  0.00  0.00    +0.134 A 
ATOM      5  N   UNL     1      -2.861   0.901   4.173  0.00  0.00    -0.248 N 
ATOM      6  N   UNL     1      -3.575   2.096   4.328  0.00  0.00    -0.174 NA
ATOM      7 CL   UNL     1      -1.996  -0.738   2.133  0.00  0.00    -0.062 Cl
ENDROOT
BRANCH   3   8
ATOM      8  C   UNL     1      -3.581   1.735   0.697  0.00  0.00    +0.194 C 
ATOM      9  N   UNL     1      -2.439   1.089   0.040  0.00  0.00    -0.321 N 
ATOM     10  C   UNL     1      -1.218   1.755   0.017  0.00  0.00    +0.041 A 
ATOM     11  C   UNL     1      -0.013   1.076   0.008  0.00  0.00    +0.024 A 
ATOM     12  C   UNL     1       1.172   1.787   0.001  0.00  0.00    +0.002 A 
ATOM     13  C   UNL     1       1.163   3.173   0.008  0.00  0.00    +0.001 A 
ATOM     14  C   UNL     1      -0.030   3.865   0.021  0.00  0.00    +0.015 A 
ATOM     15  C   UNL     1      -1.232   3.161   0.028  0.00  0.00    +0.058 A 
ATOM     16  C   UNL     1      -2.535   3.851   0.036  0.00  0.00    +0.247 C 
ATOM     17  O   UNL     1      -2.603   5.040  -0.209  0.00  0.00    -0.270 OA
ATOM     18  N   UNL     1      -3.651   3.147   0.320  0.00  0.00    -0.289 N 
ATOM     19  H   UNL     1      -2.533   0.216  -0.373  0.00  0.00    +0.148 HD
ATOM     20  H   UNL     1      -4.515   3.586   0.273  0.00  0.00    +0.151 HD
ENDBRANCH   3   8
BRANCH   5  21
ATOM     21  C   UNL     1      -2.300   0.086   5.254  0.00  0.00    +0.180 C 
BRANCH  21  22
ATOM     22  C   UNL     1      -0.894   0.541   5.550  0.00  0.00    -0.026 A 
ATOM     23  C   UNL     1       0.172  -0.033   4.883  0.00  0.00    +0.005 A 
ATOM     24  C   UNL     1       1.462   0.388   5.151  0.00  0.00    +0.000 A 
ATOM     25  C   UNL     1       1.685   1.376   6.092  0.00  0.00    +0.000 A 
ATOM     26  C   UNL     1       0.619   1.946   6.761  0.00  0.00    +0.000 A 
ATOM     27  C   UNL     1      -0.671   1.529   6.491  0.00  0.00    +0.005 A 
ENDBRANCH  21  22
ENDBRANCH   5  21
TORSDOF 3
