REMARK  Name = ZINC45591577
REMARK  11 active torsions:
REMARK  status: ('A' for Active; 'I' for Inactive)
REMARK    1  A    between atoms: C_1  and  C_2
REMARK    2  A    between atoms: C_3  and  C_13
REMARK    3  A    between atoms: C_4  and  C_12
REMARK    4  A    between atoms: C_9  and  C_10
REMARK    5  A    between atoms: C_13  and  C_14
REMARK    6  A    between atoms: C_14  and  C_15
REMARK    7  A    between atoms: N_17  and  N_18
REMARK    8  A    between atoms: C_19  and  C_21
REMARK    9  A    between atoms: C_21  and  C_23
REMARK   10  A    between atoms: C_21  and  O_24
REMARK   11  A    between atoms: O_24  and  C_25
REMARK                            x       y       z     vdW  Elec       q    Type
REMARK                         _______ _______ _______ _____ _____    ______ ____
ROOT
ATOM      1  C   UNL     1      -4.195   0.571   1.866  0.00  0.00    +0.229 C 
ATOM      2  O   UNL     1      -4.801   0.580   0.816  0.00  0.00    -0.274 OA
ATOM      3  N   UNL     1      -4.724   1.165   2.954  0.00  0.00    -0.234 N 
ATOM      4  H   UNL     1      -4.240   1.158   3.795  0.00  0.00    +0.173 HD
ENDROOT
BRANCH   3   5
ATOM      5  N   UNL     1      -5.975   1.791   2.872  0.00  0.00    -0.231 N 
ATOM      6  C   UNL     1      -6.504   2.384   3.960  0.00  0.00    +0.270 C 
ATOM      7  O   UNL     1      -5.899   2.376   5.011  0.00  0.00    -0.270 OA
ATOM      8  H   UNL     1      -6.460   1.798   2.032  0.00  0.00    +0.173 HD
BRANCH   6   9
ATOM      9  C   UNL     1      -7.849   3.058   3.872  0.00  0.00    +0.257 C 
ATOM     10  C   UNL     1      -7.758   4.256   2.925  0.00  0.00    +0.062 C 
BRANCH   9  11
ATOM     11  O   UNL     1      -8.244   3.506   5.170  0.00  0.00    -0.480 OA
BRANCH  11  12
ATOM     12  C   UNL     1      -9.577   3.653   5.393  0.00  0.00    +0.123 A 
ATOM     13  C   UNL     1     -10.479   3.477   4.353  0.00  0.00    +0.046 A 
ATOM     14  C   UNL     1     -11.833   3.627   4.582  0.00  0.00    +0.005 A 
ATOM     15  C   UNL     1     -12.290   3.953   5.845  0.00  0.00    +0.015 A 
ATOM     16  C   UNL     1     -11.393   4.130   6.884  0.00  0.00    +0.021 A 
ATOM     17  C   UNL     1     -10.037   3.974   6.661  0.00  0.00    +0.061 A 
ATOM     18 BR   UNL     1     -12.022   4.576   8.610  0.00  0.00    -0.050 Br
ENDBRANCH  11  12
ENDBRANCH   9  11
ENDBRANCH   6   9
ENDBRANCH   3   5
BRANCH   1  19
ATOM     19  C   UNL     1      -2.850  -0.102   1.955  0.00  0.00    +0.102 C 
BRANCH  19  20
ATOM     20  C   UNL     1      -2.483  -0.691   0.591  0.00  0.00    +0.046 C 
BRANCH  20  23
ATOM     21  C   UNL     1      -0.045   0.867   0.260  0.00  0.00    +0.045 C 
ATOM     22  C   UNL     1       0.028  -0.615   0.520  0.00  0.00    -0.023 A 
ATOM     23  C   UNL     1      -1.138  -1.365   0.680  0.00  0.00    -0.024 A 
ATOM     24  C   UNL     1      -1.064  -2.699   0.915  0.00  0.00    +0.019 A 
ATOM     25  N   UNL     1       0.132  -3.332   1.000  0.00  0.00    -0.325 N 
ATOM     26  H   UNL     1       0.155  -4.287   1.169  0.00  0.00    +0.169 HD
ATOM     27  C   UNL     1       1.287  -2.656   0.854  0.00  0.00    +0.267 A 
ATOM     28  O   UNL     1       2.353  -3.242   0.933  0.00  0.00    -0.266 OA
ATOM     29  C   UNL     1       1.260  -1.260   0.601  0.00  0.00    +0.119 A 
ATOM     30  C   UNL     1      -2.334  -3.493   1.085  0.00  0.00    +0.063 C 
BRANCH  29  31
ATOM     31  C   UNL     1       2.478  -0.525   0.436  0.00  0.00    +0.105 C 
ATOM     32  N   UNL     1       3.445   0.058   0.306  0.00  0.00    -0.191 NA
ENDBRANCH  29  31
ENDBRANCH  20  23
ENDBRANCH  19  20
ENDBRANCH   1  19
TORSDOF 8
