REMARK  Name = ZINC08892878
REMARK  6 active torsions:
REMARK  status: ('A' for Active; 'I' for Inactive)
REMARK    1  A    between atoms: C_3  and  N_22
REMARK    2  A    between atoms: C_6  and  N_7
REMARK    3  A    between atoms: N_7  and  N_8
REMARK    4  A    between atoms: N_8  and  C_9
REMARK    5  A    between atoms: C_9  and  N_11
REMARK    6  A    between atoms: C_12  and  C_14
REMARK                            x       y       z     vdW  Elec       q    Type
REMARK                         _______ _______ _______ _____ _____    ______ ____
ROOT
ATOM      1  C   UNL     1      -1.187   1.624   0.017  0.00  0.00    +0.153 C 
ATOM      2  S   UNL     1      -1.210   3.336   0.026  0.00  0.00    -0.017 S 
ENDROOT
BRANCH   1   3
ATOM      3  N   UNL     1      -0.011   0.966   0.007  0.00  0.00    -0.263 N 
ATOM      4  C   UNL     1       1.147   1.655   0.000  0.00  0.00    +0.251 C 
ATOM      5  O   UNL     1       1.130   2.871   0.007  0.00  0.00    -0.270 OA
ATOM      6  H   UNL     1       0.002  -0.004   0.002  0.00  0.00    +0.157 HD
BRANCH   4   7
ATOM      7  C   UNL     1       2.436   0.934  -0.016  0.00  0.00    +0.056 A 
ATOM      8  C   UNL     1       2.458  -0.462  -0.018  0.00  0.00    +0.029 A 
ATOM      9  C   UNL     1       3.666  -1.129  -0.038  0.00  0.00    +0.014 A 
ATOM     10  C   UNL     1       4.854  -0.418  -0.045  0.00  0.00    +0.016 A 
ATOM     11  C   UNL     1       4.840   0.965  -0.038  0.00  0.00    +0.022 A 
ATOM     12  C   UNL     1       3.638   1.646  -0.024  0.00  0.00    +0.053 A 
ATOM     13 CL   UNL     1       3.622   3.382  -0.015  0.00  0.00    -0.083 Cl
ATOM     14  I   UNL     1       3.702  -3.224  -0.048  0.00  0.00    -0.044 I 
ENDBRANCH   4   7
ENDBRANCH   1   3
BRANCH   1  15
ATOM     15  N   UNL     1      -2.345   0.934   0.018  0.00  0.00    -0.248 N 
ATOM     16  H   UNL     1      -3.192   1.408   0.025  0.00  0.00    +0.172 HD
BRANCH  15  17
ATOM     17  N   UNL     1      -2.326  -0.467   0.011  0.00  0.00    -0.265 N 
ATOM     18  H   UNL     1      -1.480  -0.940   0.004  0.00  0.00    +0.170 HD
BRANCH  17  24
ATOM     19  C   UNL     1      -4.739  -0.505   0.028  0.00  0.00    +0.026 A 
ATOM     20  C   UNL     1      -5.924  -1.215   0.024  0.00  0.00    +0.034 A 
ATOM     21  C   UNL     1      -5.904  -2.597   0.017  0.00  0.00    +0.126 A 
ATOM     22  C   UNL     1      -4.698  -3.274   0.007  0.00  0.00    +0.034 A 
ATOM     23  C   UNL     1      -3.509  -2.571   0.005  0.00  0.00    +0.026 A 
ATOM     24  C   UNL     1      -3.526  -1.181   0.012  0.00  0.00    +0.045 A 
BRANCH  21  25
ATOM     25  N   UNL     1      -7.175  -3.355   0.019  0.00  0.00    +0.056 N 
ATOM     26  O   UNL     1      -7.159  -4.573   0.013  0.00  0.00    -0.126 OA
ATOM     27  O   UNL     1      -8.238  -2.760   0.028  0.00  0.00    -0.126 OA
ENDBRANCH  21  25
ENDBRANCH  17  24
ENDBRANCH  15  17
ENDBRANCH   1  15
TORSDOF 6
