REMARK  Name = ZINC13574295
REMARK  7 active torsions:
REMARK  status: ('A' for Active; 'I' for Inactive)
REMARK    1  A    between atoms: C_1  and  C_2
REMARK    2  A    between atoms: C_3  and  C_12
REMARK    3  A    between atoms: C_23  and  S_24
REMARK    4  A    between atoms: S_24  and  C_27
REMARK    5  A    between atoms: C_27  and  C_28
REMARK    6  A    between atoms: C_28  and  C_29
REMARK    7  A    between atoms: C_28  and  C_30
REMARK                            x       y       z     vdW  Elec       q    Type
REMARK                         _______ _______ _______ _____ _____    ______ ____
ROOT
ATOM      1  C   UNL     1      -0.419  -0.132  -2.431  0.00  0.00    +0.026 C 
ATOM      2  C   UNL     1      -1.081   0.947  -2.989  0.00  0.00    +0.078 C 
ATOM      3  C   UNL     1      -0.895   1.330  -4.417  0.00  0.00    +0.117 C 
ATOM      4  N   UNL     1      -0.661   0.466  -5.369  0.00  0.00    -0.386 N 
ATOM      5  N   UNL     1      -0.998   2.718  -4.637  0.00  0.00    -0.203 N 
ATOM      6  C   UNL     1      -1.703   3.476  -3.725  0.00  0.00    +0.183 C 
ATOM      7  N   UNL     1      -2.220   3.057  -2.593  0.00  0.00    -0.152 NA
ATOM      8  C   UNL     1      -2.018   1.782  -2.202  0.00  0.00    +0.273 C 
ATOM      9  O   UNL     1      -2.588   1.327  -1.224  0.00  0.00    -0.268 OA
ATOM     10  S   UNL     1      -1.699   4.996  -4.409  0.00  0.00    +0.049 S 
ATOM     11  N   UNL     1      -0.741   4.689  -5.750  0.00  0.00    -0.174 NA
ATOM     12  C   UNL     1      -0.481   3.420  -5.672  0.00  0.00    +0.257 C 
ATOM     13  H   UNL     1      -0.517  -0.469  -5.151  0.00  0.00    +0.157 HD
ATOM     14  H   UNL     1      -0.631   0.759  -6.293  0.00  0.00    +0.157 HD
ENDROOT
BRANCH   1  17
ATOM     15  C   UNL     1      -1.412  -2.791  -1.181  0.00  0.00    +0.064 C 
ATOM     16  C   UNL     1      -0.963  -1.553  -0.447  0.00  0.00    +0.021 A 
ATOM     17  C   UNL     1      -0.526  -0.387  -1.045  0.00  0.00    +0.004 A 
ATOM     18  C   UNL     1      -0.196   0.540   0.056  0.00  0.00    +0.007 A 
ATOM     19  C   UNL     1       0.286   1.845   0.108  0.00  0.00    +0.010 A 
ATOM     20  C   UNL     1       0.496   2.446   1.331  0.00  0.00    +0.001 A 
ATOM     21  C   UNL     1       0.230   1.756   2.504  0.00  0.00    +0.002 A 
ATOM     22  C   UNL     1      -0.246   0.463   2.466  0.00  0.00    +0.026 A 
ATOM     23  C   UNL     1      -0.465  -0.160   1.241  0.00  0.00    +0.047 A 
ATOM     24  N   UNL     1      -0.930  -1.413   0.893  0.00  0.00    -0.358 N 
ATOM     25  H   UNL     1      -1.194  -2.099   1.526  0.00  0.00    +0.166 HD
ENDBRANCH   1  17
BRANCH  12  26
ATOM     26  S   UNL     1       0.521   2.629  -6.887  0.00  0.00    +0.029 S 
ATOM     27  O   UNL     1       1.295   3.676  -7.456  0.00  0.00    -0.167 OA
ATOM     28  O   UNL     1       1.148   1.557  -6.197  0.00  0.00    -0.167 OA
BRANCH  26  29
ATOM     29  C   UNL     1      -0.652   1.983  -8.110  0.00  0.00    +0.178 C 
BRANCH  29  30
ATOM     30  C   UNL     1       0.114   1.255  -9.217  0.00  0.00    +0.004 C 
ATOM     31  C   UNL     1       0.807   0.024  -8.632  0.00  0.00    +0.009 C 
ATOM     32  C   UNL     1      -0.863   0.819 -10.311  0.00  0.00    +0.009 C 
ENDBRANCH  29  30
ENDBRANCH  26  29
ENDBRANCH  12  26
TORSDOF 4
