REMARK  Name = ZINC35004541
REMARK  12 active torsions:
REMARK  status: ('A' for Active; 'I' for Inactive)
REMARK    1  A    between atoms: C_1  and  C_2
REMARK    2  A    between atoms: C_2  and  C_3
REMARK    3  A    between atoms: C_3  and  C_4
REMARK    4  A    between atoms: C_4  and  N_5
REMARK    5  A    between atoms: C_13  and  C_15
REMARK    6  A    between atoms: C_16  and  C_18
REMARK    7  A    between atoms: C_18  and  C_20
REMARK    8  A    between atoms: C_18  and  N_25
REMARK    9  A    between atoms: C_20  and  C_22
REMARK   10  A    between atoms: C_20  and  C_23
REMARK   11  A    between atoms: C_23  and  C_24
REMARK   12  A    between atoms: N_28  and  C_29
REMARK                            x       y       z     vdW  Elec       q    Type
REMARK                         _______ _______ _______ _____ _____    ______ ____
ROOT
ATOM      1  C   UNL     1       3.127  -4.038  -8.764  0.00  0.00    +0.163 C 
ENDROOT
BRANCH   1  12
ATOM      2  N   UNL     1       2.248  -2.430  -2.373  0.00  0.00    -0.299 N 
ATOM      3  C   UNL     1       2.330  -3.739  -2.682  0.00  0.00    +0.303 C 
ATOM      4  O   UNL     1       2.085  -4.580  -1.839  0.00  0.00    -0.253 OA
ATOM      5  N   UNL     1       2.685  -4.116  -3.927  0.00  0.00    -0.280 N 
ATOM      6  C   UNL     1       3.118  -3.119  -4.916  0.00  0.00    +0.128 C 
ATOM      7  C   UNL     1       2.241  -3.257  -6.167  0.00  0.00    +0.127 C 
ATOM      8  N   UNL     1       2.203  -4.673  -6.559  0.00  0.00    -0.297 N 
ATOM      9  C   UNL     1       1.770  -5.671  -5.570  0.00  0.00    +0.130 C 
ATOM     10  C   UNL     1       2.652  -5.533  -4.317  0.00  0.00    +0.092 C 
ATOM     11  C   UNL     1       2.062  -6.366  -3.177  0.00  0.00    +0.030 C 
ATOM     12  C   UNL     1       2.558  -5.050  -7.803  0.00  0.00    +0.236 C 
ATOM     13  O   UNL     1       2.419  -6.204  -8.150  0.00  0.00    -0.274 OA
ATOM     14  H   UNL     1       2.514  -1.760  -3.022  0.00  0.00    +0.150 HD
BRANCH   2  15
ATOM     15  C   UNL     1       1.756  -2.018  -1.056  0.00  0.00    +0.106 C 
BRANCH  15  16
ATOM     16  C   UNL     1       1.762  -0.491  -0.963  0.00  0.00    +0.018 C 
BRANCH  16  18
ATOM     17  C   UNL     1       1.254   1.466   0.505  0.00  0.00    +0.004 C 
ATOM     18  C   UNL     1       1.248  -0.061   0.412  0.00  0.00    -0.002 C 
ENDBRANCH  16  18
ENDBRANCH  15  16
ENDBRANCH   2  15
ENDBRANCH   1  12
BRANCH   1  19
ATOM     19  N   UNL     1       3.633  -4.726  -9.955  0.00  0.00    -0.288 N 
ATOM     20  C   UNL     1       4.686  -4.221 -10.628  0.00  0.00    +0.301 C 
ATOM     21  O   UNL     1       5.274  -3.249 -10.195  0.00  0.00    -0.253 OA
ATOM     22  N   UNL     1       5.086  -4.794 -11.780  0.00  0.00    -0.294 N 
ATOM     23  H   UNL     1       3.210  -5.544 -10.258  0.00  0.00    +0.151 HD
ATOM     24  H   UNL     1       4.617  -5.569 -12.125  0.00  0.00    +0.151 HD
BRANCH  22  25
ATOM     25  C   UNL     1       6.231  -4.245 -12.512  0.00  0.00    +0.037 C 
ATOM     26  C   UNL     1       7.475  -4.294 -11.623  0.00  0.00    +0.029 C 
ATOM     27  C   UNL     1       8.671  -3.721 -12.387  0.00  0.00    -0.008 C 
ATOM     28  C   UNL     1       8.913  -4.550 -13.650  0.00  0.00    +0.007 C 
ATOM     29  C   UNL     1       7.669  -4.501 -14.539  0.00  0.00    -0.008 C 
ATOM     30  C   UNL     1       6.474  -5.074 -13.775  0.00  0.00    +0.029 C 
ATOM     31  C   UNL     1       7.377  -3.050 -14.929  0.00  0.00    +0.007 C 
ATOM     32  C   UNL     1       7.135  -2.222 -13.666  0.00  0.00    -0.008 C 
ATOM     33  C   UNL     1       8.379  -2.270 -12.777  0.00  0.00    +0.007 C 
ATOM     34  C   UNL     1       5.939  -2.795 -12.902  0.00  0.00    +0.029 C 
ENDBRANCH  22  25
ENDBRANCH   1  19
BRANCH   1  35
ATOM     35  C   UNL     1       2.032  -3.051  -9.172  0.00  0.00    +0.015 C 
ATOM     36  C   UNL     1       2.646  -1.925 -10.006  0.00  0.00    +0.010 C 
BRANCH  35  37
ATOM     37  C   UNL     1       0.971  -3.779 -10.000  0.00  0.00    +0.002 C 
ATOM     38  C   UNL     1       0.081  -4.608  -9.072  0.00  0.00    +0.004 C 
ENDBRANCH  35  37
ENDBRANCH   1  35
TORSDOF 8
