REMARK  Name = ZINC22419235
REMARK  9 active torsions:
REMARK  status: ('A' for Active; 'I' for Inactive)
REMARK    1  A    between atoms: C_1  and  N_2
REMARK    2  A    between atoms: N_2  and  C_3
REMARK    3  A    between atoms: N_2  and  C_4
REMARK    4  A    between atoms: C_7  and  C_10
REMARK    5  A    between atoms: C_10  and  C_12
REMARK    6  A    between atoms: C_10  and  N_28
REMARK    7  A    between atoms: C_12  and  N_13
REMARK    8  A    between atoms: N_16  and  C_17
REMARK    9  A    between atoms: C_17  and  C_18
REMARK                            x       y       z     vdW  Elec       q    Type
REMARK                         _______ _______ _______ _____ _____    ______ ____
ROOT
ATOM      1  C   UNL     1      -0.791   1.984  -1.124  0.00  0.00    -0.020 C 
ENDROOT
BRANCH   1   2
ATOM      2  N   UNL     1       0.263   2.137  -0.113  0.00  0.00    +0.388 N 
ATOM      3  C   UNL     1       1.216   3.189  -0.501  0.00  0.00    -0.073 C 
ATOM      4  C   UNL     1       2.057   3.558   0.722  0.00  0.00    +0.017 C 
ATOM      5  C   UNL     1       2.621   2.311   1.353  0.00  0.00    -0.048 A 
ATOM      6  C   UNL     1       3.678   2.439   2.242  0.00  0.00    +0.004 A 
ATOM      7  C   UNL     1       4.218   1.323   2.848  0.00  0.00    +0.000 A 
ATOM      8  C   UNL     1       3.704   0.071   2.568  0.00  0.00    +0.000 A 
ATOM      9  C   UNL     1       2.653  -0.058   1.682  0.00  0.00    +0.002 A 
ATOM     10  C   UNL     1       2.110   1.062   1.070  0.00  0.00    -0.061 A 
ATOM     11  C   UNL     1       0.968   0.870   0.107  0.00  0.00    -0.042 C 
ATOM     12  H   UNL     1      -0.219   2.432   0.830  0.00  0.00    -0.080 HD
ENDBRANCH   1   2
BRANCH   1  16
ATOM     13  C   UNL     1       0.931   0.598  -4.782  0.00  0.00    +0.029 A 
ATOM     14  C   UNL     1       0.555   1.929  -4.650  0.00  0.00    +0.023 A 
ATOM     15  C   UNL     1      -0.002   2.373  -3.467  0.00  0.00    +0.004 A 
ATOM     16  C   UNL     1      -0.184   1.496  -2.414  0.00  0.00    -0.059 A 
ATOM     17  C   UNL     1       0.195   0.172  -2.540  0.00  0.00    +0.004 A 
ATOM     18  C   UNL     1       0.746  -0.281  -3.722  0.00  0.00    +0.023 A 
BRANCH  13  20
ATOM     19  C   UNL     1       1.689   1.074  -7.093  0.00  0.00    +0.129 C 
ATOM     20  N   UNL     1       1.494   0.145  -5.977  0.00  0.00    -0.336 N 
ATOM     21  C   UNL     1       1.890  -1.259  -6.115  0.00  0.00    +0.129 C 
ENDBRANCH  13  20
ENDBRANCH   1  16
BRANCH   1  22
ATOM     22  C   UNL     1      -1.827   0.971  -0.632  0.00  0.00    +0.095 C 
BRANCH  22  23
ATOM     23  N   UNL     1      -2.330   1.386   0.680  0.00  0.00    -0.301 N 
ATOM     24  C   UNL     1      -3.258   0.640   1.312  0.00  0.00    +0.300 C 
ATOM     25  O   UNL     1      -3.676  -0.377   0.794  0.00  0.00    -0.253 OA
ATOM     26  N   UNL     1      -3.721   1.021   2.519  0.00  0.00    -0.295 N 
ATOM     27  H   UNL     1      -1.952   2.306   1.149  0.00  0.00    +0.150 HD
ATOM     28  H   UNL     1      -3.342   1.942   2.988  0.00  0.00    +0.151 HD
BRANCH  26  29
ATOM     29  C   UNL     1      -4.729   0.211   3.207  0.00  0.00    +0.141 C 
BRANCH  29  30
ATOM     30  C   UNL     1      -5.074   0.851   4.526  0.00  0.00    -0.023 A 
ATOM     31  C   UNL     1      -4.523   0.383   5.679  0.00  0.00    +0.006 A 
ATOM     32  C   UNL     1      -4.830   0.962   6.909  0.00  0.00    +0.001 A 
ATOM     33  C   UNL     1      -5.690   2.014   6.992  0.00  0.00    +0.008 A 
ATOM     34  C   UNL     1      -6.279   2.525   5.824  0.00  0.00    -0.018 A 
ATOM     35  C   UNL     1      -5.963   1.939   4.572  0.00  0.00    -0.013 A 
ATOM     36  C   UNL     1      -6.555   2.447   3.404  0.00  0.00    +0.009 A 
ATOM     37  C   UNL     1      -7.416   3.498   3.488  0.00  0.00    +0.001 A 
ATOM     38  C   UNL     1      -7.723   4.077   4.718  0.00  0.00    +0.001 A 
ATOM     39  C   UNL     1      -7.172   3.609   5.870  0.00  0.00    +0.008 A 
ENDBRANCH  29  30
ENDBRANCH  26  29
ENDBRANCH  22  23
ENDBRANCH   1  22
TORSDOF 7
