REMARK  Name = ZINC09731125
REMARK  5 active torsions:
REMARK  status: ('A' for Active; 'I' for Inactive)
REMARK    1  A    between atoms: C_1  and  C_2
REMARK    2  A    between atoms: C_2  and  N_3
REMARK    3  A    between atoms: C_5  and  C_27
REMARK    4  A    between atoms: C_12  and  S_14
REMARK    5  A    between atoms: S_14  and  N_17
REMARK                            x       y       z     vdW  Elec       q    Type
REMARK                         _______ _______ _______ _____ _____    ______ ____
ROOT
ATOM      1  N   UNL     1       3.238   1.130   5.527  0.00  0.00    -0.346 N 
ATOM      2  C   UNL     1       4.391   0.796   6.122  0.00  0.00    +0.103 A 
ATOM      3  C   UNL     1       5.603   0.864   5.468  0.00  0.00    +0.100 A 
ATOM      4  C   UNL     1       5.631   1.319   4.069  0.00  0.00    +0.202 A 
ATOM      5  O   UNL     1       6.677   1.397   3.447  0.00  0.00    -0.286 OA
ATOM      6  C   UNL     1       4.341   1.677   3.450  0.00  0.00    +0.048 A 
ATOM      7  C   UNL     1       3.171   1.566   4.221  0.00  0.00    +0.053 A 
ATOM      8  C   UNL     1       1.947   1.901   3.649  0.00  0.00    +0.028 A 
ATOM      9  C   UNL     1       1.894   2.340   2.344  0.00  0.00    +0.030 A 
ATOM     10  C   UNL     1       3.050   2.444   1.584  0.00  0.00    +0.106 A 
ATOM     11  C   UNL     1       4.272   2.118   2.129  0.00  0.00    +0.042 A 
ENDROOT
BRANCH   3  12
ATOM     12  C   UNL     1       6.847   0.488   6.157  0.00  0.00    +0.256 C 
ATOM     13  O   UNL     1       7.891   0.421   5.535  0.00  0.00    -0.269 OA
ATOM     14  N   UNL     1       6.830   0.216   7.477  0.00  0.00    -0.267 N 
ATOM     15  C   UNL     1       5.624   0.158   8.307  0.00  0.00    +0.119 C 
ATOM     16  C   UNL     1       6.124  -0.185   9.720  0.00  0.00    +0.056 C 
ATOM     17  C   UNL     1       7.626  -0.289   9.578  0.00  0.00    -0.024 A 
ATOM     18  C   UNL     1       7.961  -0.045   8.255  0.00  0.00    +0.040 A 
ATOM     19  C   UNL     1       9.305  -0.086   7.879  0.00  0.00    +0.024 A 
ATOM     20  C   UNL     1      10.281  -0.366   8.812  0.00  0.00    +0.002 A 
ATOM     21  C   UNL     1       9.935  -0.607  10.129  0.00  0.00    +0.000 A 
ATOM     22  C   UNL     1       8.607  -0.569  10.510  0.00  0.00    +0.005 A 
ENDBRANCH   3  12
BRANCH  10  23
ATOM     23  S   UNL     1       2.955   3.003  -0.085  0.00  0.00    +0.061 S 
ATOM     24  O   UNL     1       4.231   3.538  -0.407  0.00  0.00    -0.153 OA
ATOM     25  O   UNL     1       1.760   3.764  -0.191  0.00  0.00    -0.153 OA
BRANCH  23  26
ATOM     26  N   UNL     1       2.749   1.664  -1.038  0.00  0.00    -0.172 NA
ATOM     27  C   UNL     1       3.901   0.931  -1.589  0.00  0.00    +0.114 C 
ATOM     28  C   UNL     1       3.900  -0.470  -0.980  0.00  0.00    +0.052 C 
ATOM     29  C   UNL     1       2.527  -1.085  -1.054  0.00  0.00    -0.042 A 
ATOM     30  C   UNL     1       2.434  -2.467  -0.938  0.00  0.00    +0.004 A 
ATOM     31  C   UNL     1       1.206  -3.093  -0.984  0.00  0.00    +0.000 A 
ATOM     32  C   UNL     1       0.057  -2.342  -1.147  0.00  0.00    +0.000 A 
ATOM     33  C   UNL     1       0.147  -0.971  -1.266  0.00  0.00    +0.005 A 
ATOM     34  C   UNL     1       1.383  -0.340  -1.223  0.00  0.00    -0.028 A 
ATOM     35  C   UNL     1       1.411   1.161  -1.369  0.00  0.00    +0.144 C 
ENDBRANCH  23  26
ENDBRANCH  10  23
BRANCH   1  37
ATOM     36  C   UNL     1       1.321  -0.314   6.000  0.00  0.00    +0.027 C 
ATOM     37  C   UNL     1       1.996   1.027   6.296  0.00  0.00    +0.118 C 
ENDBRANCH   1  37
TORSDOF 4
