REMARK  Name = ZINC23259832
REMARK  12 active torsions:
REMARK  status: ('A' for Active; 'I' for Inactive)
REMARK    1  A    between atoms: C_1  and  C_2
REMARK    2  A    between atoms: C_7  and  N_8
REMARK    3  A    between atoms: C_9  and  C_11
REMARK    4  A    between atoms: C_11  and  N_12
REMARK    5  A    between atoms: C_13  and  C_15
REMARK    6  A    between atoms: C_15  and  N_16
REMARK    7  A    between atoms: N_16  and  C_17
REMARK    8  A    between atoms: N_16  and  C_18
REMARK    9  A    between atoms: C_18  and  C_20
REMARK   10  A    between atoms: C_18  and  C_21
REMARK   11  A    between atoms: C_24  and  S_27
REMARK   12  A    between atoms: S_27  and  N_30
REMARK                            x       y       z     vdW  Elec       q    Type
REMARK                         _______ _______ _______ _____ _____    ______ ____
ROOT
ATOM      1  C   UNL     1       1.591   1.709  -0.791  0.00  0.00    +0.019 C 
ENDROOT
BRANCH   1   3
ATOM      2  N   UNL     1       0.336  -0.408  -1.042  0.00  0.00    -0.308 N 
ATOM      3  C   UNL     1       0.315   0.908  -0.754  0.00  0.00    +0.197 C 
ATOM      4  O   UNL     1      -0.733   1.450  -0.469  0.00  0.00    -0.278 OA
ATOM      5  H   UNL     1       1.286  -0.899  -1.304  0.00  0.00    +0.149 HD
BRANCH   2   6
ATOM      6  C   UNL     1      -0.904  -1.187  -1.005  0.00  0.00    +0.200 C 
BRANCH   6   8
ATOM      7  N   UNL     1      -1.606  -3.526  -1.395  0.00  0.00    -0.284 N 
ATOM      8  C   UNL     1      -0.609  -2.620  -1.363  0.00  0.00    +0.234 C 
ATOM      9  O   UNL     1       0.526  -2.959  -1.624  0.00  0.00    -0.274 OA
ATOM     10  H   UNL     1      -2.619  -3.241  -1.074  0.00  0.00    +0.155 HD
BRANCH   7  17
ATOM     11  C   UNL     1      -3.449  -5.570  -0.672  0.00  0.00    +0.046 C 
ATOM     12  C   UNL     1      -2.227  -5.858  -1.506  0.00  0.00    -0.028 A 
ATOM     13  C   UNL     1      -1.977  -7.143  -1.946  0.00  0.00    +0.020 A 
ATOM     14  C   UNL     1      -0.852  -7.409  -2.706  0.00  0.00    +0.018 A 
ATOM     15  C   UNL     1       0.023  -6.388  -3.031  0.00  0.00    +0.017 A 
ATOM     16  C   UNL     1      -0.224  -5.100  -2.598  0.00  0.00    +0.024 A 
ATOM     17  C   UNL     1      -1.353  -4.830  -1.835  0.00  0.00    +0.036 A 
ATOM     18 BR   UNL     1      -0.510  -9.171  -3.300  0.00  0.00    -0.050 Br
ENDBRANCH   7  17
ENDBRANCH   6   8
ENDBRANCH   2   6
ENDBRANCH   1   3
BRANCH   1  19
ATOM     19  N   UNL     1       1.303   3.106  -0.442  0.00  0.00    +0.388 N 
ATOM     20  C   UNL     1       0.461   3.742  -1.464  0.00  0.00    -0.095 C 
ATOM     21  H   UNL     1       0.744   3.109   0.506  0.00  0.00    -0.081 HD
BRANCH  19  22
ATOM     22  C   UNL     1       2.544   3.864  -0.236  0.00  0.00    -0.041 C 
ATOM     23  C   UNL     1       3.261   4.042  -1.576  0.00  0.00    -0.008 C 
BRANCH  22  24
ATOM     24  C   UNL     1       2.217   5.217   0.342  0.00  0.00    -0.061 A 
ATOM     25  C   UNL     1       2.934   6.330  -0.055  0.00  0.00    +0.004 A 
ATOM     26  C   UNL     1       2.631   7.572   0.471  0.00  0.00    +0.029 A 
ATOM     27  C   UNL     1       1.617   7.699   1.402  0.00  0.00    +0.105 A 
ATOM     28  C   UNL     1       0.903   6.585   1.802  0.00  0.00    +0.029 A 
ATOM     29  C   UNL     1       1.203   5.344   1.272  0.00  0.00    +0.004 A 
BRANCH  27  30
ATOM     30  S   UNL     1       1.235   9.280   2.078  0.00  0.00    +0.056 S 
ATOM     31  O   UNL     1       1.684  10.244   1.135  0.00  0.00    -0.153 OA
ATOM     32  O   UNL     1      -0.114   9.218   2.521  0.00  0.00    -0.153 OA
BRANCH  30  33
ATOM     33  N   UNL     1       2.169   9.473   3.432  0.00  0.00    -0.204 NA
ATOM     34  H   UNL     1       1.959  10.452   3.886  0.00  0.00    +0.144 HD
ATOM     35  H   UNL     1       3.232   9.416   3.155  0.00  0.00    +0.144 HD
ENDBRANCH  30  33
ENDBRANCH  27  30
ENDBRANCH  22  24
ENDBRANCH  19  22
ENDBRANCH   1  19
TORSDOF 9
