REMARK  Name = ZINC08743713
REMARK  7 active torsions:
REMARK  status: ('A' for Active; 'I' for Inactive)
REMARK    1  A    between atoms: C_1  and  C_2
REMARK    2  A    between atoms: C_2  and  O_3
REMARK    3  A    between atoms: O_3  and  C_4
REMARK    4  A    between atoms: C_4  and  C_6
REMARK    5  A    between atoms: C_6  and  S_7
REMARK    6  A    between atoms: S_7  and  C_8
REMARK    7  A    between atoms: N_15  and  C_16
REMARK                            x       y       z     vdW  Elec       q    Type
REMARK                         _______ _______ _______ _____ _____    ______ ____
ROOT
ATOM      1  C   UNL     1       0.038  -0.566  -0.112  0.00  0.00    +0.227 C 
ATOM      2  N   UNL     1       1.004  -0.982  -1.138  0.00  0.00    -0.316 N 
ATOM      3  C   UNL     1       2.268  -0.438  -1.111  0.00  0.00    +0.045 C 
ATOM      4  C   UNL     1       2.781  -0.005   0.077  0.00  0.00    +0.043 C 
ATOM      5  C   UNL     1       2.020  -0.151   1.253  0.00  0.00    +0.251 C 
ATOM      6  O   UNL     1       2.542   0.031   2.339  0.00  0.00    -0.270 OA
ATOM      7  N   UNL     1       0.719  -0.491   1.184  0.00  0.00    -0.239 N 
ATOM      8  C   UNL     1       4.135   0.653   0.126  0.00  0.00    +0.006 C 
ATOM      9  C   UNL     1       4.714   0.512   1.537  0.00  0.00    +0.012 C 
ATOM     10  C   UNL     1       6.085   1.188   1.595  0.00  0.00    +0.001 C 
ATOM     11  C   UNL     1       5.938   2.672   1.254  0.00  0.00    +0.000 C 
ATOM     12  C   UNL     1       5.356   2.816  -0.154  0.00  0.00    +0.001 C 
ATOM     13  C   UNL     1       3.985   2.140  -0.210  0.00  0.00    +0.012 C 
ATOM     14  C   UNL     1       5.085   0.001  -0.877  0.00  0.00    +0.047 C 
ATOM     15  C   UNL     1       4.443  -0.073  -2.237  0.00  0.00    -0.038 A 
ATOM     16  C   UNL     1       3.068  -0.301  -2.341  0.00  0.00    -0.000 A 
ATOM     17  C   UNL     1       2.472  -0.393  -3.598  0.00  0.00    +0.010 A 
ATOM     18  C   UNL     1       3.244  -0.245  -4.733  0.00  0.00    +0.001 A 
ATOM     19  C   UNL     1       4.602  -0.006  -4.624  0.00  0.00    +0.000 A 
ATOM     20  C   UNL     1       5.200   0.079  -3.378  0.00  0.00    +0.004 A 
ATOM     21  H   UNL     1       0.711  -1.714  -1.905  0.00  0.00    +0.149 HD
ENDROOT
BRANCH   7  22
ATOM     22  C   UNL     1       0.012  -0.774   2.357  0.00  0.00    +0.039 A 
ATOM     23  C   UNL     1      -0.056  -2.078   2.831  0.00  0.00    +0.023 A 
ATOM     24  C   UNL     1      -0.750  -2.353   3.993  0.00  0.00    +0.002 A 
ATOM     25  C   UNL     1      -1.386  -1.335   4.678  0.00  0.00    +0.000 A 
ATOM     26  C   UNL     1      -1.325  -0.036   4.206  0.00  0.00    +0.002 A 
ATOM     27  C   UNL     1      -0.628   0.247   3.048  0.00  0.00    +0.023 A 
ENDBRANCH   7  22
BRANCH   1  28
ATOM     28  S   UNL     1      -0.636   1.063  -0.538  0.00  0.00    -0.108 S 
BRANCH  28  29
ATOM     29  C   UNL     1       0.820   2.143  -0.583  0.00  0.00    +0.193 C 
BRANCH  29  30
ATOM     30  C   UNL     1       0.395   3.546  -0.930  0.00  0.00    +0.317 C 
ATOM     31  O   UNL     1      -0.772   3.792  -1.128  0.00  0.00    -0.250 OA
BRANCH  30  32
ATOM     32  O   UNL     1       1.311   4.523  -1.020  0.00  0.00    -0.464 OA
BRANCH  32  34
ATOM     33  C   UNL     1       2.009   6.822  -1.415  0.00  0.00    +0.048 C 
ATOM     34  C   UNL     1       0.829   5.850  -1.359  0.00  0.00    +0.229 C 
ENDBRANCH  32  34
ENDBRANCH  30  32
ENDBRANCH  29  30
ENDBRANCH  28  29
ENDBRANCH   1  28
TORSDOF 6
