REMARK  Name = ZINC23696591
REMARK  9 active torsions:
REMARK  status: ('A' for Active; 'I' for Inactive)
REMARK    1  A    between atoms: C_1  and  C_2
REMARK    2  A    between atoms: C_2  and  C_26
REMARK    3  A    between atoms: N_5  and  N_9
REMARK    4  A    between atoms: C_10  and  C_12
REMARK    5  A    between atoms: C_12  and  N_13
REMARK    6  A    between atoms: N_16  and  C_19
REMARK    7  A    between atoms: C_22  and  O_25
REMARK    8  A    between atoms: C_26  and  C_27
REMARK    9  A    between atoms: C_27  and  C_28
REMARK                            x       y       z     vdW  Elec       q    Type
REMARK                         _______ _______ _______ _____ _____    ______ ____
ROOT
ATOM      1  N   UNL     1       2.819  -1.836  -1.360  0.00  0.00    -0.223 N 
ATOM      2  C   UNL     1       4.059  -1.315  -1.441  0.00  0.00    +0.244 C 
ATOM      3  O   UNL     1       4.323  -0.284  -0.860  0.00  0.00    -0.273 OA
ATOM      4  H   UNL     1       2.608  -2.661  -1.825  0.00  0.00    +0.174 HD
ENDROOT
BRANCH   1   9
ATOM      5  C   UNL     1       0.007   1.566   0.064  0.00  0.00    +0.041 C 
ATOM      6  C   UNL     1       0.016   0.036   0.043  0.00  0.00    +0.112 C 
ATOM      7  C   UNL     1       0.819  -0.476  -1.137  0.00  0.00    +0.263 C 
ATOM      8  O   UNL     1       0.595  -0.286  -2.313  0.00  0.00    -0.271 OA
ATOM      9  N   UNL     1       1.834  -1.186  -0.605  0.00  0.00    -0.137 N 
ATOM     10  C   UNL     1       1.785  -1.193   0.732  0.00  0.00    +0.326 C 
ATOM     11  O   UNL     1       2.593  -1.767   1.434  0.00  0.00    -0.251 OA
ATOM     12  N   UNL     1       0.740  -0.494   1.211  0.00  0.00    -0.284 N 
ATOM     13  H   UNL     1       0.508  -0.364   2.144  0.00  0.00    +0.151 HD
BRANCH   6  14
ATOM     14  C   UNL     1      -1.413  -0.509   0.002  0.00  0.00    +0.040 C 
BRANCH  14  15
ATOM     15  C   UNL     1      -2.180  -0.019   1.232  0.00  0.00    +0.038 C 
BRANCH  15  16
ATOM     16  C   UNL     1      -3.588  -0.556   1.193  0.00  0.00    -0.047 A 
ATOM     17  C   UNL     1      -4.585   0.166   0.564  0.00  0.00    +0.003 A 
ATOM     18  C   UNL     1      -5.877  -0.327   0.527  0.00  0.00    +0.000 A 
ATOM     19  C   UNL     1      -6.171  -1.540   1.119  0.00  0.00    +0.000 A 
ATOM     20  C   UNL     1      -5.173  -2.263   1.748  0.00  0.00    +0.000 A 
ATOM     21  C   UNL     1      -3.881  -1.772   1.780  0.00  0.00    +0.003 A 
ENDBRANCH  15  16
ENDBRANCH  14  15
ENDBRANCH   6  14
ENDBRANCH   1   9
BRANCH   2  22
ATOM     22  C   UNL     1       5.119  -2.015  -2.253  0.00  0.00    +0.182 C 
BRANCH  22  23
ATOM     23  N   UNL     1       6.373  -1.253  -2.182  0.00  0.00    -0.291 NA
ATOM     24  C   UNL     1       6.231   0.056  -2.833  0.00  0.00    +0.104 C 
ATOM     25  C   UNL     1       7.494   0.887  -2.580  0.00  0.00    +0.120 C 
ATOM     26  N   UNL     1       8.663   0.103  -3.008  0.00  0.00    -0.327 N 
ATOM     27  C   UNL     1       8.801  -1.272  -2.503  0.00  0.00    +0.120 C 
ATOM     28  C   UNL     1       7.487  -2.018  -2.759  0.00  0.00    +0.104 C 
BRANCH  26  29
ATOM     29  C   UNL     1       9.618   0.651  -3.872  0.00  0.00    +0.030 A 
ATOM     30  C   UNL     1       9.414   1.907  -4.427  0.00  0.00    +0.027 A 
ATOM     31  C   UNL     1      10.357   2.447  -5.279  0.00  0.00    +0.047 A 
ATOM     32  C   UNL     1      11.508   1.734  -5.580  0.00  0.00    +0.117 A 
ATOM     33  C   UNL     1      11.713   0.479  -5.027  0.00  0.00    +0.047 A 
ATOM     34  C   UNL     1      10.773  -0.060  -4.170  0.00  0.00    +0.027 A 
BRANCH  32  35
ATOM     35  O   UNL     1      12.436   2.266  -6.420  0.00  0.00    -0.507 OA
ATOM     36  H   UNL     1      13.115   2.791  -5.973  0.00  0.00    +0.292 HD
ENDBRANCH  32  35
ENDBRANCH  26  29
ENDBRANCH  22  23
ENDBRANCH   2  22
TORSDOF 8
