REMARK  Name = ZINC08430219
REMARK  10 active torsions:
REMARK  status: ('A' for Active; 'I' for Inactive)
REMARK    1  A    between atoms: C_1  and  C_2
REMARK    2  A    between atoms: C_2  and  O_3
REMARK    3  A    between atoms: O_3  and  C_4
REMARK    4  A    between atoms: C_6  and  C_12
REMARK    5  A    between atoms: C_9  and  O_10
REMARK    6  A    between atoms: C_22  and  C_29
REMARK    7  A    between atoms: C_23  and  C_24
REMARK    8  A    between atoms: C_24  and  O_26
REMARK    9  A    between atoms: O_26  and  C_27
REMARK   10  A    between atoms: C_27  and  C_28
REMARK                            x       y       z     vdW  Elec       q    Type
REMARK                         _______ _______ _______ _____ _____    ______ ____
ROOT
ATOM      1  C   UNL     1       1.156   2.138  -0.026  0.00  0.00    +0.092 C 
ATOM      2  C   UNL     1       2.379   1.365  -0.451  0.00  0.00    +0.024 C 
ATOM      3  C   UNL     1       2.389   0.016  -0.415  0.00  0.00    +0.015 C 
ATOM      4  C   UNL     1       3.609  -0.764  -0.839  0.00  0.00    +0.051 C 
ATOM      5  C   UNL     1       4.869   0.053  -0.545  0.00  0.00    +0.014 C 
ATOM      6  C   UNL     1       4.770   1.385  -1.296  0.00  0.00    +0.080 C 
ATOM      7  C   UNL     1       3.506   2.088  -0.881  0.00  0.00    +0.162 C 
ATOM      8  O   UNL     1       3.458   3.301  -0.918  0.00  0.00    -0.292 OA
ATOM      9  N   UNL     1       1.285  -0.676   0.005  0.00  0.00    -0.321 N 
ATOM     10  C   UNL     1       0.053  -0.083   0.012  0.00  0.00    +0.016 C 
ATOM     11  C   UNL     1      -0.058   1.256  -0.006  0.00  0.00    +0.065 C 
ATOM     12  C   UNL     1      -1.189  -0.937   0.040  0.00  0.00    +0.061 C 
ATOM     13  H   UNL     1       1.384  -1.719   0.341  0.00  0.00    +0.152 HD
ENDROOT
BRANCH   1  16
ATOM     14  C   UNL     1       1.576   4.588   2.819  0.00  0.00    +0.163 A 
ATOM     15  C   UNL     1       1.369   4.069   1.551  0.00  0.00    +0.054 A 
ATOM     16  C   UNL     1       1.381   2.701   1.354  0.00  0.00    -0.030 A 
ATOM     17  C   UNL     1       1.593   1.847   2.421  0.00  0.00    +0.023 A 
ATOM     18  C   UNL     1       1.805   2.359   3.688  0.00  0.00    +0.063 A 
ATOM     19  C   UNL     1       1.794   3.730   3.892  0.00  0.00    +0.173 A 
ATOM     20 BR   UNL     1       2.101   1.188   5.144  0.00  0.00    -0.046 Br
BRANCH  19  21
ATOM     21  O   UNL     1       1.998   4.235   5.139  0.00  0.00    -0.503 OA
ATOM     22  H   UNL     1       2.171   3.556   5.986  0.00  0.00    +0.292 HD
ENDBRANCH  19  21
BRANCH  14  23
ATOM     23  O   UNL     1       1.565   5.934   3.015  0.00  0.00    -0.489 OA
BRANCH  23  25
ATOM     24  C   UNL     1       1.356   8.227   2.280  0.00  0.00    +0.048 C 
ATOM     25  C   UNL     1       1.334   6.754   1.867  0.00  0.00    +0.226 C 
ENDBRANCH  23  25
ENDBRANCH  14  23
ENDBRANCH   1  16
BRANCH  11  26
ATOM     26  C   UNL     1      -1.344   1.845  -0.012  0.00  0.00    +0.338 C 
ATOM     27  O   UNL     1      -2.334   1.145  -0.107  0.00  0.00    -0.245 OA
BRANCH  26  28
ATOM     28  O   UNL     1      -1.473   3.185   0.088  0.00  0.00    -0.462 OA
BRANCH  28  29
ATOM     29  C   UNL     1      -2.801   3.712   0.076  0.00  0.00    +0.229 C 
ATOM     30  C   UNL     1      -2.746   5.236   0.197  0.00  0.00    +0.048 C 
ENDBRANCH  28  29
ENDBRANCH  26  28
ENDBRANCH  11  26
TORSDOF 7
