REMARK  Name = ZINC20885453
REMARK  8 active torsions:
REMARK  status: ('A' for Active; 'I' for Inactive)
REMARK    1  A    between atoms: C_1  and  C_2
REMARK    2  A    between atoms: C_2  and  C_3
REMARK    3  A    between atoms: C_2  and  O_4
REMARK    4  A    between atoms: O_4  and  C_5
REMARK    5  A    between atoms: C_8  and  C_11
REMARK    6  A    between atoms: C_16  and  C_22
REMARK    7  A    between atoms: C_25  and  O_29
REMARK    8  A    between atoms: O_29  and  C_30
REMARK                            x       y       z     vdW  Elec       q    Type
REMARK                         _______ _______ _______ _____ _____    ______ ____
ROOT
ATOM      1  C   UNL     1      -2.512   0.976   0.022  0.00  0.00    +0.032 C 
ATOM      2  C   UNL     1      -3.208   1.133  -1.332  0.00  0.00    +0.059 C 
ATOM      3  C   UNL     1      -4.526   0.400  -1.312  0.00  0.00    +0.018 C 
ATOM      4  C   UNL     1      -5.228   0.269  -0.167  0.00  0.00    +0.020 C 
ATOM      5  C   UNL     1      -6.549  -0.464  -0.173  0.00  0.00    +0.063 C 
ATOM      6  C   UNL     1      -6.484  -1.618  -1.175  0.00  0.00    +0.109 C 
ATOM      7  C   UNL     1      -5.927  -1.108  -2.479  0.00  0.00    +0.218 C 
ATOM      8  O   UNL     1      -6.315  -1.578  -3.527  0.00  0.00    -0.275 OA
ATOM      9  N   UNL     1      -5.001  -0.134  -2.483  0.00  0.00    -0.289 N 
ATOM     10  C   UNL     1      -4.756   0.801   1.045  0.00  0.00    +0.162 C 
ATOM     11  O   UNL     1      -5.422   0.675   2.053  0.00  0.00    -0.292 OA
ATOM     12  C   UNL     1      -3.438   1.524   1.113  0.00  0.00    +0.088 C 
ATOM     13  H   UNL     1      -4.625   0.235  -3.449  0.00  0.00    +0.155 HD
ENDROOT
BRANCH   5  14
ATOM     14  C   UNL     1      -7.649   0.486  -0.569  0.00  0.00    -0.038 A 
ATOM     15  C   UNL     1      -8.698   0.728   0.298  0.00  0.00    +0.008 A 
ATOM     16  C   UNL     1      -9.709   1.598  -0.062  0.00  0.00    +0.047 A 
ATOM     17  C   UNL     1      -9.671   2.230  -1.296  0.00  0.00    +0.134 A 
ATOM     18  C   UNL     1      -8.617   1.986  -2.166  0.00  0.00    +0.060 A 
ATOM     19  C   UNL     1      -7.606   1.118  -1.798  0.00  0.00    +0.023 A 
ATOM     20 BR   UNL     1      -8.560   2.846  -3.849  0.00  0.00    -0.047 Br
BRANCH  17  21
ATOM     21  O   UNL     1     -10.663   3.087  -1.653  0.00  0.00    -0.494 OA
ATOM     22  C   UNL     1     -11.716   3.291  -0.708  0.00  0.00    +0.277 C 
ENDBRANCH  17  21
ENDBRANCH   5  14
BRANCH   1  26
ATOM     23  C   UNL     1       1.155   3.169   0.009  0.00  0.00    +0.121 A 
ATOM     24  C   UNL     1       1.166   1.798   0.220  0.00  0.00    +0.046 A 
ATOM     25  C   UNL     1      -0.021   1.092   0.227  0.00  0.00    +0.007 A 
ATOM     26  C   UNL     1      -1.219   1.750   0.019  0.00  0.00    -0.043 A 
ATOM     27  C   UNL     1      -1.234   3.117  -0.185  0.00  0.00    +0.007 A 
ATOM     28  C   UNL     1      -0.049   3.828  -0.194  0.00  0.00    +0.046 A 
BRANCH  23  29
ATOM     29  O   UNL     1       2.322   3.866   0.001  0.00  0.00    -0.489 OA
BRANCH  29  31
ATOM     30  C   UNL     1       4.679   3.903  -0.529  0.00  0.00    +0.051 C 
ATOM     31  C   UNL     1       3.530   3.110   0.097  0.00  0.00    +0.167 C 
ATOM     32  C   UNL     1       3.843   2.833   1.569  0.00  0.00    +0.051 C 
ENDBRANCH  29  31
ENDBRANCH  23  29
ENDBRANCH   1  26
TORSDOF 5
