REMARK  Name = ZINC05795815
REMARK  4 active torsions:
REMARK  status: ('A' for Active; 'I' for Inactive)
REMARK    1  A    between atoms: C_10  and  C_11
REMARK    2  A    between atoms: C_11  and  S_12
REMARK    3  A    between atoms: S_12  and  C_13
REMARK    4  A    between atoms: N_17  and  C_18
REMARK                            x       y       z     vdW  Elec       q    Type
REMARK                         _______ _______ _______ _____ _____    ______ ____
ROOT
ATOM      1  S   UNL     1      -3.169   4.101  -1.653  0.00  0.00    -0.080 S 
ENDROOT
BRANCH   1   2
ATOM      2  C   UNL     1      -4.702   4.914  -1.344  0.00  0.00    +0.214 A 
ATOM      3  N   UNL     1      -5.220   5.189  -0.166  0.00  0.00    -0.101 NA
ATOM      4  N   UNL     1      -6.348   5.786  -0.298  0.00  0.00    -0.022 NA
ATOM      5  N   UNL     1      -6.636   5.938  -1.545  0.00  0.00    -0.038 NA
ATOM      6  N   UNL     1      -5.574   5.382  -2.280  0.00  0.00    -0.187 N 
BRANCH   6   7
ATOM      7  C   UNL     1      -5.443   5.320  -3.675  0.00  0.00    +0.073 A 
ATOM      8  C   UNL     1      -4.191   5.444  -4.261  0.00  0.00    +0.028 A 
ATOM      9  C   UNL     1      -4.062   5.378  -5.635  0.00  0.00    +0.005 A 
ATOM     10  C   UNL     1      -5.180   5.198  -6.428  0.00  0.00    +0.038 A 
ATOM     11  C   UNL     1      -6.432   5.079  -5.847  0.00  0.00    +0.125 A 
ATOM     12  C   UNL     1      -6.565   5.139  -4.471  0.00  0.00    +0.066 A 
ATOM     13  F   UNL     1      -7.523   4.904  -6.624  0.00  0.00    -0.205 F 
ENDBRANCH   6   7
ENDBRANCH   1   2
BRANCH   1  14
ATOM     14  C   UNL     1      -2.620   3.811   0.048  0.00  0.00    +0.113 C 
BRANCH  14  24
ATOM     15  C   UNL     1       2.287   5.270   0.008  0.00  0.00    +0.001 A 
ATOM     16  C   UNL     1       1.064   5.940   0.023  0.00  0.00    +0.001 A 
ATOM     17  C   UNL     1      -0.111   5.254   0.031  0.00  0.00    +0.009 A 
ATOM     18  C   UNL     1      -0.095   3.848   0.024  0.00  0.00    -0.014 A 
ATOM     19  C   UNL     1       1.147   3.167   0.008  0.00  0.00    -0.018 A 
ATOM     20  C   UNL     1       2.340   3.910   0.000  0.00  0.00    +0.008 A 
ATOM     21  C   UNL     1       1.163   1.762   0.000  0.00  0.00    +0.008 A 
ATOM     22  C   UNL     1      -0.013   1.076   0.008  0.00  0.00    +0.001 A 
ATOM     23  C   UNL     1      -1.234   1.746   0.017  0.00  0.00    +0.005 A 
ATOM     24  C   UNL     1      -1.288   3.106   0.032  0.00  0.00    -0.029 A 
ENDBRANCH  14  24
ENDBRANCH   1  14
TORSDOF 4
