REMARK  Name = ZINC67271763
REMARK  2 active torsions:
REMARK  status: ('A' for Active; 'I' for Inactive)
REMARK    1  A    between atoms: C_1  and  C_2
REMARK    2  A    between atoms: C_10  and  C_12
REMARK                            x       y       z     vdW  Elec       q    Type
REMARK                         _______ _______ _______ _____ _____    ______ ____
ROOT
ATOM      1  C   UNL     1      -2.019  -3.489   3.073  0.00  0.00    +0.075 C 
ATOM      2  C   UNL     1      -2.129  -4.855   2.393  0.00  0.00    +0.015 C 
ATOM      3  C   UNL     1      -3.481  -5.486   2.734  0.00  0.00    +0.036 C 
ATOM      4  C   UNL     1      -3.604  -5.641   4.246  0.00  0.00    +0.112 C 
ATOM      5  C   UNL     1      -3.475  -4.289   4.939  0.00  0.00    +0.036 C 
ATOM      6  C   UNL     1      -2.123  -3.662   4.590  0.00  0.00    +0.015 C 
ATOM      7  C   UNL     1      -4.919  -6.295   4.604  0.00  0.00    +0.244 C 
ATOM      8  O   UNL     1      -6.033  -5.874   4.379  0.00  0.00    -0.273 OA
ATOM      9  N   UNL     1      -4.591  -7.446   5.227  0.00  0.00    -0.238 N 
ATOM     10  C   UNL     1      -3.264  -7.601   5.309  0.00  0.00    +0.307 C 
ATOM     11  O   UNL     1      -2.726  -8.560   5.828  0.00  0.00    -0.252 OA
ATOM     12  N   UNL     1      -2.591  -6.577   4.751  0.00  0.00    -0.285 N 
ATOM     13  H   UNL     1      -5.236  -8.081   5.574  0.00  0.00    +0.159 HD
ATOM     14  H   UNL     1      -1.628  -6.476   4.694  0.00  0.00    +0.151 HD
ENDROOT
BRANCH   1  23
ATOM     15  C   UNL     1      -0.019   1.526   0.010  0.00  0.00    +0.007 C 
ATOM     16  C   UNL     1       0.002  -0.004   0.002  0.00  0.00    -0.013 C 
ATOM     17  C   UNL     1      -1.437  -0.508  -0.045  0.00  0.00    +0.005 C 
ATOM     18  C   UNL     1      -1.468  -1.874  -0.685  0.00  0.00    +0.019 C 
ATOM     19  C   UNL     1      -1.355  -2.966   0.395  0.00  0.00    +0.108 C 
ATOM     20  N   UNL     1      -0.378  -2.613   1.443  0.00  0.00    -0.301 N 
ATOM     21  C   UNL     1       0.902  -2.010   1.147  0.00  0.00    +0.108 C 
ATOM     22  C   UNL     1       0.765  -0.467   1.171  0.00  0.00    +0.022 C 
ATOM     23  C   UNL     1      -0.692  -2.862   2.730  0.00  0.00    +0.219 C 
ATOM     24  O   UNL     1       0.092  -2.581   3.611  0.00  0.00    -0.275 OA
ENDBRANCH   1  23
TORSDOF 1
