REMARK  Name = ZINC09780976
REMARK  9 active torsions:
REMARK  status: ('A' for Active; 'I' for Inactive)
REMARK    1  A    between atoms: C_1  and  C_2
REMARK    2  A    between atoms: C_2  and  N_3
REMARK    3  A    between atoms: N_3  and  C_4
REMARK    4  A    between atoms: N_3  and  C_6
REMARK    5  A    between atoms: C_4  and  C_5
REMARK    6  A    between atoms: C_9  and  C_12
REMARK    7  A    between atoms: C_19  and  S_30
REMARK    8  A    between atoms: S_30  and  C_31
REMARK    9  A    between atoms: C_31  and  C_32
REMARK                            x       y       z     vdW  Elec       q    Type
REMARK                         _______ _______ _______ _____ _____    ______ ____
ROOT
ATOM      1  C   UNL     1       9.370  -3.857  -0.808  0.00  0.00    +0.092 C 
ATOM      2  C   UNL     1       8.076  -3.143  -1.058  0.00  0.00    +0.069 A 
ATOM      3  C   UNL     1       7.643  -2.901  -2.367  0.00  0.00    +0.258 A 
ATOM      4  O   UNL     1       8.309  -3.270  -3.321  0.00  0.00    -0.267 OA
ATOM      5  N   UNL     1       6.474  -2.252  -2.554  0.00  0.00    -0.302 N 
ATOM      6  H   UNL     1       6.156  -2.079  -3.454  0.00  0.00    +0.171 HD
ATOM      7  C   UNL     1       5.740  -1.842  -1.483  0.00  0.00    +0.171 A 
ATOM      8  N   UNL     1       6.146  -2.063  -0.249  0.00  0.00    -0.208 NA
ATOM      9  C   UNL     1       7.290  -2.710  -0.004  0.00  0.00    +0.135 A 
ATOM     10  N   UNL     1       7.698  -2.945   1.294  0.00  0.00    -0.302 N 
ATOM     11  C   UNL     1       8.626  -3.912   1.569  0.00  0.00    +0.017 C 
ATOM     12  C   UNL     1       9.446  -4.380   0.605  0.00  0.00    +0.024 C 
ATOM     13  C   UNL     1      10.403  -5.371   0.886  0.00  0.00    +0.162 C 
ATOM     14  O   UNL     1      11.115  -5.784  -0.008  0.00  0.00    -0.292 OA
ATOM     15  C   UNL     1      10.564  -5.930   2.273  0.00  0.00    +0.080 C 
ATOM     16  C   UNL     1      10.141  -4.866   3.291  0.00  0.00    +0.014 C 
ATOM     17  C   UNL     1       8.703  -4.443   2.979  0.00  0.00    +0.051 C 
ATOM     18  H   UNL     1       7.322  -2.420   2.018  0.00  0.00    +0.153 HD
ENDROOT
BRANCH   1  22
ATOM     19  C   UNL     1      12.611  -1.150  -1.473  0.00  0.00    +0.030 A 
ATOM     20  C   UNL     1      12.509  -2.313  -2.226  0.00  0.00    +0.023 A 
ATOM     21  C   UNL     1      11.461  -3.186  -2.009  0.00  0.00    +0.006 A 
ATOM     22  C   UNL     1      10.513  -2.903  -1.042  0.00  0.00    -0.035 A 
ATOM     23  C   UNL     1      10.608  -1.743  -0.295  0.00  0.00    +0.006 A 
ATOM     24  C   UNL     1      11.656  -0.869  -0.503  0.00  0.00    +0.023 A 
BRANCH  19  25
ATOM     25  N   UNL     1      13.669  -0.266  -1.691  0.00  0.00    -0.330 N 
BRANCH  25  27
ATOM     26  C   UNL     1      14.601   0.683   0.361  0.00  0.00    +0.024 C 
ATOM     27  C   UNL     1      13.774   0.960  -0.896  0.00  0.00    +0.102 C 
ENDBRANCH  25  27
BRANCH  25  28
ATOM     28  C   UNL     1      14.674  -0.564  -2.714  0.00  0.00    +0.102 C 
ATOM     29  C   UNL     1      14.234   0.036  -4.051  0.00  0.00    +0.024 C 
ENDBRANCH  25  28
ENDBRANCH  19  25
ENDBRANCH   1  22
BRANCH   7  30
ATOM     30  S   UNL     1       4.220  -0.992  -1.753  0.00  0.00    -0.083 S 
BRANCH  30  31
ATOM     31  C   UNL     1       3.711  -0.707  -0.039  0.00  0.00    +0.112 C 
BRANCH  31  32
ATOM     32  C   UNL     1       2.396   0.029  -0.022  0.00  0.00    -0.037 A 
ATOM     33  C   UNL     1       1.208  -0.679  -0.014  0.00  0.00    +0.004 A 
ATOM     34  C   UNL     1       0.002  -0.004   0.002  0.00  0.00    +0.000 A 
ATOM     35  C   UNL     1      -0.017   1.378   0.010  0.00  0.00    +0.000 A 
ATOM     36  C   UNL     1       1.171   2.086   0.002  0.00  0.00    +0.000 A 
ATOM     37  C   UNL     1       2.377   1.411  -0.014  0.00  0.00    +0.004 A 
ENDBRANCH  31  32
ENDBRANCH  30  31
ENDBRANCH   7  30
TORSDOF 7
