REMARK  Name = ZINC15958195
REMARK  7 active torsions:
REMARK  status: ('A' for Active; 'I' for Inactive)
REMARK    1  A    between atoms: C_1  and  O_2
REMARK    2  A    between atoms: O_2  and  C_3
REMARK    3  A    between atoms: C_8  and  C_9
REMARK    4  A    between atoms: C_9  and  N_10
REMARK    5  A    between atoms: C_15  and  C_32
REMARK    6  A    between atoms: C_32  and  C_33
REMARK    7  A    between atoms: C_36  and  O_39
REMARK                            x       y       z     vdW  Elec       q    Type
REMARK                         _______ _______ _______ _____ _____    ______ ____
ROOT
ATOM      1  N   UNL     1       0.950  -2.876  -1.151  0.00  0.00    -0.237 N 
ATOM      2  C   UNL     1       0.910  -1.971  -2.136  0.00  0.00    +0.227 C 
ATOM      3  O   UNL     1       0.149  -1.029  -2.191  0.00  0.00    -0.275 OA
ATOM      4  C   UNL     1       1.959  -2.308  -3.171  0.00  0.00    +0.107 C 
ATOM      5  C   UNL     1       3.055  -1.221  -3.159  0.00  0.00    +0.072 C 
ATOM      6  N   UNL     1       4.018  -1.661  -2.115  0.00  0.00    -0.295 NA
ATOM      7  C   UNL     1       4.079  -3.126  -2.275  0.00  0.00    +0.136 C 
ATOM      8  C   UNL     1       2.634  -3.584  -2.596  0.00  0.00    +0.122 C 
ATOM      9  C   UNL     1       1.882  -3.823  -1.306  0.00  0.00    +0.229 C 
ATOM     10  O   UNL     1       2.089  -4.734  -0.533  0.00  0.00    -0.275 OA
ATOM     11  C   UNL     1       4.613  -3.795  -1.041  0.00  0.00    +0.003 A 
ATOM     12  C   UNL     1       4.201  -3.830   0.272  0.00  0.00    +0.008 A 
ATOM     13  C   UNL     1       4.923  -4.553   1.206  0.00  0.00    +0.000 A 
ATOM     14  C   UNL     1       6.059  -5.239   0.816  0.00  0.00    +0.002 A 
ATOM     15  C   UNL     1       6.475  -5.208  -0.499  0.00  0.00    +0.023 A 
ATOM     16  C   UNL     1       5.754  -4.483  -1.445  0.00  0.00    +0.039 A 
ATOM     17  N   UNL     1       5.968  -4.301  -2.813  0.00  0.00    -0.283 N 
ATOM     18  C   UNL     1       5.028  -3.518  -3.375  0.00  0.00    +0.243 C 
ATOM     19  O   UNL     1       4.959  -3.191  -4.541  0.00  0.00    -0.273 OA
ATOM     20  H   UNL     1       4.925  -1.244  -2.260  0.00  0.00    +0.124 HD
ATOM     21  H   UNL     1       6.709  -4.694  -3.302  0.00  0.00    +0.155 HD
ENDROOT
BRANCH   1  22
ATOM     22  C   UNL     1       0.052  -2.828   0.005  0.00  0.00    +0.155 C 
BRANCH  22  28
ATOM     23  C   UNL     1       0.626  -0.618   1.042  0.00  0.00    +0.125 A 
ATOM     24  C   UNL     1       1.202   0.139   2.051  0.00  0.00    +0.046 A 
ATOM     25  C   UNL     1       1.835  -0.488   3.107  0.00  0.00    +0.004 A 
ATOM     26  C   UNL     1       1.895  -1.869   3.158  0.00  0.00    +0.001 A 
ATOM     27  C   UNL     1       1.321  -2.625   2.153  0.00  0.00    +0.009 A 
ATOM     28  C   UNL     1       0.682  -2.003   1.097  0.00  0.00    +0.012 A 
BRANCH  23  30
ATOM     29  C   UNL     1      -0.017   1.425   0.010  0.00  0.00    +0.277 C 
ATOM     30  O   UNL     1       0.002  -0.004   0.002  0.00  0.00    -0.495 OA
ENDBRANCH  23  30
ENDBRANCH  22  28
ENDBRANCH   1  22
BRANCH   5  31
ATOM     31  C   UNL     1       2.454   0.138  -2.794  0.00  0.00    +0.054 C 
BRANCH  31  32
ATOM     32  C   UNL     1       3.514   1.202  -2.909  0.00  0.00    -0.046 A 
ATOM     33  C   UNL     1       4.303   1.511  -1.816  0.00  0.00    +0.007 A 
ATOM     34  C   UNL     1       5.275   2.487  -1.918  0.00  0.00    +0.045 A 
ATOM     35  C   UNL     1       5.460   3.158  -3.118  0.00  0.00    +0.117 A 
ATOM     36  C   UNL     1       4.667   2.846  -4.213  0.00  0.00    +0.045 A 
ATOM     37  C   UNL     1       3.700   1.866  -4.107  0.00  0.00    +0.007 A 
BRANCH  35  38
ATOM     38  O   UNL     1       6.415   4.119  -3.220  0.00  0.00    -0.507 OA
ATOM     39  H   UNL     1       7.279   3.787  -3.501  0.00  0.00    +0.292 HD
ENDBRANCH  35  38
ENDBRANCH  31  32
ENDBRANCH   5  31
TORSDOF 6
