REMARK  Name = ZINC02797325
REMARK  11 active torsions:
REMARK  status: ('A' for Active; 'I' for Inactive)
REMARK    1  A    between atoms: C_1  and  C_2
REMARK    2  A    between atoms: C_3  and  C_29
REMARK    3  A    between atoms: C_4  and  C_22
REMARK    4  A    between atoms: C_10  and  C_11
REMARK    5  A    between atoms: C_14  and  N_16
REMARK    6  A    between atoms: N_16  and  C_17
REMARK    7  A    between atoms: N_16  and  C_18
REMARK    8  A    between atoms: C_29  and  O_31
REMARK    9  A    between atoms: O_31  and  C_32
REMARK   10  A    between atoms: C_32  and  C_33
REMARK   11  A    between atoms: C_32  and  C_34
REMARK                            x       y       z     vdW  Elec       q    Type
REMARK                         _______ _______ _______ _____ _____    ______ ____
ROOT
ATOM      1  C   UNL     1       4.404   4.757   0.025  0.00  0.00    +0.066 C 
ATOM      2  C   UNL     1       3.320   3.710   0.009  0.00  0.00    +0.053 C 
ATOM      3  C   UNL     1       3.656   2.387  -0.074  0.00  0.00    +0.085 C 
ATOM      4  C   UNL     1       2.539   1.369  -0.087  0.00  0.00    +0.162 C 
ATOM      5  N   UNL     1       1.146   1.889  -0.008  0.00  0.00    -0.275 N 
ATOM      6  C   UNL     1       0.025   1.157  -0.005  0.00  0.00    +0.268 A 
ATOM      7  O   UNL     1       0.070  -0.059  -0.071  0.00  0.00    -0.266 OA
ATOM      8  C   UNL     1      -1.216   1.836   0.072  0.00  0.00    +0.084 A 
ATOM      9  C   UNL     1      -2.495   1.322   0.086  0.00  0.00    +0.067 C 
ATOM     10  S   UNL     1      -0.679   3.537   0.148  0.00  0.00    -0.046 S 
ATOM     11  C   UNL     1       1.028   3.256   0.070  0.00  0.00    +0.178 A 
ATOM     12  N   UNL     1       2.048   4.080   0.076  0.00  0.00    -0.228 NA
ENDROOT
BRANCH   4  13
ATOM     13  C   UNL     1       2.661   0.563  -1.355  0.00  0.00    -0.020 A 
ATOM     14  C   UNL     1       2.050   1.002  -2.514  0.00  0.00    +0.007 A 
ATOM     15  C   UNL     1       2.166   0.267  -3.679  0.00  0.00    +0.020 A 
ATOM     16  C   UNL     1       2.886  -0.915  -3.681  0.00  0.00    +0.041 A 
ATOM     17  C   UNL     1       3.493  -1.357  -2.519  0.00  0.00    +0.020 A 
ATOM     18  C   UNL     1       3.380  -0.618  -1.357  0.00  0.00    +0.007 A 
ATOM     19 CL   UNL     1       3.026  -1.843  -5.142  0.00  0.00    -0.084 Cl
ENDBRANCH   4  13
BRANCH   9  20
ATOM     20  C   UNL     1      -3.600   2.187   0.169  0.00  0.00    +0.131 A 
ATOM     21  C   UNL     1      -4.933   1.808   0.192  0.00  0.00    +0.051 A 
ATOM     22  C   UNL     1      -5.682   2.984   0.280  0.00  0.00    +0.066 A 
ATOM     23  C   UNL     1      -4.799   4.025   0.307  0.00  0.00    +0.189 A 
ATOM     24  O   UNL     1      -3.550   3.537   0.245  0.00  0.00    -0.442 OA
BRANCH  23  25
ATOM     25  N   UNL     1      -5.135   5.361   0.390  0.00  0.00    -0.308 N 
ATOM     26  C   UNL     1      -6.544   5.759   0.458  0.00  0.00    +0.132 C 
ATOM     27  C   UNL     1      -4.084   6.381   0.411  0.00  0.00    +0.132 C 
ENDBRANCH  23  25
ENDBRANCH   9  20
BRANCH   3  28
ATOM     28  C   UNL     1       5.000   1.986  -0.145  0.00  0.00    +0.339 C 
ATOM     29  O   UNL     1       5.880   2.822  -0.243  0.00  0.00    -0.245 OA
BRANCH  28  30
ATOM     30  O   UNL     1       5.316   0.673  -0.105  0.00  0.00    -0.459 OA
BRANCH  30  31
ATOM     31  C   UNL     1       6.703   0.338  -0.182  0.00  0.00    +0.171 C 
ATOM     32  C   UNL     1       6.956  -0.961   0.585  0.00  0.00    +0.052 C 
ATOM     33  C   UNL     1       7.102   0.151  -1.647  0.00  0.00    +0.052 C 
ENDBRANCH  30  31
ENDBRANCH  28  30
ENDBRANCH   3  28
TORSDOF 6
