REMARK  Name = ZINC36308874
REMARK  19 active torsions:
REMARK  status: ('A' for Active; 'I' for Inactive)
REMARK    1  A    between atoms: C_1  and  C_2
REMARK    2  A    between atoms: C_2  and  N_3
REMARK    3  A    between atoms: N_3  and  C_4
REMARK    4  A    between atoms: N_3  and  C_14
REMARK    5  A    between atoms: C_4  and  C_5
REMARK    6  A    between atoms: C_5  and  C_7
REMARK    7  A    between atoms: C_5  and  O_13
REMARK    8  A    between atoms: C_7  and  O_8
REMARK    9  A    between atoms: O_8  and  C_9
REMARK   10  A    between atoms: C_9  and  C_10
REMARK   11  A    between atoms: C_10  and  C_11
REMARK   12  A    between atoms: C_10  and  C_12
REMARK   13  A    between atoms: C_14  and  C_15
REMARK   14  A    between atoms: C_25  and  C_27
REMARK   15  A    between atoms: C_27  and  O_28
REMARK   16  A    between atoms: O_28  and  C_29
REMARK   17  A    between atoms: C_32  and  C_35
REMARK   18  A    between atoms: C_35  and  C_36
REMARK   19  A    between atoms: C_35  and  C_37
REMARK                            x       y       z     vdW  Elec       q    Type
REMARK                         _______ _______ _______ _____ _____    ______ ____
ROOT
ATOM      1  C   UNL     1       1.930  -2.194  -0.202  0.00  0.00    +0.200 C 
ATOM      2  O   UNL     1       2.240  -1.276  -0.931  0.00  0.00    -0.278 OA
ATOM      3  N   UNL     1       2.322  -3.450  -0.495  0.00  0.00    -0.292 N 
ATOM      4  C   UNL     1       1.946  -4.571   0.378  0.00  0.00    +0.113 C 
ATOM      5  C   UNL     1       1.024  -5.512  -0.413  0.00  0.00    +0.061 C 
ATOM      6  C   UNL     1       1.581  -5.682  -1.789  0.00  0.00    -0.004 A 
ATOM      7  C   UNL     1       2.514  -4.913  -2.415  0.00  0.00    -0.014 A 
ATOM      8  C   UNL     1       2.860  -5.282  -3.714  0.00  0.00    +0.013 A 
ATOM      9  C   UNL     1       2.279  -6.361  -4.288  0.00  0.00    +0.046 A 
ATOM     10  S   UNL     1       1.187  -6.925  -2.991  0.00  0.00    -0.101 S 
ATOM     11  C   UNL     1       3.125  -3.717  -1.696  0.00  0.00    +0.144 C 
ENDROOT
BRANCH   1  12
ATOM     12  C   UNL     1       1.106  -1.931   1.032  0.00  0.00    +0.019 C 
BRANCH  12  13
ATOM     13  N   UNL     1       0.810  -0.495   1.127  0.00  0.00    +0.387 N 
ATOM     14  H   UNL     1       1.672   0.029   1.099  0.00  0.00    -0.081 HD
BRANCH  13  16
ATOM     15  C   UNL     1      -0.231   1.423   0.015  0.00  0.00    -0.017 C 
ATOM     16  C   UNL     1      -0.042  -0.095  -0.002  0.00  0.00    -0.081 C 
ENDBRANCH  13  16
BRANCH  13  17
ATOM     17  C   UNL     1       0.111  -0.221   2.389  0.00  0.00    -0.044 C 
BRANCH  17  18
ATOM     18  C   UNL     1       1.053  -0.495   3.563  0.00  0.00    +0.124 C 
BRANCH  18  19
ATOM     19  O   UNL     1       2.196   0.357   3.465  0.00  0.00    -0.391 OA
ATOM     20  H   UNL     1       1.994   1.298   3.558  0.00  0.00    +0.210 HD
ENDBRANCH  18  19
BRANCH  18  21
ATOM     21  C   UNL     1       0.322  -0.217   4.879  0.00  0.00    +0.189 C 
BRANCH  21  22
ATOM     22  O   UNL     1       1.161  -0.583   5.976  0.00  0.00    -0.377 OA
BRANCH  22  23
ATOM     23  C   UNL     1       0.569  -0.363   7.258  0.00  0.00    +0.163 C 
BRANCH  23  24
ATOM     24  C   UNL     1       1.551  -0.787   8.352  0.00  0.00    +0.009 C 
ATOM     25  C   UNL     1       0.970  -0.437   9.723  0.00  0.00    +0.009 C 
ATOM     26  C   UNL     1       1.786  -2.297   8.269  0.00  0.00    +0.009 C 
ENDBRANCH  23  24
ENDBRANCH  22  23
ENDBRANCH  21  22
ENDBRANCH  18  21
ENDBRANCH  17  18
ENDBRANCH  13  17
ENDBRANCH  12  13
ENDBRANCH   1  12
BRANCH  11  27
ATOM     27  C   UNL     1       4.565  -4.041  -1.294  0.00  0.00    +0.256 C 
BRANCH  27  28
ATOM     28  O   UNL     1       4.589  -5.260  -0.548  0.00  0.00    -0.490 OA
BRANCH  28  29
ATOM     29  C   UNL     1       5.801  -5.692  -0.112  0.00  0.00    +0.121 A 
ATOM     30  C   UNL     1       6.944  -4.956  -0.391  0.00  0.00    +0.046 A 
ATOM     31  C   UNL     1       8.175  -5.398   0.053  0.00  0.00    +0.007 A 
ATOM     32  C   UNL     1       8.269  -6.573   0.776  0.00  0.00    -0.045 A 
ATOM     33  C   UNL     1       7.132  -7.309   1.056  0.00  0.00    +0.007 A 
ATOM     34  C   UNL     1       5.898  -6.868   0.619  0.00  0.00    +0.046 A 
BRANCH  32  35
ATOM     35  C   UNL     1       9.613  -7.053   1.260  0.00  0.00    +0.013 C 
ATOM     36  C   UNL     1       9.601  -7.149   2.787  0.00  0.00    +0.012 C 
ATOM     37  C   UNL     1       9.908  -8.431   0.664  0.00  0.00    +0.012 C 
ENDBRANCH  32  35
ENDBRANCH  28  29
ENDBRANCH  27  28
ENDBRANCH  11  27
TORSDOF 14
