REMARK  Name = ZINC47139632
REMARK  7 active torsions:
REMARK  status: ('A' for Active; 'I' for Inactive)
REMARK    1  A    between atoms: C_1  and  C_2
REMARK    2  A    between atoms: C_7  and  N_8
REMARK    3  A    between atoms: C_9  and  C_11
REMARK    4  A    between atoms: C_11  and  N_12
REMARK    5  A    between atoms: C_18  and  C_32
REMARK    6  A    between atoms: C_35  and  O_38
REMARK    7  A    between atoms: O_38  and  C_39
REMARK                            x       y       z     vdW  Elec       q    Type
REMARK                         _______ _______ _______ _____ _____    ______ ____
ROOT
ATOM      1  N   UNL     1      -0.226  -0.914   5.996  0.00  0.00    -0.288 N 
ATOM      2  C   UNL     1      -1.450  -1.377   6.415  0.00  0.00    +0.090 A 
ATOM      3  C   UNL     1      -1.404  -2.258   7.438  0.00  0.00    +0.033 A 
ATOM      4  S   UNL     1       0.330  -2.397   7.779  0.00  0.00    -0.030 S 
ATOM      5  C   UNL     1       0.899  -1.345   6.597  0.00  0.00    +0.292 A 
ATOM      6  O   UNL     1       2.053  -1.044   6.345  0.00  0.00    -0.259 OA
ATOM      7  C   UNL     1      -2.531  -2.977   8.134  0.00  0.00    +0.063 C 
ATOM      8  C   UNL     1      -3.730  -2.908   7.261  0.00  0.00    +0.018 C 
ATOM      9  C   UNL     1      -5.019  -3.684   7.501  0.00  0.00    -0.006 C 
ATOM     10  C   UNL     1      -5.376  -4.102   6.023  0.00  0.00    +0.004 C 
ATOM     11  C   UNL     1      -5.581  -2.738   5.320  0.00  0.00    +0.005 C 
ATOM     12  C   UNL     1      -5.590  -1.660   6.437  0.00  0.00    +0.003 C 
ATOM     13  C   UNL     1      -6.089  -2.538   7.683  0.00  0.00    +0.008 C 
ATOM     14  C   UNL     1      -4.155  -1.454   6.955  0.00  0.00    +0.060 C 
ATOM     15  S   UNL     1      -3.002  -0.861   5.691  0.00  0.00    -0.103 S 
ENDROOT
BRANCH   7  16
ATOM     16  C   UNL     1      -2.821  -2.312   9.454  0.00  0.00    -0.039 A 
ATOM     17  C   UNL     1      -3.200  -3.074  10.543  0.00  0.00    +0.008 A 
ATOM     18  C   UNL     1      -3.467  -2.466  11.755  0.00  0.00    +0.046 A 
ATOM     19  C   UNL     1      -3.355  -1.089  11.878  0.00  0.00    +0.120 A 
ATOM     20  C   UNL     1      -2.975  -0.326  10.784  0.00  0.00    +0.046 A 
ATOM     21  C   UNL     1      -2.703  -0.939   9.576  0.00  0.00    +0.008 A 
BRANCH  19  22
ATOM     22  O   UNL     1      -3.618  -0.488  13.068  0.00  0.00    -0.495 OA
ATOM     23  C   UNL     1      -3.482   0.933  13.122  0.00  0.00    +0.277 C 
ENDBRANCH  19  22
ENDBRANCH   7  16
BRANCH   1  24
ATOM     24  C   UNL     1      -0.145   0.044   4.891  0.00  0.00    +0.222 C 
BRANCH  24  26
ATOM     25  N   UNL     1       0.054  -0.021   2.426  0.00  0.00    -0.284 N 
ATOM     26  C   UNL     1      -0.034  -0.702   3.587  0.00  0.00    +0.237 C 
ATOM     27  O   UNL     1      -0.024  -1.915   3.580  0.00  0.00    -0.274 OA
ATOM     28  H   UNL     1       0.110   0.947   2.435  0.00  0.00    +0.155 HD
BRANCH  25  35
ATOM     29  C   UNL     1      -1.222   1.185   0.187  0.00  0.00    +0.045 C 
ATOM     30  C   UNL     1      -0.547  -0.159   0.091  0.00  0.00    -0.029 A 
ATOM     31  C   UNL     1      -0.530  -0.841  -1.110  0.00  0.00    +0.005 A 
ATOM     32  C   UNL     1       0.089  -2.074  -1.199  0.00  0.00    +0.000 A 
ATOM     33  C   UNL     1       0.693  -2.629  -0.086  0.00  0.00    +0.002 A 
ATOM     34  C   UNL     1       0.680  -1.952   1.118  0.00  0.00    +0.023 A 
ATOM     35  C   UNL     1       0.064  -0.711   1.209  0.00  0.00    +0.036 A 
ENDBRANCH  25  35
ENDBRANCH  24  26
ENDBRANCH   1  24
TORSDOF 5
