REMARK  Name = ZINC05554956
REMARK  8 active torsions:
REMARK  status: ('A' for Active; 'I' for Inactive)
REMARK    1  A    between atoms: C_1  and  C_2
REMARK    2  A    between atoms: C_4  and  C_20
REMARK    3  A    between atoms: C_5  and  N_9
REMARK    4  A    between atoms: C_6  and  C_8
REMARK    5  A    between atoms: C_10  and  C_12
REMARK    6  A    between atoms: C_12  and  S_13
REMARK    7  A    between atoms: S_13  and  C_14
REMARK    8  A    between atoms: N_18  and  N_19
REMARK                            x       y       z     vdW  Elec       q    Type
REMARK                         _______ _______ _______ _____ _____    ______ ____
ROOT
ATOM      1  N   UNL     1      -2.593   1.798   0.207  0.00  0.00    -0.284 N 
ATOM      2  C   UNL     1      -2.723   0.566   0.740  0.00  0.00    +0.228 C 
ATOM      3  O   UNL     1      -1.736  -0.067   1.050  0.00  0.00    -0.275 OA
ATOM      4  H   UNL     1      -3.376   2.271  -0.115  0.00  0.00    +0.155 HD
ENDROOT
BRANCH   1   9
ATOM      5  C   UNL     1       2.525   4.218  -0.157  0.00  0.00    +0.044 C 
ATOM      6  C   UNL     1       1.166   3.573  -0.057  0.00  0.00    -0.050 A 
ATOM      7  C   UNL     1       0.942   2.342  -0.646  0.00  0.00    +0.008 A 
ATOM      8  C   UNL     1      -0.302   1.749  -0.557  0.00  0.00    -0.029 A 
ATOM      9  C   UNL     1      -1.330   2.393   0.121  0.00  0.00    +0.039 A 
ATOM     10  C   UNL     1      -1.099   3.626   0.716  0.00  0.00    -0.029 A 
ATOM     11  C   UNL     1       0.147   4.214   0.623  0.00  0.00    +0.008 A 
ATOM     12  C   UNL     1      -2.210   4.325   1.457  0.00  0.00    +0.045 C 
ATOM     13  C   UNL     1      -0.546   0.408  -1.199  0.00  0.00    +0.045 C 
ENDBRANCH   1   9
BRANCH   2  14
ATOM     14  C   UNL     1      -4.093  -0.024   0.950  0.00  0.00    +0.173 C 
BRANCH  14  15
ATOM     15  S   UNL     1      -3.935  -1.675   1.675  0.00  0.00    -0.075 S 
BRANCH  15  16
ATOM     16  C   UNL     1      -5.636  -2.115   1.808  0.00  0.00    +0.209 A 
ATOM     17  N   UNL     1      -6.663  -1.379   1.451  0.00  0.00    -0.121 NA
ATOM     18  N   UNL     1      -7.757  -2.011   1.688  0.00  0.00    -0.135 NA
ATOM     19  C   UNL     1      -7.495  -3.178   2.207  0.00  0.00    +0.244 A 
ATOM     20  N   UNL     1      -6.135  -3.288   2.296  0.00  0.00    -0.231 N 
BRANCH  20  21
ATOM     21  N   UNL     1      -5.424  -4.351   2.777  0.00  0.00    -0.295 N 
ATOM     22  H   UNL     1      -5.264  -4.260   3.769  0.00  0.00    +0.163 HD
ATOM     23  H   UNL     1      -5.886  -5.222   2.563  0.00  0.00    +0.163 HD
ENDBRANCH  20  21
ENDBRANCH  15  16
ENDBRANCH  14  15
ENDBRANCH   2  14
TORSDOF 5
