REMARK  Name = ZINC47047534
REMARK  6 active torsions:
REMARK  status: ('A' for Active; 'I' for Inactive)
REMARK    1  A    between atoms: C_1  and  C_2
REMARK    2  A    between atoms: C_7  and  C_10
REMARK    3  A    between atoms: C_11  and  C_13
REMARK    4  A    between atoms: N_22  and  C_23
REMARK    5  A    between atoms: C_23  and  C_24
REMARK    6  A    between atoms: C_23  and  C_25
REMARK                            x       y       z     vdW  Elec       q    Type
REMARK                         _______ _______ _______ _____ _____    ______ ____
ROOT
ATOM      1  C   UNL     1      -1.917  -4.312  -0.493  0.00  0.00    +0.093 C 
ATOM      2  C   UNL     1      -2.692  -5.006  -1.615  0.00  0.00    +0.016 C 
ATOM      3  C   UNL     1      -2.512  -6.522  -1.499  0.00  0.00    +0.020 C 
ATOM      4  C   UNL     1      -3.074  -6.998  -0.156  0.00  0.00    +0.109 C 
ATOM      5  N   UNL     1      -2.436  -6.230   0.922  0.00  0.00    -0.285 N 
ATOM      6  C   UNL     1      -2.472  -4.763   0.862  0.00  0.00    +0.122 C 
ATOM      7  C   UNL     1      -1.830  -6.861   1.948  0.00  0.00    +0.302 C 
ATOM      8  O   UNL     1      -1.386  -6.218   2.880  0.00  0.00    -0.253 OA
ATOM      9  N   UNL     1      -1.716  -8.204   1.941  0.00  0.00    -0.297 N 
ATOM     10  H   UNL     1      -2.134  -8.722   1.236  0.00  0.00    +0.150 HD
ENDROOT
BRANCH   1  19
ATOM     11  C   UNL     1       0.140   1.490  -0.421  0.00  0.00    +0.039 C 
ATOM     12  C   UNL     1       0.129  -0.040  -0.394  0.00  0.00    +0.133 C 
ATOM     13  C   UNL     1      -1.299  -0.538  -0.147  0.00  0.00    +0.139 C 
ATOM     14  N   UNL     1      -1.254  -1.994   0.061  0.00  0.00    -0.296 N 
ATOM     15  C   UNL     1      -0.293  -2.523   1.042  0.00  0.00    +0.139 C 
ATOM     16  C   UNL     1       1.087  -1.929   0.736  0.00  0.00    +0.133 C 
ATOM     17  O   UNL     1       0.980  -0.505   0.656  0.00  0.00    -0.371 OA
ATOM     18  C   UNL     1       1.596  -2.478  -0.598  0.00  0.00    +0.039 C 
ATOM     19  C   UNL     1      -2.069  -2.818  -0.627  0.00  0.00    +0.220 C 
ATOM     20  O   UNL     1      -2.924  -2.358  -1.353  0.00  0.00    -0.275 OA
ENDBRANCH   1  19
BRANCH   9  21
ATOM     21  C   UNL     1      -0.963  -8.880   3.000  0.00  0.00    +0.068 C 
ATOM     22  C   UNL     1      -1.470 -10.316   3.149  0.00  0.00    +0.027 C 
ATOM     23  C   UNL     1       0.523  -8.899   2.635  0.00  0.00    +0.027 C 
ENDBRANCH   9  21
TORSDOF 2
