REMARK  Name = ZINC14270410
REMARK  6 active torsions:
REMARK  status: ('A' for Active; 'I' for Inactive)
REMARK    1  A    between atoms: C_10  and  C_12
REMARK    2  A    between atoms: N_14  and  C_15
REMARK    3  A    between atoms: C_15  and  N_17
REMARK    4  A    between atoms: N_17  and  N_18
REMARK    5  A    between atoms: N_18  and  C_19
REMARK    6  A    between atoms: C_22  and  N_25
REMARK                            x       y       z     vdW  Elec       q    Type
REMARK                         _______ _______ _______ _____ _____    ______ ____
ROOT
ATOM      1  C   UNL     1       1.350  -6.146  -0.042  0.00  0.00    +0.250 C 
ATOM      2  O   UNL     1       2.412  -6.736  -0.041  0.00  0.00    -0.270 OA
ATOM      3  N   UNL     1       1.328  -4.798  -0.051  0.00  0.00    -0.263 N 
ATOM      4  H   UNL     1       0.480  -4.327  -0.051  0.00  0.00    +0.157 HD
ENDROOT
BRANCH   1  14
ATOM      5  C   UNL     1      -2.322  -6.963   0.090  0.00  0.00    +0.001 A 
ATOM      6  C   UNL     1      -2.344  -8.321  -0.013  0.00  0.00    +0.009 A 
ATOM      7  C   UNL     1      -1.149  -9.049  -0.132  0.00  0.00    -0.003 A 
ATOM      8  C   UNL     1       0.088  -8.360  -0.144  0.00  0.00    -0.005 A 
ATOM      9  C   UNL     1       1.282  -9.083  -0.261  0.00  0.00    +0.009 A 
ATOM     10  C   UNL     1       1.240 -10.442  -0.362  0.00  0.00    +0.002 A 
ATOM     11  C   UNL     1       0.025 -11.123  -0.349  0.00  0.00    +0.016 A 
ATOM     12  C   UNL     1      -1.155 -10.452  -0.237  0.00  0.00    +0.026 A 
ATOM     13 BR   UNL     1      -2.791 -11.400  -0.224  0.00  0.00    -0.050 Br
ATOM     14  C   UNL     1       0.086  -6.903  -0.034  0.00  0.00    +0.045 A 
ATOM     15  C   UNL     1      -1.133  -6.247   0.086  0.00  0.00    +0.014 A 
ENDBRANCH   1  14
BRANCH   3  16
ATOM     16  C   UNL     1       2.484  -4.105  -0.059  0.00  0.00    +0.153 C 
ATOM     17  S   UNL     1       3.980  -4.937  -0.058  0.00  0.00    -0.017 S 
BRANCH  16  18
ATOM     18  N   UNL     1       2.462  -2.758  -0.067  0.00  0.00    -0.248 N 
ATOM     19  H   UNL     1       3.294  -2.259  -0.073  0.00  0.00    +0.172 HD
BRANCH  18  20
ATOM     20  N   UNL     1       1.238  -2.077  -0.068  0.00  0.00    -0.265 N 
ATOM     21  H   UNL     1       0.406  -2.576  -0.063  0.00  0.00    +0.170 HD
BRANCH  20  22
ATOM     22  C   UNL     1       1.215  -0.681  -0.077  0.00  0.00    +0.045 A 
ATOM     23  C   UNL     1       0.002  -0.004  -0.078  0.00  0.00    +0.026 A 
ATOM     24  C   UNL     1      -0.017   1.377  -0.087  0.00  0.00    +0.034 A 
ATOM     25  C   UNL     1       1.170   2.086  -0.094  0.00  0.00    +0.126 A 
ATOM     26  C   UNL     1       2.379   1.416  -0.093  0.00  0.00    +0.034 A 
ATOM     27  C   UNL     1       2.405   0.035  -0.085  0.00  0.00    +0.026 A 
BRANCH  25  28
ATOM     28  N   UNL     1       1.146   3.566  -0.103  0.00  0.00    +0.056 N 
ATOM     29  O   UNL     1       0.081   4.158  -0.104  0.00  0.00    -0.126 OA
ATOM     30  O   UNL     1       2.191   4.192  -0.110  0.00  0.00    -0.126 OA
ENDBRANCH  25  28
ENDBRANCH  20  22
ENDBRANCH  18  20
ENDBRANCH  16  18
ENDBRANCH   3  16
TORSDOF 6
