REMARK  Name = ZINC01573077
REMARK  3 active torsions:
REMARK  status: ('A' for Active; 'I' for Inactive)
REMARK    1  A    between atoms: C_6  and  C_7
REMARK    2  A    between atoms: C_8  and  C_19
REMARK    3  A    between atoms: C_15  and  C_17
REMARK                            x       y       z     vdW  Elec       q    Type
REMARK                         _______ _______ _______ _____ _____    ______ ____
ROOT
ATOM      1  C   UNL     1       3.712  -0.705  -0.037  0.00  0.00    +0.071 C 
ATOM      2  C   UNL     1       4.529  -0.326   1.202  0.00  0.00    +0.186 C 
ATOM      3  C   UNL     1       5.887  -0.972   1.116  0.00  0.00    +0.237 C 
ATOM      4  O   UNL     1       6.474  -1.257   2.138  0.00  0.00    -0.274 OA
ATOM      5  N   UNL     1       6.458  -1.241  -0.068  0.00  0.00    -0.254 N 
ATOM      6  C   UNL     1       5.863  -0.963  -1.237  0.00  0.00    +0.237 C 
ATOM      7  O   UNL     1       6.428  -1.241  -2.273  0.00  0.00    -0.274 OA
ATOM      8  C   UNL     1       4.505  -0.313  -1.288  0.00  0.00    +0.186 C 
ATOM      9  H   UNL     1       7.336  -1.653  -0.078  0.00  0.00    +0.158 HD
ENDROOT
BRANCH   1  15
ATOM     10  C   UNL     1       2.378   1.412  -0.013  0.00  0.00    +0.005 A 
ATOM     11  C   UNL     1       1.172   2.088   0.002  0.00  0.00    +0.022 A 
ATOM     12  C   UNL     1      -0.017   1.381   0.010  0.00  0.00    +0.059 A 
ATOM     13  C   UNL     1       0.002  -0.004   0.002  0.00  0.00    +0.060 A 
ATOM     14  C   UNL     1       1.210  -0.678  -0.013  0.00  0.00    +0.025 A 
ATOM     15  C   UNL     1       2.397   0.030  -0.021  0.00  0.00    -0.039 A 
ATOM     16 CL   UNL     1      -1.489  -0.893   0.011  0.00  0.00    -0.082 Cl
ATOM     17 CL   UNL     1      -1.532   2.229   0.021  0.00  0.00    -0.082 Cl
ENDBRANCH   1  15
BRANCH   8  18
ATOM     18  C   UNL     1       4.661   1.150  -1.333  0.00  0.00    +0.076 C 
ATOM     19  N   UNL     1       4.781   2.279  -1.367  0.00  0.00    -0.196 NA
ENDBRANCH   8  18
BRANCH   2  20
ATOM     20  C   UNL     1       3.833  -0.794   2.412  0.00  0.00    +0.076 C 
ATOM     21  N   UNL     1       3.297  -1.155   3.346  0.00  0.00    -0.196 NA
ENDBRANCH   2  20
TORSDOF 3
