REMARK  Name = ZINC23223624
REMARK  10 active torsions:
REMARK  status: ('A' for Active; 'I' for Inactive)
REMARK    1  A    between atoms: C_1  and  C_2
REMARK    2  A    between atoms: C_2  and  N_3
REMARK    3  A    between atoms: C_7  and  S_28
REMARK    4  A    between atoms: C_11  and  S_12
REMARK    5  A    between atoms: S_12  and  C_13
REMARK    6  A    between atoms: C_13  and  C_14
REMARK    7  A    between atoms: N_16  and  C_17
REMARK    8  A    between atoms: C_17  and  C_19
REMARK    9  A    between atoms: C_17  and  C_20
REMARK   10  A    between atoms: S_28  and  N_31
REMARK                            x       y       z     vdW  Elec       q    Type
REMARK                         _______ _______ _______ _____ _____    ______ ____
ROOT
ATOM      1  N   UNL     1       7.463  -0.202   1.839  0.00  0.00    -0.319 N 
ATOM      2  C   UNL     1       8.553   0.446   1.280  0.00  0.00    +0.070 A 
ATOM      3  C   UNL     1       9.924   0.358   1.469  0.00  0.00    +0.030 A 
ATOM      4  C   UNL     1      10.770   1.169   0.741  0.00  0.00    +0.030 A 
ATOM      5  C   UNL     1      10.259   2.072  -0.180  0.00  0.00    +0.107 A 
ATOM      6  C   UNL     1       8.901   2.172  -0.380  0.00  0.00    +0.058 A 
ATOM      7  C   UNL     1       8.030   1.359   0.349  0.00  0.00    +0.092 A 
ATOM      8  N   UNL     1       6.678   1.227   0.376  0.00  0.00    -0.222 NA
ATOM      9  C   UNL     1       6.342   0.308   1.248  0.00  0.00    +0.170 A 
ENDROOT
BRANCH   5  10
ATOM     10  S   UNL     1      11.357   3.098  -1.100  0.00  0.00    +0.056 S 
ATOM     11  O   UNL     1      10.608   4.239  -1.498  0.00  0.00    -0.153 OA
ATOM     12  O   UNL     1      12.552   3.200  -0.338  0.00  0.00    -0.153 OA
BRANCH  10  13
ATOM     13  N   UNL     1      11.747   2.280  -2.485  0.00  0.00    -0.204 NA
ATOM     14  H   UNL     1      12.434   2.890  -3.090  0.00  0.00    +0.144 HD
ATOM     15  H   UNL     1      10.832   2.077  -3.062  0.00  0.00    +0.144 HD
ENDBRANCH  10  13
ENDBRANCH   5  10
BRANCH   1  17
ATOM     16  C   UNL     1       7.601  -2.616   2.203  0.00  0.00    +0.027 C 
ATOM     17  C   UNL     1       7.505  -1.242   2.869  0.00  0.00    +0.121 C 
ENDBRANCH   1  17
BRANCH   9  18
ATOM     18  S   UNL     1       4.691  -0.189   1.610  0.00  0.00    -0.078 S 
BRANCH  18  19
ATOM     19  C   UNL     1       3.781   0.895   0.481  0.00  0.00    +0.173 C 
BRANCH  19  20
ATOM     20  C   UNL     1       2.303   0.638   0.621  0.00  0.00    +0.224 C 
ATOM     21  O   UNL     1       1.903  -0.196   1.405  0.00  0.00    -0.275 OA
ATOM     22  N   UNL     1       1.425   1.335  -0.127  0.00  0.00    -0.308 N 
ATOM     23  H   UNL     1       1.787   2.091  -0.839  0.00  0.00    +0.149 HD
BRANCH  22  24
ATOM     24  C   UNL     1      -0.013   1.086   0.008  0.00  0.00    +0.102 C 
ATOM     25  C   UNL     1      -0.578   1.957   1.132  0.00  0.00    +0.033 C 
BRANCH  24  26
ATOM     26  C   UNL     1      -0.705   1.424  -1.287  0.00  0.00    -0.009 A 
ATOM     27  C   UNL     1      -0.160   2.369  -2.136  0.00  0.00    +0.008 A 
ATOM     28  C   UNL     1      -0.795   2.680  -3.324  0.00  0.00    +0.020 A 
ATOM     29  C   UNL     1      -1.977   2.046  -3.663  0.00  0.00    +0.042 A 
ATOM     30  C   UNL     1      -2.523   1.100  -2.814  0.00  0.00    +0.040 A 
ATOM     31  C   UNL     1      -1.884   0.785  -1.628  0.00  0.00    +0.047 A 
ATOM     32 CL   UNL     1      -2.564  -0.407  -0.566  0.00  0.00    -0.083 Cl
ATOM     33 CL   UNL     1      -2.774   2.436  -5.155  0.00  0.00    -0.083 Cl
ENDBRANCH  24  26
ENDBRANCH  22  24
ENDBRANCH  19  20
ENDBRANCH  18  19
ENDBRANCH   9  18
TORSDOF 8
