REMARK  Name = ZINC29356061
REMARK  7 active torsions:
REMARK  status: ('A' for Active; 'I' for Inactive)
REMARK    1  A    between atoms: C_1  and  C_2
REMARK    2  A    between atoms: C_11  and  N_34
REMARK    3  A    between atoms: C_13  and  S_15
REMARK    4  A    between atoms: S_15  and  C_16
REMARK    5  A    between atoms: C_16  and  C_17
REMARK    6  A    between atoms: C_22  and  C_25
REMARK    7  A    between atoms: N_27  and  C_28
REMARK                            x       y       z     vdW  Elec       q    Type
REMARK                         _______ _______ _______ _____ _____    ______ ____
ROOT
ATOM      1  C   UNL     1       6.593   8.425   2.933  0.00  0.00    +0.173 C 
ENDROOT
BRANCH   1   2
ATOM      2  C   UNL     1       5.512   8.808   1.956  0.00  0.00    +0.226 C 
ATOM      3  O   UNL     1       5.241   9.977   1.778  0.00  0.00    -0.275 OA
ATOM      4  N   UNL     1       4.846   7.852   1.278  0.00  0.00    -0.301 N 
ATOM      5  C   UNL     1       3.790   8.210   0.322  0.00  0.00    +0.108 C 
ATOM      6  C   UNL     1       2.515   7.442   0.685  0.00  0.00    +0.032 C 
ATOM      7  C   UNL     1       2.826   5.945   0.747  0.00  0.00    +0.078 C 
ATOM      8  C   UNL     1       3.873   5.684   1.833  0.00  0.00    +0.032 C 
ATOM      9  C   UNL     1       5.163   6.432   1.482  0.00  0.00    +0.108 C 
BRANCH   7  10
ATOM     10  C   UNL     1       1.567   5.183   1.071  0.00  0.00    +0.220 C 
ATOM     11  O   UNL     1       0.523   5.779   1.236  0.00  0.00    -0.275 OA
ATOM     12  N   UNL     1       1.600   3.840   1.177  0.00  0.00    -0.285 N 
ATOM     13  H   UNL     1       2.560   3.307   1.113  0.00  0.00    +0.155 HD
BRANCH  12  14
ATOM     14  C   UNL     1       0.413   3.123   1.369  0.00  0.00    +0.033 A 
ATOM     15  C   UNL     1      -0.770   3.573   0.798  0.00  0.00    +0.023 A 
ATOM     16  C   UNL     1      -1.940   2.864   0.990  0.00  0.00    +0.002 A 
ATOM     17  C   UNL     1      -1.934   1.710   1.752  0.00  0.00    +0.000 A 
ATOM     18  C   UNL     1      -0.756   1.258   2.317  0.00  0.00    +0.002 A 
ATOM     19  C   UNL     1       0.417   1.962   2.130  0.00  0.00    +0.023 A 
ENDBRANCH  12  14
ENDBRANCH   7  10
ENDBRANCH   1   2
BRANCH   1  20
ATOM     20  S   UNL     1       7.293   9.921   3.675  0.00  0.00    -0.077 S 
BRANCH  20  32
ATOM     21  C   UNL     1      14.561   6.639  10.087  0.00  0.00    +0.008 C 
ATOM     22  C   UNL     1      13.671   6.962   8.885  0.00  0.00    -0.009 C 
ATOM     23  C   UNL     1      12.475   6.005   8.859  0.00  0.00    +0.008 C 
ATOM     24  C   UNL     1      11.719   6.155   7.538  0.00  0.00    +0.037 C 
ATOM     25  C   UNL     1      11.388   7.630   7.325  0.00  0.00    -0.025 A 
ATOM     26  C   UNL     1      12.051   8.589   8.000  0.00  0.00    -0.004 A 
ATOM     27  S   UNL     1      11.345  10.118   7.444  0.00  0.00    -0.073 S 
ATOM     28  C   UNL     1      10.157   9.463   6.301  0.00  0.00    +0.115 A 
ATOM     29  C   UNL     1      10.349   8.070   6.391  0.00  0.00    +0.051 A 
ATOM     30  C   UNL     1       9.507   7.279   5.560  0.00  0.00    +0.129 A 
ATOM     31  N   UNL     1       8.620   7.878   4.784  0.00  0.00    -0.207 NA
ATOM     32  C   UNL     1       8.494   9.199   4.743  0.00  0.00    +0.191 A 
ATOM     33  N   UNL     1       9.252   9.985   5.495  0.00  0.00    -0.214 NA
ATOM     34  C   UNL     1      13.148   8.401   9.003  0.00  0.00    +0.046 C 
BRANCH  30  35
ATOM     35  N   UNL     1       9.611   5.900   5.570  0.00  0.00    -0.343 N 
ATOM     36  H   UNL     1       8.957   5.295   4.925  0.00  0.00    +0.144 HD
ATOM     37  H   UNL     1      10.348   5.409   6.222  0.00  0.00    +0.144 HD
ENDBRANCH  30  35
ENDBRANCH  20  32
ENDBRANCH   1  20
TORSDOF 6
