REMARK  Name = ZINC08824672
REMARK  10 active torsions:
REMARK  status: ('A' for Active; 'I' for Inactive)
REMARK    1  A    between atoms: C_1  and  C_2
REMARK    2  A    between atoms: C_2  and  C_35
REMARK    3  A    between atoms: N_9  and  C_34
REMARK    4  A    between atoms: C_11  and  C_12
REMARK    5  A    between atoms: N_13  and  N_14
REMARK    6  A    between atoms: C_15  and  C_17
REMARK    7  A    between atoms: C_17  and  C_18
REMARK    8  A    between atoms: C_18  and  C_19
REMARK    9  A    between atoms: C_22  and  S_25
REMARK   10  A    between atoms: S_25  and  N_28
REMARK                            x       y       z     vdW  Elec       q    Type
REMARK                         _______ _______ _______ _____ _____    ______ ____
ROOT
ATOM      1  N   UNL     1      -2.477   3.119   8.637  0.00  0.00    -0.207 N 
ATOM      2  C   UNL     1      -2.960   3.347   7.400  0.00  0.00    +0.232 C 
ATOM      3  O   UNL     1      -4.104   3.726   7.257  0.00  0.00    -0.274 OA
ATOM      4  H   UNL     1      -1.562   2.816   8.752  0.00  0.00    +0.177 HD
ENDROOT
BRANCH   1   6
ATOM      5  C   UNL     1      -2.826   3.099  10.952  0.00  0.00    +0.132 C 
ATOM      6  N   UNL     1      -3.294   3.319   9.757  0.00  0.00    -0.188 NA
BRANCH   5  17
ATOM      7  C   UNL     1      -4.148   4.729  14.883  0.00  0.00    +0.022 C 
ATOM      8  C   UNL     1      -3.940   3.229  14.661  0.00  0.00    +0.030 C 
ATOM      9  C   UNL     1      -2.999   2.667  15.702  0.00  0.00    -0.015 A 
ATOM     10  C   UNL     1      -3.071   2.589  17.076  0.00  0.00    +0.006 A 
ATOM     11  C   UNL     1      -2.039   2.008  17.790  0.00  0.00    +0.000 A 
ATOM     12  C   UNL     1      -0.936   1.506  17.123  0.00  0.00    +0.002 A 
ATOM     13  C   UNL     1      -0.860   1.582  15.748  0.00  0.00    +0.024 A 
ATOM     14  C   UNL     1      -1.897   2.167  15.020  0.00  0.00    +0.038 A 
ATOM     15  N   UNL     1      -2.047   2.350  13.647  0.00  0.00    -0.306 N 
ATOM     16  C   UNL     1      -3.233   2.981  13.346  0.00  0.00    +0.022 C 
ATOM     17  C   UNL     1      -3.679   3.308  12.121  0.00  0.00    +0.041 C 
ATOM     18  C   UNL     1      -1.063   1.927  12.648  0.00  0.00    +0.135 C 
ATOM     19  C   UNL     1      -5.279   2.490  14.697  0.00  0.00    +0.022 C 
ENDBRANCH   5  17
ENDBRANCH   1   6
BRANCH   2  20
ATOM     20  C   UNL     1      -2.081   3.131   6.196  0.00  0.00    +0.102 C 
BRANCH  20  21
ATOM     21  C   UNL     1      -2.868   3.459   4.925  0.00  0.00    +0.044 C 
BRANCH  21  22
ATOM     22  C   UNL     1      -1.988   3.243   3.720  0.00  0.00    -0.047 A 
ATOM     23  C   UNL     1      -1.954   2.007   3.102  0.00  0.00    +0.005 A 
ATOM     24  C   UNL     1      -1.147   1.809   1.997  0.00  0.00    +0.029 A 
ATOM     25  C   UNL     1      -0.376   2.848   1.509  0.00  0.00    +0.105 A 
ATOM     26  C   UNL     1      -0.407   4.082   2.130  0.00  0.00    +0.029 A 
ATOM     27  C   UNL     1      -1.217   4.282   3.233  0.00  0.00    +0.005 A 
BRANCH  25  28
ATOM     28  S   UNL     1       0.652   2.595   0.101  0.00  0.00    +0.061 S 
ATOM     29  O   UNL     1       0.920   1.201   0.038  0.00  0.00    -0.153 OA
ATOM     30  O   UNL     1       1.686   3.567   0.173  0.00  0.00    -0.153 OA
BRANCH  28  31
ATOM     31  N   UNL     1      -0.252   2.964  -1.237  0.00  0.00    -0.172 NA
ATOM     32  C   UNL     1      -1.048   1.933  -1.921  0.00  0.00    +0.137 C 
ATOM     33  C   UNL     1      -2.477   2.470  -2.098  0.00  0.00    +0.177 C 
ATOM     34  O   UNL     1      -2.422   3.752  -2.729  0.00  0.00    -0.377 OA
ATOM     35  C   UNL     1      -1.740   4.750  -1.967  0.00  0.00    +0.177 C 
ATOM     36  C   UNL     1      -0.277   4.331  -1.781  0.00  0.00    +0.137 C 
ENDBRANCH  28  31
ENDBRANCH  25  28
ENDBRANCH  21  22
ENDBRANCH  20  21
ENDBRANCH   2  20
TORSDOF 7
