REMARK  Name = ZINC00823401
REMARK  10 active torsions:
REMARK  status: ('A' for Active; 'I' for Inactive)
REMARK    1  A    between atoms: C_1  and  C_2
REMARK    2  A    between atoms: C_5  and  C_37
REMARK    3  A    between atoms: C_6  and  N_8
REMARK    4  A    between atoms: N_8  and  S_9
REMARK    5  A    between atoms: S_9  and  C_12
REMARK    6  A    between atoms: C_23  and  S_25
REMARK    7  A    between atoms: S_25  and  N_28
REMARK    8  A    between atoms: N_28  and  C_29
REMARK    9  A    between atoms: C_31  and  C_36
REMARK   10  A    between atoms: C_34  and  C_35
REMARK                            x       y       z     vdW  Elec       q    Type
REMARK                         _______ _______ _______ _____ _____    ______ ____
ROOT
ATOM      1  C   UNL     1      -2.586   1.068  -2.643  0.00  0.00    +0.109 A 
ATOM      2  C   UNL     1      -1.915   2.042  -3.360  0.00  0.00    +0.029 A 
ATOM      3  C   UNL     1      -1.644   1.857  -4.700  0.00  0.00    +0.011 A 
ATOM      4  C   UNL     1      -2.058   0.686  -5.340  0.00  0.00    -0.014 A 
ATOM      5  C   UNL     1      -2.737  -0.286  -4.611  0.00  0.00    -0.033 A 
ATOM      6  C   UNL     1      -2.999  -0.094  -3.271  0.00  0.00    +0.033 A 
ATOM      7  C   UNL     1      -3.053  -1.422  -5.553  0.00  0.00    +0.071 C 
ATOM      8  C   UNL     1      -2.493  -1.018  -6.895  0.00  0.00    -0.033 A 
ATOM      9  C   UNL     1      -1.908   0.235  -6.745  0.00  0.00    -0.014 A 
ATOM     10  C   UNL     1      -1.308   0.846  -7.848  0.00  0.00    +0.011 A 
ATOM     11  C   UNL     1      -1.299   0.207  -9.070  0.00  0.00    +0.029 A 
ATOM     12  C   UNL     1      -1.884  -1.039  -9.209  0.00  0.00    +0.109 A 
ATOM     13  C   UNL     1      -2.481  -1.650  -8.120  0.00  0.00    +0.033 A 
ENDROOT
BRANCH   1  14
ATOM     14  S   UNL     1      -2.921   1.310  -0.931  0.00  0.00    +0.072 S 
ATOM     15  O   UNL     1      -4.043   0.497  -0.618  0.00  0.00    -0.150 OA
ATOM     16  O   UNL     1      -2.912   2.714  -0.710  0.00  0.00    -0.150 OA
BRANCH  14  17
ATOM     17  N   UNL     1      -1.637   0.690  -0.088  0.00  0.00    -0.216 N 
ATOM     18  H   UNL     1      -1.776  -0.031   0.546  0.00  0.00    +0.174 HD
BRANCH  17  24
ATOM     19  C   UNL     1       1.280   4.536  -1.008  0.00  0.00    +0.044 C 
ATOM     20  C   UNL     1       1.090   3.065  -0.738  0.00  0.00    -0.049 A 
ATOM     21  C   UNL     1       2.186   2.224  -0.690  0.00  0.00    +0.004 A 
ATOM     22  C   UNL     1       2.015   0.874  -0.443  0.00  0.00    +0.005 A 
ATOM     23  C   UNL     1       0.749   0.362  -0.243  0.00  0.00    -0.028 A 
ATOM     24  C   UNL     1      -0.355   1.204  -0.290  0.00  0.00    +0.051 A 
ATOM     25  C   UNL     1      -0.180   2.560  -0.539  0.00  0.00    +0.028 A 
ATOM     26  C   UNL     1       0.563  -1.109   0.026  0.00  0.00    +0.046 C 
ENDBRANCH  17  24
ENDBRANCH  14  17
ENDBRANCH   1  14
BRANCH  12  27
ATOM     27  S   UNL     1      -1.869  -1.849 -10.774  0.00  0.00    +0.072 S 
ATOM     28  O   UNL     1      -0.773  -1.310 -11.499  0.00  0.00    -0.150 OA
ATOM     29  O   UNL     1      -2.000  -3.239 -10.513  0.00  0.00    -0.150 OA
BRANCH  27  30
ATOM     30  N   UNL     1      -3.242  -1.387 -11.577  0.00  0.00    -0.216 N 
ATOM     31  H   UNL     1      -3.891  -2.053 -11.851  0.00  0.00    +0.174 HD
BRANCH  30  32
ATOM     32  C   UNL     1      -3.464  -0.037 -11.861  0.00  0.00    +0.051 A 
ATOM     33  C   UNL     1      -2.396   0.792 -12.181  0.00  0.00    +0.028 A 
ATOM     34  C   UNL     1      -2.619   2.126 -12.461  0.00  0.00    -0.049 A 
ATOM     35  C   UNL     1      -3.904   2.636 -12.424  0.00  0.00    +0.004 A 
ATOM     36  C   UNL     1      -4.969   1.814 -12.106  0.00  0.00    +0.005 A 
ATOM     37  C   UNL     1      -4.753   0.477 -11.830  0.00  0.00    -0.028 A 
ATOM     38  C   UNL     1      -5.916  -0.419 -11.490  0.00  0.00    +0.046 C 
ATOM     39  C   UNL     1      -1.461   3.026 -12.808  0.00  0.00    +0.044 C 
ENDBRANCH  30  32
ENDBRANCH  27  30
ENDBRANCH  12  27
TORSDOF 6
