REMARK  Name = ZINC35664895
REMARK  12 active torsions:
REMARK  status: ('A' for Active; 'I' for Inactive)
REMARK    1  A    between atoms: C_1  and  C_2
REMARK    2  A    between atoms: C_2  and  O_3
REMARK    3  A    between atoms: O_3  and  C_4
REMARK    4  A    between atoms: C_4  and  C_6
REMARK    5  A    between atoms: C_7  and  C_24
REMARK    6  A    between atoms: N_8  and  C_21
REMARK    7  A    between atoms: C_12  and  C_14
REMARK    8  A    between atoms: C_18  and  C_20
REMARK    9  A    between atoms: C_21  and  C_22
REMARK   10  A    between atoms: C_24  and  N_25
REMARK   11  A    between atoms: C_29  and  C_32
REMARK   12  A    between atoms: C_33  and  C_35
REMARK                            x       y       z     vdW  Elec       q    Type
REMARK                         _______ _______ _______ _____ _____    ______ ____
ROOT
ATOM      1  C   UNL     1      -0.484  -2.123   0.740  0.00  0.00    +0.080 C 
ATOM      2  C   UNL     1      -0.211  -3.303   1.339  0.00  0.00    +0.041 C 
ATOM      3  N   UNL     1       0.314  -3.349   2.598  0.00  0.00    -0.254 N 
ATOM      4  C   UNL     1       0.595  -2.261   3.326  0.00  0.00    +0.307 C 
ATOM      5  O   UNL     1       1.061  -2.403   4.440  0.00  0.00    -0.252 OA
ATOM      6  N   UNL     1       0.377  -1.014   2.865  0.00  0.00    -0.288 N 
ATOM      7  C   UNL     1      -0.182  -0.855   1.512  0.00  0.00    +0.144 C 
ATOM      8  H   UNL     1       0.588  -0.239   3.409  0.00  0.00    +0.151 HD
ENDROOT
BRANCH   7   9
ATOM      9  C   UNL     1      -1.462  -0.069   1.633  0.00  0.00    -0.022 A 
ATOM     10  C   UNL     1      -2.393  -0.409   2.597  0.00  0.00    +0.006 A 
ATOM     11  C   UNL     1      -3.567   0.312   2.708  0.00  0.00    +0.001 A 
ATOM     12  C   UNL     1      -3.811   1.373   1.855  0.00  0.00    +0.003 A 
ATOM     13  C   UNL     1      -2.879   1.713   0.893  0.00  0.00    -0.050 A 
ATOM     14  C   UNL     1      -1.703   0.995   0.784  0.00  0.00    +0.009 A 
ATOM     15  C   UNL     1      -3.145   2.870  -0.037  0.00  0.00    +0.044 C 
ENDBRANCH   7   9
BRANCH   1  16
ATOM     16  C   UNL     1      -1.027  -2.074  -0.565  0.00  0.00    +0.339 C 
ATOM     17  O   UNL     1      -0.310  -1.818  -1.514  0.00  0.00    -0.245 OA
BRANCH  16  18
ATOM     18  O   UNL     1      -2.342  -2.311  -0.758  0.00  0.00    -0.462 OA
BRANCH  18  20
ATOM     19  C   UNL     1      -4.324  -2.539  -2.122  0.00  0.00    +0.048 C 
ATOM     20  C   UNL     1      -2.822  -2.244  -2.102  0.00  0.00    +0.229 C 
ENDBRANCH  18  20
ENDBRANCH  16  18
ENDBRANCH   1  16
BRANCH   3  21
ATOM     21  C   UNL     1       0.585  -4.663   3.187  0.00  0.00    +0.141 C 
BRANCH  21  22
ATOM     22  C   UNL     1       1.990  -5.088   2.842  0.00  0.00    -0.015 C 
ATOM     23  C   UNL     1       2.826  -5.416   3.795  0.00  0.00    +0.005 C 
ENDBRANCH  21  22
ENDBRANCH   3  21
BRANCH   2  24
ATOM     24  C   UNL     1      -0.491  -4.589   0.605  0.00  0.00    +0.136 C 
BRANCH  24  25
ATOM     25  N   UNL     1       0.777  -5.259   0.289  0.00  0.00    -0.294 NA
ATOM     26  C   UNL     1       1.567  -4.469  -0.664  0.00  0.00    +0.104 C 
ATOM     27  C   UNL     1       2.952  -5.106  -0.827  0.00  0.00    +0.124 C 
ATOM     28  N   UNL     1       2.775  -6.521  -1.187  0.00  0.00    -0.292 N 
ATOM     29  C   UNL     1       1.885  -7.346  -0.355  0.00  0.00    +0.087 C 
ATOM     30  C   UNL     1       0.543  -6.620  -0.211  0.00  0.00    +0.107 C 
ATOM     31  C   UNL     1       1.670  -8.705  -1.024  0.00  0.00    +0.029 C 
ATOM     32  C   UNL     1       3.412  -7.048  -2.252  0.00  0.00    +0.250 C 
ATOM     33  O   UNL     1       3.189  -8.196  -2.586  0.00  0.00    -0.270 OA
BRANCH  32  34
ATOM     34  C   UNL     1       4.380  -6.232  -3.012  0.00  0.00    +0.072 A 
ATOM     35  C   UNL     1       5.102  -5.223  -2.371  0.00  0.00    +0.016 A 
ATOM     36  C   UNL     1       6.005  -4.465  -3.086  0.00  0.00    +0.001 A 
ATOM     37  C   UNL     1       6.198  -4.701  -4.437  0.00  0.00    +0.003 A 
ATOM     38  C   UNL     1       5.488  -5.698  -5.080  0.00  0.00    +0.039 A 
ATOM     39  C   UNL     1       4.583  -6.471  -4.374  0.00  0.00    +0.135 A 
ATOM     40  F   UNL     1       3.894  -7.448  -5.002  0.00  0.00    -0.205 F 
ENDBRANCH  32  34
ENDBRANCH  24  25
ENDBRANCH   2  24
TORSDOF 9
