REMARK  Name = ZINC40467147
REMARK  4 active torsions:
REMARK  status: ('A' for Active; 'I' for Inactive)
REMARK    1  A    between atoms: C_1  and  C_2
REMARK    2  A    between atoms: C_5  and  N_7
REMARK    3  A    between atoms: N_9  and  C_21
REMARK    4  A    between atoms: C_13  and  C_14
REMARK                            x       y       z     vdW  Elec       q    Type
REMARK                         _______ _______ _______ _____ _____    ______ ____
ROOT
ATOM      1  N   UNL     1      -4.259  -6.273   2.314  0.00  0.00    -0.199 NA
ATOM      2  C   UNL     1      -2.993  -6.638   2.342  0.00  0.00    +0.170 C 
ATOM      3  N   UNL     1      -2.252  -7.235   1.348  0.00  0.00    -0.249 N 
ATOM      4  C   UNL     1      -0.980  -7.538   1.545  0.00  0.00    +0.259 C 
ATOM      5  O   UNL     1      -0.310  -8.066   0.676  0.00  0.00    -0.269 OA
ATOM      6  C   UNL     1      -0.409  -7.207   2.860  0.00  0.00    +0.079 C 
ATOM      7  C   UNL     1       0.856  -7.404   3.328  0.00  0.00    +0.046 C 
ATOM      8  S   UNL     1      -1.819  -6.472   3.676  0.00  0.00    -0.049 S 
ATOM      9  C   UNL     1      -2.878  -7.539   0.059  0.00  0.00    +0.140 C 
ENDROOT
BRANCH   1  14
ATOM     10  C   UNL     1      -6.869  -8.537  -1.128  0.00  0.00    +0.066 C 
ATOM     11  C   UNL     1      -6.207  -7.322  -0.529  0.00  0.00    +0.048 A 
ATOM     12  C   UNL     1      -6.282  -6.127  -1.164  0.00  0.00    +0.071 A 
ATOM     13  S   UNL     1      -5.354  -5.093  -0.038  0.00  0.00    -0.056 S 
ATOM     14  C   UNL     1      -4.966  -6.364   1.158  0.00  0.00    +0.195 A 
ATOM     15  N   UNL     1      -5.562  -7.421   0.614  0.00  0.00    -0.226 NA
ENDBRANCH   1  14
BRANCH   7  16
ATOM     16  C   UNL     1       1.780  -8.162   2.571  0.00  0.00    +0.040 A 
ATOM     17  C   UNL     1       2.194  -9.455   2.841  0.00  0.00    +0.027 A 
ATOM     18  C   UNL     1       3.106  -9.811   1.843  0.00  0.00    +0.019 A 
ATOM     19  C   UNL     1       3.233  -8.759   0.999  0.00  0.00    +0.083 A 
ATOM     20  N   UNL     1       2.428  -7.751   1.428  0.00  0.00    -0.361 N 
ATOM     21  H   UNL     1       2.328  -6.886   1.001  0.00  0.00    +0.165 HD
ENDBRANCH   7  16
TORSDOF 2
