REMARK  Name = ZINC40726969
REMARK  5 active torsions:
REMARK  status: ('A' for Active; 'I' for Inactive)
REMARK    1  A    between atoms: C_1  and  N_2
REMARK    2  A    between atoms: N_2  and  C_3
REMARK    3  A    between atoms: C_10  and  N_27
REMARK    4  A    between atoms: C_11  and  N_15
REMARK    5  A    between atoms: N_18  and  C_21
REMARK                            x       y       z     vdW  Elec       q    Type
REMARK                         _______ _______ _______ _____ _____    ______ ____
ROOT
ATOM      1  C   UNL     1       1.219   0.344   0.645  0.00  0.00    +0.137 C 
ATOM      2  N   UNL     1      -0.047  -0.057   0.026  0.00  0.00    -0.288 N 
ATOM      3  C   UNL     1      -0.051  -0.636  -1.238  0.00  0.00    +0.128 A 
ATOM      4  C   UNL     1      -0.044   0.162  -2.384  0.00  0.00    +0.104 A 
ATOM      5  C   UNL     1      -0.048  -0.471  -3.628  0.00  0.00    +0.147 A 
ATOM      6  N   UNL     1      -0.058  -1.802  -3.675  0.00  0.00    -0.221 NA
ATOM      7  C   UNL     1      -0.063  -2.518  -2.569  0.00  0.00    +0.200 A 
ATOM      8  N   UNL     1      -0.054  -1.960  -1.375  0.00  0.00    -0.333 N 
ATOM      9  H   UNL     1      -0.055  -2.523  -0.584  0.00  0.00    +0.168 HD
ENDROOT
BRANCH   2  10
ATOM     10  C   UNL     1      -1.252   0.143   0.706  0.00  0.00    +0.035 A 
ATOM     11  C   UNL     1      -2.442  -0.332   0.169  0.00  0.00    +0.023 A 
ATOM     12  C   UNL     1      -3.630  -0.133   0.844  0.00  0.00    +0.002 A 
ATOM     13  C   UNL     1      -3.636   0.539   2.053  0.00  0.00    +0.000 A 
ATOM     14  C   UNL     1      -2.453   1.013   2.590  0.00  0.00    +0.002 A 
ATOM     15  C   UNL     1      -1.261   0.813   1.923  0.00  0.00    +0.023 A 
ENDBRANCH   2  10
BRANCH   5  16
ATOM     16  N   UNL     1      -0.043   0.276  -4.800  0.00  0.00    -0.311 N 
ATOM     17  C   UNL     1       1.219   0.572  -5.492  0.00  0.00    +0.125 C 
ATOM     18  C   UNL     1       1.108   0.088  -6.943  0.00  0.00    +0.124 C 
ATOM     19  N   UNL     1      -0.148   0.595  -7.512  0.00  0.00    -0.327 N 
ATOM     20  C   UNL     1      -1.410   0.299  -6.820  0.00  0.00    +0.124 C 
ATOM     21  C   UNL     1      -1.299   0.778  -5.372  0.00  0.00    +0.125 C 
BRANCH  19  22
ATOM     22  C   UNL     1      -0.143   1.346  -8.690  0.00  0.00    +0.030 A 
ATOM     23  C   UNL     1       1.038   1.514  -9.403  0.00  0.00    +0.023 A 
ATOM     24  C   UNL     1       1.040   2.257 -10.567  0.00  0.00    +0.002 A 
ATOM     25  C   UNL     1      -0.132   2.833 -11.023  0.00  0.00    +0.000 A 
ATOM     26  C   UNL     1      -1.308   2.668 -10.316  0.00  0.00    +0.002 A 
ATOM     27  C   UNL     1      -1.319   1.922  -9.154  0.00  0.00    +0.023 A 
ENDBRANCH  19  22
ENDBRANCH   5  16
BRANCH   4  28
ATOM     28  N   UNL     1      -0.035   1.562  -2.287  0.00  0.00    -0.353 N 
ATOM     29  H   UNL     1      -0.106   1.989  -1.419  0.00  0.00    +0.143 HD
ATOM     30  H   UNL     1       0.043   2.103  -3.088  0.00  0.00    +0.143 HD
ENDBRANCH   4  28
TORSDOF 4
