REMARK  Name = ZINC64776027
REMARK  7 active torsions:
REMARK  status: ('A' for Active; 'I' for Inactive)
REMARK    1  A    between atoms: C_1  and  C_2
REMARK    2  A    between atoms: C_2  and  C_4
REMARK    3  A    between atoms: C_2  and  N_20
REMARK    4  A    between atoms: N_6  and  C_7
REMARK    5  A    between atoms: C_7  and  C_9
REMARK    6  A    between atoms: C_7  and  C_10
REMARK    7  A    between atoms: N_31  and  C_34
REMARK                            x       y       z     vdW  Elec       q    Type
REMARK                         _______ _______ _______ _____ _____    ______ ____
ROOT
ATOM      1  C   UNL     1      -0.019   1.526   0.010  0.00  0.00    +0.041 C 
ATOM      2  C   UNL     1       0.002  -0.004   0.002  0.00  0.00    +0.170 C 
ENDROOT
BRANCH   2   3
ATOM      3  N   UNL     1       0.711  -0.489   1.189  0.00  0.00    -0.324 N 
ATOM      4  C   UNL     1       0.334  -0.236   2.490  0.00  0.00    +0.051 A 
ATOM      5  C   UNL     1      -0.724   0.483   3.043  0.00  0.00    +0.026 A 
ATOM      6  C   UNL     1      -0.856   0.568   4.411  0.00  0.00    +0.002 A 
ATOM      7  C   UNL     1       0.058  -0.055   5.249  0.00  0.00    +0.001 A 
ATOM      8  C   UNL     1       1.103  -0.765   4.728  0.00  0.00    +0.010 A 
ATOM      9  C   UNL     1       1.255  -0.865   3.345  0.00  0.00    +0.009 A 
ATOM     10  C   UNL     1       2.236  -1.531   2.477  0.00  0.00    +0.033 A 
ATOM     11  C   UNL     1       1.846  -1.269   1.164  0.00  0.00    +0.119 A 
ATOM     12  C   UNL     1       2.623  -1.805   0.109  0.00  0.00    +0.291 A 
ATOM     13  O   UNL     1       2.314  -1.593  -1.052  0.00  0.00    -0.264 OA
ATOM     14  N   UNL     1       3.708  -2.550   0.400  0.00  0.00    -0.231 N 
ATOM     15  N   UNL     1       4.073  -2.799   1.727  0.00  0.00    -0.176 NA
ATOM     16  C   UNL     1       3.384  -2.314   2.722  0.00  0.00    +0.143 A 
ATOM     17  C   UNL     1       4.515  -3.107  -0.688  0.00  0.00    +0.176 C 
ENDBRANCH   2   3
BRANCH   2  18
ATOM     18  C   UNL     1      -1.412  -0.526   0.013  0.00  0.00    +0.236 C 
ATOM     19  O   UNL     1      -1.790  -1.233   0.922  0.00  0.00    -0.274 OA
ATOM     20  N   UNL     1      -2.256  -0.206  -0.988  0.00  0.00    -0.310 N 
ATOM     21  H   UNL     1      -1.953   0.360  -1.716  0.00  0.00    +0.149 HD
BRANCH  20  22
ATOM     22  C   UNL     1      -3.630  -0.713  -0.978  0.00  0.00    +0.076 C 
ATOM     23  C   UNL     1      -4.509   0.214  -0.137  0.00  0.00    +0.028 C 
BRANCH  22  24
ATOM     24  C   UNL     1      -4.166  -0.764  -2.410  0.00  0.00    -0.010 C 
ATOM     25  C   UNL     1      -3.286  -1.692  -3.251  0.00  0.00    +0.012 C 
ATOM     26  C   UNL     1      -3.822  -1.742  -4.683  0.00  0.00    -0.010 C 
ATOM     27  C   UNL     1      -5.257  -2.272  -4.673  0.00  0.00    +0.007 C 
ATOM     28  C   UNL     1      -6.137  -1.344  -3.832  0.00  0.00    -0.010 C 
ATOM     29  C   UNL     1      -5.601  -1.294  -2.399  0.00  0.00    +0.012 C 
ATOM     30  C   UNL     1      -6.117   0.062  -4.434  0.00  0.00    +0.007 C 
ATOM     31  C   UNL     1      -4.681   0.592  -4.445  0.00  0.00    -0.010 C 
ATOM     32  C   UNL     1      -3.802  -0.336  -5.286  0.00  0.00    +0.007 C 
ATOM     33  C   UNL     1      -4.145   0.642  -3.013  0.00  0.00    +0.012 C 
ENDBRANCH  22  24
ENDBRANCH  20  22
ENDBRANCH   2  18
TORSDOF 4
