REMARK  Name = ZINC39990216
REMARK  10 active torsions:
REMARK  status: ('A' for Active; 'I' for Inactive)
REMARK    1  A    between atoms: C_1  and  C_2
REMARK    2  A    between atoms: C_2  and  C_3
REMARK    3  A    between atoms: C_3  and  N_4
REMARK    4  A    between atoms: C_5  and  N_27
REMARK    5  A    between atoms: C_6  and  C_14
REMARK    6  A    between atoms: C_7  and  C_13
REMARK    7  A    between atoms: C_8  and  C_11
REMARK    8  A    between atoms: N_18  and  C_22
REMARK    9  A    between atoms: C_22  and  C_23
REMARK   10  A    between atoms: C_23  and  C_24
REMARK                            x       y       z     vdW  Elec       q    Type
REMARK                         _______ _______ _______ _____ _____    ______ ____
ROOT
ATOM      1  N   UNL     1      -1.424  -2.051  -0.013  0.00  0.00    -0.295 N 
ATOM      2  C   UNL     1      -1.292  -2.557  -1.267  0.00  0.00    +0.112 A 
ATOM      3  C   UNL     1      -1.307  -3.945  -1.482  0.00  0.00    +0.019 A 
ATOM      4  C   UNL     1      -1.458  -4.812  -0.387  0.00  0.00    -0.017 A 
ATOM      5  C   UNL     1      -1.591  -4.269   0.888  0.00  0.00    +0.120 A 
ATOM      6  C   UNL     1      -1.565  -2.860   1.052  0.00  0.00    +0.270 A 
ATOM      7  O   UNL     1      -1.676  -2.379   2.166  0.00  0.00    -0.266 OA
ATOM      8  C   UNL     1      -1.478  -6.305  -0.589  0.00  0.00    +0.046 C 
ENDROOT
BRANCH   3   9
ATOM      9  C   UNL     1      -1.165  -4.483  -2.836  0.00  0.00    +0.032 C 
ATOM     10  C   UNL     1      -0.052  -5.189  -3.174  0.00  0.00    +0.077 C 
ATOM     11  C   UNL     1       0.327  -5.738  -4.437  0.00  0.00    +0.258 C 
ATOM     12  O   UNL     1      -0.386  -5.609  -5.416  0.00  0.00    -0.269 OA
ATOM     13  N   UNL     1       1.474  -6.390  -4.511  0.00  0.00    -0.255 N 
ATOM     14  C   UNL     1       2.265  -6.533  -3.425  0.00  0.00    +0.121 C 
ATOM     15  S   UNL     1       3.774  -7.330  -3.293  0.00  0.00    -0.027 S 
ATOM     16  S   UNL     1       1.339  -5.674  -2.161  0.00  0.00    -0.061 S 
BRANCH  13  17
ATOM     17  C   UNL     1       1.895  -6.967  -5.791  0.00  0.00    +0.126 C 
BRANCH  17  18
ATOM     18  C   UNL     1       2.719  -5.938  -6.568  0.00  0.00    +0.144 C 
BRANCH  18  19
ATOM     19  C   UNL     1       3.151  -6.531  -7.884  0.00  0.00    +0.358 C 
ATOM     20  O   UNL     1       2.830  -7.671  -8.173  0.00  0.00    -0.246 OA
ATOM     21  O   UNL     1       3.822  -5.871  -8.659  0.00  0.00    -0.246 OA
ENDBRANCH  18  19
ENDBRANCH  17  18
ENDBRANCH  13  17
ENDBRANCH   3   9
BRANCH   2  22
ATOM     22  N   UNL     1      -1.145  -1.709  -2.326  0.00  0.00    -0.316 N 
ATOM     23  C   UNL     1      -2.328  -1.117  -2.909  0.00  0.00    +0.106 C 
ATOM     24  C   UNL     1      -2.877  -2.041  -4.024  0.00  0.00    +0.019 C 
ATOM     25  C   UNL     1      -1.986  -2.014  -5.194  0.00  0.00    +0.002 C 
ATOM     26  C   UNL     1      -0.579  -2.539  -4.925  0.00  0.00    +0.002 C 
ATOM     27  C   UNL     1       0.273  -1.426  -4.367  0.00  0.00    +0.019 C 
ATOM     28  C   UNL     1       0.215  -1.431  -2.825  0.00  0.00    +0.106 C 
ENDBRANCH   2  22
BRANCH   5  29
ATOM     29  C   UNL     1      -1.748  -5.125   2.025  0.00  0.00    +0.105 C 
ATOM     30  N   UNL     1      -1.872  -5.805   2.927  0.00  0.00    -0.191 NA
ENDBRANCH   5  29
BRANCH   1  31
ATOM     31  C   UNL     1      -1.407  -0.600   0.183  0.00  0.00    +0.126 C 
BRANCH  31  33
ATOM     32  C   UNL     1       0.068   1.405   0.408  0.00  0.00    +0.005 C 
ATOM     33  C   UNL     1       0.040  -0.123   0.333  0.00  0.00    +0.018 C 
ENDBRANCH  31  33
ENDBRANCH   1  31
TORSDOF 8
