REMARK  Name = ZINC38959511
REMARK  9 active torsions:
REMARK  status: ('A' for Active; 'I' for Inactive)
REMARK    1  A    between atoms: C_1  and  C_2
REMARK    2  A    between atoms: C_6  and  C_8
REMARK    3  A    between atoms: N_10  and  C_11
REMARK    4  A    between atoms: C_11  and  C_12
REMARK    5  A    between atoms: C_16  and  S_20
REMARK    6  A    between atoms: N_18  and  C_19
REMARK    7  A    between atoms: S_20  and  C_21
REMARK    8  A    between atoms: C_21  and  C_22
REMARK    9  A    between atoms: C_27  and  C_30
REMARK                            x       y       z     vdW  Elec       q    Type
REMARK                         _______ _______ _______ _____ _____    ______ ____
ROOT
ATOM      1  C   UNL     1       0.221  -6.449   3.557  0.00  0.00    +0.157 C 
ATOM      2  N   UNL     1      -0.957  -6.812   2.736  0.00  0.00    -0.236 NA
ATOM      3  N   UNL     1      -0.464  -6.779   1.351  0.00  0.00    -0.229 NA
ATOM      4  C   UNL     1       0.911  -7.331   1.470  0.00  0.00    +0.200 C 
ATOM      5  N   UNL     1       1.414  -6.781   2.751  0.00  0.00    -0.263 NA
ATOM      6  C   UNL     1       2.264  -7.758   3.446  0.00  0.00    +0.109 C 
ATOM      7  H   UNL     1      -1.708  -6.151   2.869  0.00  0.00    +0.142 HD
ATOM      8  H   UNL     1      -0.445  -5.834   0.996  0.00  0.00    +0.143 HD
ENDROOT
BRANCH   1   9
ATOM      9  C   UNL     1       0.200  -4.952   3.871  0.00  0.00    +0.140 C 
BRANCH   9  12
ATOM     10  C   UNL     1      -1.192  -3.382   5.109  0.00  0.00    +0.244 C 
ATOM     11  O   UNL     1      -0.576  -2.470   4.594  0.00  0.00    -0.270 OA
ATOM     12  N   UNL     1      -0.915  -4.658   4.774  0.00  0.00    -0.309 N 
ATOM     13  H   UNL     1      -1.454  -5.381   5.131  0.00  0.00    +0.149 HD
BRANCH  10  19
ATOM     14  C   UNL     1      -3.681  -0.104   7.931  0.00  0.00    +0.044 C 
ATOM     15  C   UNL     1      -3.446  -1.518   7.465  0.00  0.00    -0.050 A 
ATOM     16  C   UNL     1      -4.220  -2.548   7.970  0.00  0.00    +0.003 A 
ATOM     17  C   UNL     1      -4.012  -3.849   7.547  0.00  0.00    +0.001 A 
ATOM     18  C   UNL     1      -3.030  -4.126   6.618  0.00  0.00    +0.013 A 
ATOM     19  C   UNL     1      -2.246  -3.092   6.105  0.00  0.00    +0.037 A 
ATOM     20  C   UNL     1      -2.466  -1.781   6.531  0.00  0.00    +0.016 A 
ENDBRANCH  10  19
ENDBRANCH   9  12
ENDBRANCH   1   9
BRANCH   4  21
ATOM     21  S   UNL     1       1.942  -6.771   0.086  0.00  0.00    -0.116 S 
BRANCH  21  22
ATOM     22  C   UNL     1       2.027  -4.972   0.302  0.00  0.00    +0.168 C 
BRANCH  22  23
ATOM     23  C   UNL     1       2.764  -4.361  -0.862  0.00  0.00    +0.229 C 
ATOM     24  O   UNL     1       3.189  -5.069  -1.750  0.00  0.00    -0.275 OA
ATOM     25  N   UNL     1       2.950  -3.027  -0.916  0.00  0.00    -0.264 N 
ATOM     26  C   UNL     1       3.629  -2.464  -1.990  0.00  0.00    +0.165 A 
ATOM     27  N   UNL     1       3.916  -1.197  -2.224  0.00  0.00    -0.225 NA
ATOM     28  C   UNL     1       4.580  -0.832  -3.311  0.00  0.00    +0.080 A 
ATOM     29  C   UNL     1       4.975  -1.785  -4.207  0.00  0.00    +0.076 A 
ATOM     30  S   UNL     1       4.353  -3.263  -3.416  0.00  0.00    -0.060 S 
ATOM     31  H   UNL     1       2.609  -2.461  -0.206  0.00  0.00    +0.157 HD
BRANCH  28  32
ATOM     32  C   UNL     1       4.891   0.598  -3.553  0.00  0.00    +0.001 A 
ATOM     33  C   UNL     1       5.584   0.979  -4.700  0.00  0.00    +0.010 A 
ATOM     34  C   UNL     1       5.871   2.311  -4.920  0.00  0.00    +0.001 A 
ATOM     35  C   UNL     1       5.472   3.267  -4.004  0.00  0.00    +0.000 A 
ATOM     36  C   UNL     1       4.784   2.895  -2.863  0.00  0.00    +0.001 A 
ATOM     37  C   UNL     1       4.486   1.567  -2.636  0.00  0.00    +0.010 A 
ENDBRANCH  28  32
ENDBRANCH  22  23
ENDBRANCH  21  22
ENDBRANCH   4  21
TORSDOF 7
