REMARK  Name = ZINC58990693
REMARK  8 active torsions:
REMARK  status: ('A' for Active; 'I' for Inactive)
REMARK    1  A    between atoms: C_1  and  C_2
REMARK    2  A    between atoms: C_5  and  C_7
REMARK    3  A    between atoms: N_8  and  N_9
REMARK    4  A    between atoms: C_10  and  C_12
REMARK    5  A    between atoms: C_12  and  S_13
REMARK    6  A    between atoms: S_13  and  C_14
REMARK    7  A    between atoms: C_17  and  C_20
REMARK    8  A    between atoms: N_18  and  N_19
REMARK                            x       y       z     vdW  Elec       q    Type
REMARK                         _______ _______ _______ _____ _____    ______ ____
ROOT
ATOM      1  C   UNL     1       8.763  -5.984  -0.156  0.00  0.00    +0.209 A 
ATOM      2  N   UNL     1       8.309  -7.207   0.004  0.00  0.00    -0.121 NA
ATOM      3  N   UNL     1       9.288  -8.039   0.046  0.00  0.00    -0.127 NA
ATOM      4  C   UNL     1      10.426  -7.398  -0.083  0.00  0.00    +0.183 A 
ATOM      5  N   UNL     1      10.125  -6.063  -0.222  0.00  0.00    -0.224 N 
ENDROOT
BRANCH   4   6
ATOM      6  C   UNL     1      11.777  -7.998  -0.084  0.00  0.00    +0.035 A 
ATOM      7  C   UNL     1      12.790  -7.446   0.702  0.00  0.00    +0.013 A 
ATOM      8  C   UNL     1      14.049  -8.011   0.697  0.00  0.00    +0.001 A 
ATOM      9  C   UNL     1      14.308  -9.124  -0.085  0.00  0.00    +0.001 A 
ATOM     10  C   UNL     1      13.309  -9.676  -0.866  0.00  0.00    +0.016 A 
ATOM     11  C   UNL     1      12.044  -9.123  -0.866  0.00  0.00    +0.029 A 
ATOM     12 BR   UNL     1      10.677  -9.885  -1.929  0.00  0.00    -0.050 Br
ENDBRANCH   4   6
BRANCH   5  13
ATOM     13  N   UNL     1      11.004  -5.031  -0.389  0.00  0.00    -0.295 N 
ATOM     14  H   UNL     1      11.354  -4.707   0.501  0.00  0.00    +0.163 HD
ATOM     15  H   UNL     1      11.762  -5.297  -1.000  0.00  0.00    +0.163 HD
ENDBRANCH   5  13
BRANCH   1  16
ATOM     16  S   UNL     1       7.794  -4.516  -0.270  0.00  0.00    -0.075 S 
BRANCH  16  17
ATOM     17  C   UNL     1       6.086  -5.104  -0.108  0.00  0.00    +0.174 C 
BRANCH  17  19
ATOM     18  N   UNL     1       3.812  -4.131  -0.094  0.00  0.00    -0.206 N 
ATOM     19  C   UNL     1       5.141  -3.933  -0.190  0.00  0.00    +0.242 C 
ATOM     20  O   UNL     1       5.578  -2.811  -0.342  0.00  0.00    -0.273 OA
ATOM     21  H   UNL     1       3.463  -5.028   0.028  0.00  0.00    +0.177 HD
BRANCH  18  23
ATOM     22  C   UNL     1       1.651  -3.233  -0.077  0.00  0.00    +0.176 C 
ATOM     23  N   UNL     1       2.934  -3.042  -0.170  0.00  0.00    -0.185 NA
BRANCH  22  28
ATOM     24  C   UNL     1      -0.049   1.457  -0.518  0.00  0.00    +0.086 C 
ATOM     25  C   UNL     1      -0.021  -0.040  -0.349  0.00  0.00    +0.103 A 
ATOM     26  C   UNL     1      -1.101  -0.834  -0.198  0.00  0.00    +0.045 A 
ATOM     27  C   UNL     1      -0.629  -2.154  -0.074  0.00  0.00    +0.051 A 
ATOM     28  C   UNL     1       0.732  -2.094  -0.156  0.00  0.00    +0.148 A 
ATOM     29  O   UNL     1       1.083  -0.804  -0.328  0.00  0.00    -0.459 OA
ENDBRANCH  22  28
ENDBRANCH  18  23
ENDBRANCH  17  19
ENDBRANCH  16  17
ENDBRANCH   1  16
TORSDOF 7
