REMARK  Name = ZINC00716741
REMARK  11 active torsions:
REMARK  status: ('A' for Active; 'I' for Inactive)
REMARK    1  A    between atoms: C_1  and  O_2
REMARK    2  A    between atoms: O_2  and  C_3
REMARK    3  A    between atoms: C_5  and  C_13
REMARK    4  A    between atoms: C_7  and  O_11
REMARK    5  A    between atoms: C_8  and  O_9
REMARK    6  A    between atoms: O_9  and  C_10
REMARK    7  A    between atoms: O_11  and  C_12
REMARK    8  A    between atoms: C_22  and  C_30
REMARK    9  A    between atoms: C_23  and  N_29
REMARK   10  A    between atoms: C_24  and  C_25
REMARK   11  A    between atoms: C_24  and  C_27
REMARK                            x       y       z     vdW  Elec       q    Type
REMARK                         _______ _______ _______ _____ _____    ______ ____
ROOT
ATOM      1  C   UNL     1       0.002  -0.004   0.002  0.00  0.00    +0.066 C 
ATOM      2  C   UNL     1       1.020  -0.349   1.091  0.00  0.00    +0.030 C 
ATOM      3  C   UNL     1       1.067  -1.833   1.369  0.00  0.00    +0.009 C 
ATOM      4  C   UNL     1       2.233  -2.510   0.652  0.00  0.00    +0.005 C 
ATOM      5  C   UNL     1       3.538  -1.855   1.125  0.00  0.00    +0.027 C 
ATOM      6  C   UNL     1       3.484  -0.398   0.745  0.00  0.00    -0.022 C 
ATOM      7  C   UNL     1       2.339   0.256   0.712  0.00  0.00    -0.029 C 
ATOM      8  C   UNL     1       2.320   1.661   0.226  0.00  0.00    +0.074 C 
ATOM      9  C   UNL     1       1.139   2.224  -0.132  0.00  0.00    +0.054 C 
ATOM     10  C   UNL     1      -0.178   1.514  -0.045  0.00  0.00    +0.188 C 
ENDROOT
BRANCH   1  13
ATOM     11  C   UNL     1       0.606  -2.206  -3.010  0.00  0.00    +0.165 A 
ATOM     12  C   UNL     1       0.146  -1.751  -1.783  0.00  0.00    +0.053 A 
ATOM     13  C   UNL     1       0.504  -0.495  -1.332  0.00  0.00    -0.034 A 
ATOM     14  C   UNL     1       1.316   0.316  -2.103  0.00  0.00    +0.053 A 
ATOM     15  C   UNL     1       1.784  -0.134  -3.328  0.00  0.00    +0.165 A 
ATOM     16  C   UNL     1       1.427  -1.397  -3.785  0.00  0.00    +0.204 A 
BRANCH  11  18
ATOM     17  C   UNL     1      -0.593  -4.220  -2.602  0.00  0.00    +0.277 C 
ATOM     18  O   UNL     1       0.254  -3.443  -3.452  0.00  0.00    -0.491 OA
ENDBRANCH  11  18
BRANCH  16  19
ATOM     19  O   UNL     1       1.880  -1.840  -4.990  0.00  0.00    -0.488 OA
ATOM     20  C   UNL     1       1.071  -1.555  -6.132  0.00  0.00    +0.277 C 
ENDBRANCH  16  19
BRANCH  15  21
ATOM     21  O   UNL     1       2.588   0.661  -4.084  0.00  0.00    -0.491 OA
ATOM     22  C   UNL     1       2.914   1.946  -3.551  0.00  0.00    +0.277 C 
ENDBRANCH  15  21
ENDBRANCH   1  13
BRANCH   9  23
ATOM     23  N   UNL     1       1.151   3.509  -0.598  0.00  0.00    -0.358 N 
ATOM     24  H   UNL     1       0.210   3.994  -0.896  0.00  0.00    +0.142 HD
ATOM     25  H   UNL     1       2.101   4.058  -0.674  0.00  0.00    +0.142 HD
ENDBRANCH   9  23
BRANCH  10  26
ATOM     26  C   UNL     1      -0.992   1.864  -1.221  0.00  0.00    +0.091 C 
ATOM     27  N   UNL     1      -1.619   2.135  -2.128  0.00  0.00    -0.194 NA
ENDBRANCH  10  26
BRANCH  10  28
ATOM     28  C   UNL     1      -0.881   1.952   1.171  0.00  0.00    +0.091 C 
ATOM     29  N   UNL     1      -1.423   2.291   2.110  0.00  0.00    -0.194 NA
ENDBRANCH  10  28
BRANCH   8  30
ATOM     30  C   UNL     1       3.536   2.411   0.136  0.00  0.00    +0.101 C 
ATOM     31  N   UNL     1       4.501   3.007   0.065  0.00  0.00    -0.191 NA
ENDBRANCH   8  30
TORSDOF 8
