REMARK  Name = ZINC20285903
REMARK  11 active torsions:
REMARK  status: ('A' for Active; 'I' for Inactive)
REMARK    1  A    between atoms: C_1  and  C_2
REMARK    2  A    between atoms: C_2  and  N_19
REMARK    3  A    between atoms: C_3  and  N_4
REMARK    4  A    between atoms: N_9  and  C_10
REMARK    5  A    between atoms: N_9  and  C_16
REMARK    6  A    between atoms: C_10  and  C_11
REMARK    7  A    between atoms: N_19  and  C_20
REMARK    8  A    between atoms: C_22  and  C_28
REMARK    9  A    between atoms: C_22  and  C_29
REMARK   10  A    between atoms: C_24  and  C_26
REMARK   11  A    between atoms: C_24  and  C_27
REMARK                            x       y       z     vdW  Elec       q    Type
REMARK                         _______ _______ _______ _____ _____    ______ ____
ROOT
ATOM      1  C   UNL     1       0.540   1.956  -0.298  0.00  0.00    +0.062 C 
ATOM      2  C   UNL     1       0.786   0.476  -0.158  0.00  0.00    +0.019 C 
ATOM      3  C   UNL     1       0.746  -0.098   1.052  0.00  0.00    +0.131 C 
ENDROOT
BRANCH   3   4
ATOM      4  N   UNL     1       0.482   0.655   2.153  0.00  0.00    -0.228 NA
ATOM      5  C   UNL     1       0.443   0.093   3.337  0.00  0.00    +0.198 C 
ATOM      6  N   UNL     1       0.218   0.434   4.674  0.00  0.00    -0.200 NA
ATOM      7  C   UNL     1       0.298  -0.586   5.571  0.00  0.00    +0.167 C 
ATOM      8  S   UNL     1       0.639  -1.506   4.088  0.00  0.00    -0.015 S 
ATOM      9  N   UNL     1       0.175  -0.796   6.917  0.00  0.00    -0.302 N 
BRANCH   9  10
ATOM     10  C   UNL     1       0.249  -2.157   7.456  0.00  0.00    +0.076 C 
ATOM     11  C   UNL     1       0.010  -2.336   8.957  0.00  0.00    +0.024 C 
ATOM     12  C   UNL     1       1.420  -2.487   8.383  0.00  0.00    +0.024 C 
ENDBRANCH   9  10
BRANCH   9  13
ATOM     13  C   UNL     1      -0.031   0.339   7.820  0.00  0.00    +0.149 C 
BRANCH  13  14
ATOM     14  C   UNL     1      -1.508   0.592   7.980  0.00  0.00    +0.007 A 
ATOM     15  C   UNL     1      -2.368   0.082   8.895  0.00  0.00    +0.013 A 
ATOM     16  C   UNL     1      -3.696   0.461   8.851  0.00  0.00    +0.008 A 
ATOM     17  C   UNL     1      -4.100   1.332   7.894  0.00  0.00    +0.045 A 
ATOM     18  S   UNL     1      -2.578   1.648   7.017  0.00  0.00    -0.100 S 
ENDBRANCH  13  14
ENDBRANCH   9  13
ENDBRANCH   3   4
BRANCH   2  19
ATOM     19  N   UNL     1       1.055  -0.292  -1.283  0.00  0.00    -0.343 N 
ATOM     20  H   UNL     1       1.214  -1.245  -1.193  0.00  0.00    +0.146 HD
BRANCH  19  21
ATOM     21  C   UNL     1       1.099   0.337  -2.609  0.00  0.00    +0.068 C 
ATOM     22  C   UNL     1      -0.313   0.374  -3.195  0.00  0.00    +0.009 C 
ATOM     23  C   UNL     1      -0.282   1.016  -4.582  0.00  0.00    -0.072 C 
ATOM     24  N   UNL     1       0.672   0.364  -5.466  0.00  0.00    +0.386 N 
ATOM     25  C   UNL     1       2.000   0.088  -4.942  0.00  0.00    -0.072 C 
ATOM     26  C   UNL     1       1.981  -0.500  -3.535  0.00  0.00    +0.009 C 
ATOM     27  C   UNL     1       2.892   1.331  -4.976  0.00  0.00    -0.010 C 
ATOM     28  C   UNL     1       2.656  -0.963  -5.869  0.00  0.00    -0.010 C 
ATOM     29  C   UNL     1      -0.024   2.518  -4.463  0.00  0.00    -0.010 C 
ATOM     30  C   UNL     1      -1.688   0.840  -5.200  0.00  0.00    -0.010 C 
ATOM     31  H   UNL     1       0.262  -0.518  -5.785  0.00  0.00    -0.084 HD
ATOM     32  H   UNL     1       0.770   0.934  -6.309  0.00  0.00    -0.084 HD
ENDBRANCH  19  21
ENDBRANCH   2  19
TORSDOF 6
