REMARK  Name = ZINC08214007
REMARK  7 active torsions:
REMARK  status: ('A' for Active; 'I' for Inactive)
REMARK    1  A    between atoms: C_1  and  C_2
REMARK    2  A    between atoms: C_2  and  C_4
REMARK    3  A    between atoms: C_2  and  N_55
REMARK    4  A    between atoms: N_9  and  C_10
REMARK    5  A    between atoms: C_20  and  N_55
REMARK    6  A    between atoms: C_21  and  C_22
REMARK    7  A    between atoms: C_21  and  N_55
REMARK                            x       y       z     vdW  Elec       q    Type
REMARK                         _______ _______ _______ _____ _____    ______ ____
ROOT
ATOM      1  C   UNL     1       2.951   5.332   2.859  0.00  0.00    +0.207 C 
ATOM      2  O   UNL     1       2.677   4.554   3.748  0.00  0.00    -0.277 OA
ATOM      3  N   UNL     1       3.587   6.485   3.145  0.00  0.00    -0.242 N 
ATOM      4  C   UNL     1       3.919   6.773   4.419  0.00  0.00    +0.306 C 
ATOM      5  O   UNL     1       3.645   5.993   5.310  0.00  0.00    -0.252 OA
ATOM      6  N   UNL     1       4.555   7.926   4.705  0.00  0.00    -0.294 N 
ATOM      7  H   UNL     1       3.806   7.107   2.434  0.00  0.00    +0.159 HD
ATOM      8  H   UNL     1       4.774   8.549   3.994  0.00  0.00    +0.151 HD
ENDROOT
BRANCH   6   9
ATOM      9  C   UNL     1       4.916   8.240   6.090  0.00  0.00    +0.037 C 
ATOM     10  C   UNL     1       3.650   8.294   6.947  0.00  0.00    +0.029 C 
ATOM     11  C   UNL     1       4.027   8.621   8.393  0.00  0.00    -0.008 C 
ATOM     12  C   UNL     1       4.734   9.977   8.441  0.00  0.00    +0.007 C 
ATOM     13  C   UNL     1       6.000   9.924   7.584  0.00  0.00    -0.008 C 
ATOM     14  C   UNL     1       5.623   9.596   6.138  0.00  0.00    +0.029 C 
ATOM     15  C   UNL     1       6.936   8.841   8.124  0.00  0.00    +0.007 C 
ATOM     16  C   UNL     1       6.230   7.485   8.076  0.00  0.00    -0.008 C 
ATOM     17  C   UNL     1       4.964   7.539   8.934  0.00  0.00    +0.007 C 
ATOM     18  C   UNL     1       5.853   7.157   6.630  0.00  0.00    +0.029 C 
ENDBRANCH   6   9
BRANCH   1  20
ATOM     19  C   UNL     1       1.643   6.092   0.894  0.00  0.00    -0.004 C 
ATOM     20  C   UNL     1       2.579   5.009   1.435  0.00  0.00    +0.017 C 
BRANCH  20  22
ATOM     21  C   UNL     1       0.607   3.762   2.083  0.00  0.00    -0.095 C 
ATOM     22  N   UNL     1       1.917   3.688   1.402  0.00  0.00    +0.390 N 
ATOM     23  H   UNL     1       2.509   3.006   1.891  0.00  0.00    -0.081 HD
BRANCH  22  24
ATOM     24  C   UNL     1       1.735   3.249   0.003  0.00  0.00    -0.003 C 
BRANCH  24  25
ATOM     25  C   UNL     1       1.265   1.817  -0.000  0.00  0.00    +0.089 A 
ATOM     26  C   UNL     1      -0.017   1.410   0.010  0.00  0.00    +0.042 A 
ATOM     27  C   UNL     1       0.002  -0.004   0.002  0.00  0.00    +0.041 A 
ATOM     28  C   UNL     1       1.295  -0.376  -0.012  0.00  0.00    +0.195 A 
ATOM     29  O   UNL     1       2.055   0.731  -0.014  0.00  0.00    -0.470 OA
ENDBRANCH  24  25
ENDBRANCH  22  24
ENDBRANCH  20  22
ENDBRANCH   1  20
TORSDOF 5
