REMARK  Name = ZINC39838804
REMARK  6 active torsions:
REMARK  status: ('A' for Active; 'I' for Inactive)
REMARK    1  A    between atoms: C_1  and  C_2
REMARK    2  A    between atoms: C_7  and  C_8
REMARK    3  A    between atoms: C_14  and  C_25
REMARK    4  A    between atoms: C_27  and  O_33
REMARK    5  A    between atoms: C_28  and  O_32
REMARK    6  A    between atoms: O_33  and  C_34
REMARK                            x       y       z     vdW  Elec       q    Type
REMARK                         _______ _______ _______ _____ _____    ______ ____
ROOT
ATOM      1  C   UNL     1      -0.018   1.503   0.010  0.00  0.00    +0.044 C 
ATOM      2  C   UNL     1       0.002  -0.004   0.002  0.00  0.00    -0.047 A 
ATOM      3  C   UNL     1       0.006  -0.685  -1.195  0.00  0.00    +0.019 A 
ATOM      4  C   UNL     1       0.024  -2.080  -1.194  0.00  0.00    +0.065 A 
ATOM      5  C   UNL     1       0.033  -2.793   0.016  0.00  0.00    +0.140 A 
ATOM      6  C   UNL     1       0.032  -2.080   1.214  0.00  0.00    +0.050 A 
ATOM      7  C   UNL     1       0.023  -0.703   1.200  0.00  0.00    -0.044 A 
ATOM      8  C   UNL     1       0.029   0.053   2.503  0.00  0.00    +0.044 C 
ATOM      9  O   UNL     1       0.037  -4.145   0.057  0.00  0.00    -0.450 OA
ATOM     10  C   UNL     1       0.273  -4.846  -1.070  0.00  0.00    +0.199 A 
ATOM     11  C   UNL     1       0.280  -4.269  -2.308  0.00  0.00    +0.072 A 
ATOM     12  C   UNL     1       0.036  -2.832  -2.474  0.00  0.00    +0.199 A 
ATOM     13  O   UNL     1      -0.140  -2.306  -3.559  0.00  0.00    -0.287 OA
ATOM     14  C   UNL     1       0.566  -5.340  -3.309  0.00  0.00    +0.153 C 
ATOM     15  N   UNL     1       0.727  -6.581  -2.532  0.00  0.00    -0.222 N 
ATOM     16  C   UNL     1       0.556  -6.282  -1.228  0.00  0.00    +0.290 C 
ATOM     17  O   UNL     1       0.626  -7.082  -0.317  0.00  0.00    -0.266 OA
ATOM     18  C   UNL     1       1.008  -7.837  -3.052  0.00  0.00    +0.225 A 
ATOM     19  N   UNL     1       1.155  -7.977  -4.360  0.00  0.00    -0.222 NA
ATOM     20  C   UNL     1       1.423  -9.160  -4.888  0.00  0.00    +0.116 A 
ATOM     21  C   UNL     1       1.548 -10.260  -4.053  0.00  0.00    +0.039 A 
ATOM     22  C   UNL     1       1.387 -10.077  -2.688  0.00  0.00    +0.116 A 
ATOM     23  N   UNL     1       1.126  -8.866  -2.226  0.00  0.00    -0.222 NA
ENDROOT
BRANCH  14  24
ATOM     24  C   UNL     1       1.833  -5.026  -4.060  0.00  0.00    -0.017 A 
ATOM     25  C   UNL     1       1.766  -4.463  -5.321  0.00  0.00    +0.055 A 
ATOM     26  C   UNL     1       2.931  -4.174  -6.013  0.00  0.00    +0.163 A 
ATOM     27  C   UNL     1       4.167  -4.450  -5.437  0.00  0.00    +0.173 A 
ATOM     28  C   UNL     1       4.228  -5.013  -4.172  0.00  0.00    +0.063 A 
ATOM     29  C   UNL     1       3.061  -5.296  -3.484  0.00  0.00    +0.025 A 
ATOM     30 BR   UNL     1       5.905  -5.390  -3.384  0.00  0.00    -0.046 Br
BRANCH  27  31
ATOM     31  O   UNL     1       5.313  -4.167  -6.113  0.00  0.00    -0.503 OA
ATOM     32  H   UNL     1       5.657  -3.279  -5.949  0.00  0.00    +0.292 HD
ENDBRANCH  27  31
BRANCH  26  33
ATOM     33  O   UNL     1       2.866  -3.621  -7.255  0.00  0.00    -0.491 OA
ATOM     34  C   UNL     1       1.564  -3.365  -7.784  0.00  0.00    +0.277 C 
ENDBRANCH  26  33
ENDBRANCH  14  24
TORSDOF 3
