REMARK  Name = ZINC39666480
REMARK  8 active torsions:
REMARK  status: ('A' for Active; 'I' for Inactive)
REMARK    1  A    between atoms: C_1  and  C_2
REMARK    2  A    between atoms: C_5  and  C_9
REMARK    3  A    between atoms: C_13  and  C_22
REMARK    4  A    between atoms: N_24  and  C_25
REMARK    5  A    between atoms: C_25  and  C_26
REMARK    6  A    between atoms: C_26  and  C_28
REMARK    7  A    between atoms: C_26  and  O_29
REMARK    8  A    between atoms: O_29  and  C_30
REMARK                            x       y       z     vdW  Elec       q    Type
REMARK                         _______ _______ _______ _____ _____    ______ ____
ROOT
ATOM      1  C   UNL     1      -0.724  -2.264  -0.069  0.00  0.00    +0.247 C 
ATOM      2  O   UNL     1      -0.546  -2.797  -1.146  0.00  0.00    -0.270 OA
ATOM      3  N   UNL     1      -0.439  -2.930   1.068  0.00  0.00    -0.296 N 
ATOM      4  C   UNL     1      -0.713  -2.508   2.462  0.00  0.00    +0.121 C 
ATOM      5  C   UNL     1      -1.154  -3.802   3.182  0.00  0.00    +0.100 C 
ATOM      6  C   UNL     1      -0.537  -4.941   2.354  0.00  0.00    -0.004 C 
ATOM      7  C   UNL     1       0.215  -4.254   1.206  0.00  0.00    +0.115 C 
ATOM      8  C   UNL     1      -1.634  -5.842   1.795  0.00  0.00    -0.010 C 
ATOM      9  C   UNL     1      -0.994  -7.000   1.024  0.00  0.00    -0.082 C 
ATOM     10  N   UNL     1      -0.118  -7.762   1.921  0.00  0.00    +0.379 N 
ATOM     11  C   UNL     1       0.988  -6.914   2.382  0.00  0.00    -0.082 C 
ATOM     12  C   UNL     1       0.431  -5.752   3.211  0.00  0.00    -0.010 C 
ATOM     13  H   UNL     1      -0.650  -8.081   2.717  0.00  0.00    -0.086 HD
ATOM     14  H   UNL     1       0.255  -8.559   1.428  0.00  0.00    -0.086 HD
ENDROOT
BRANCH   1  19
ATOM     15  C   UNL     1      -2.792   3.102   0.178  0.00  0.00    +0.047 C 
ATOM     16  C   UNL     1      -2.250   1.697   0.114  0.00  0.00    -0.015 A 
ATOM     17  C   UNL     1      -2.317   0.986  -1.071  0.00  0.00    +0.007 A 
ATOM     18  C   UNL     1      -1.823  -0.300  -1.137  0.00  0.00    +0.013 A 
ATOM     19  C   UNL     1      -1.254  -0.886  -0.004  0.00  0.00    +0.040 A 
ATOM     20  C   UNL     1      -1.189  -0.165   1.189  0.00  0.00    +0.051 A 
ATOM     21  C   UNL     1      -1.682   1.125   1.241  0.00  0.00    +0.127 A 
ATOM     22  F   UNL     1      -1.615   1.827   2.393  0.00  0.00    -0.205 F 
ENDBRANCH   1  19
BRANCH   5  23
ATOM     23  C   UNL     1      -2.657  -3.911   3.191  0.00  0.00    +0.218 C 
ATOM     24  O   UNL     1      -3.310  -3.370   2.323  0.00  0.00    -0.275 OA
ATOM     25  N   UNL     1      -3.276  -4.608   4.164  0.00  0.00    -0.312 N 
ATOM     26  H   UNL     1      -2.762  -4.979   4.898  0.00  0.00    +0.149 HD
BRANCH  25  27
ATOM     27  C   UNL     1      -4.727  -4.807   4.112  0.00  0.00    +0.148 C 
BRANCH  27  28
ATOM     28  C   UNL     1      -5.190  -5.518   5.386  0.00  0.00    +0.187 C 
ATOM     29  C   UNL     1      -6.693  -5.787   5.302  0.00  0.00    +0.053 C 
BRANCH  28  30
ATOM     30  O   UNL     1      -4.916  -4.691   6.519  0.00  0.00    -0.486 OA
BRANCH  30  31
ATOM     31  C   UNL     1      -4.805  -5.311   7.723  0.00  0.00    +0.139 A 
ATOM     32  C   UNL     1      -4.988  -6.683   7.818  0.00  0.00    +0.047 A 
ATOM     33  C   UNL     1      -4.873  -7.312   9.043  0.00  0.00    +0.004 A 
ATOM     34  C   UNL     1      -4.577  -6.575  10.175  0.00  0.00    +0.002 A 
ATOM     35  C   UNL     1      -4.395  -5.207  10.084  0.00  0.00    +0.023 A 
ATOM     36  C   UNL     1      -4.502  -4.574   8.860  0.00  0.00    +0.083 A 
ATOM     37 CL   UNL     1      -4.266  -2.858   8.745  0.00  0.00    -0.080 Cl
ENDBRANCH  30  31
ENDBRANCH  28  30
ENDBRANCH  27  28
ENDBRANCH  25  27
ENDBRANCH   5  23
TORSDOF 6
