REMARK  Name = ZINC50865900
REMARK  8 active torsions:
REMARK  status: ('A' for Active; 'I' for Inactive)
REMARK    1  A    between atoms: C_1  and  C_2
REMARK    2  A    between atoms: C_3  and  C_20
REMARK    3  A    between atoms: C_5  and  C_10
REMARK    4  A    between atoms: C_7  and  N_8
REMARK    5  A    between atoms: N_8  and  C_9
REMARK    6  A    between atoms: C_12  and  O_18
REMARK    7  A    between atoms: C_13  and  O_17
REMARK    8  A    between atoms: O_18  and  C_19
REMARK                            x       y       z     vdW  Elec       q    Type
REMARK                         _______ _______ _______ _____ _____    ______ ____
ROOT
ATOM      1  C   UNL     1      -0.018   1.503   0.010  0.00  0.00    +0.049 C 
ATOM      2  C   UNL     1       0.002  -0.004   0.002  0.00  0.00    +0.008 A 
ATOM      3  C   UNL     1       0.006  -0.704  -1.190  0.00  0.00    +0.021 A 
ATOM      4  N   UNL     1       0.025  -2.028  -1.164  0.00  0.00    -0.343 N 
ATOM      5  C   UNL     1       0.039  -2.687  -0.013  0.00  0.00    +0.141 A 
ATOM      6  N   UNL     1       0.036  -2.052   1.152  0.00  0.00    -0.214 NA
ATOM      7  C   UNL     1       0.023  -0.725   1.199  0.00  0.00    +0.125 A 
ATOM      8  C   UNL     1      -0.011   0.031  -2.505  0.00  0.00    +0.064 C 
ATOM      9  H   UNL     1       0.028  -2.522  -1.998  0.00  0.00    +0.167 HD
ENDROOT
BRANCH   5  10
ATOM     10  C   UNL     1       0.059  -4.168  -0.028  0.00  0.00    +0.022 A 
ATOM     11  C   UNL     1       0.068  -4.880   1.171  0.00  0.00    +0.061 A 
ATOM     12  C   UNL     1       0.086  -6.262   1.153  0.00  0.00    +0.163 A 
ATOM     13  C   UNL     1       0.094  -6.942  -0.063  0.00  0.00    +0.173 A 
ATOM     14  C   UNL     1       0.085  -6.234  -1.256  0.00  0.00    +0.064 A 
ATOM     15  C   UNL     1       0.062  -4.854  -1.242  0.00  0.00    +0.030 A 
ATOM     16 BR   UNL     1       0.097  -7.161  -2.904  0.00  0.00    -0.046 Br
BRANCH  13  17
ATOM     17  O   UNL     1       0.112  -8.301  -0.080  0.00  0.00    -0.503 OA
ATOM     18  H   UNL     1      -0.766  -8.706  -0.085  0.00  0.00    +0.292 HD
ENDBRANCH  13  17
BRANCH  12  19
ATOM     19  O   UNL     1       0.095  -6.958   2.321  0.00  0.00    -0.491 OA
ATOM     20  C   UNL     1       0.086  -6.196   3.530  0.00  0.00    +0.277 C 
ENDBRANCH  12  19
ENDBRANCH   5  10
BRANCH   7  21
ATOM     21  N   UNL     1       0.026  -0.064   2.417  0.00  0.00    -0.332 N 
ATOM     22  C   UNL     1       0.048  -0.831   3.665  0.00  0.00    +0.127 C 
ATOM     23  H   UNL     1       0.013   0.905   2.443  0.00  0.00    +0.147 HD
ENDBRANCH   7  21
TORSDOF 4
