REMARK  Name = ZINC66878259
REMARK  5 active torsions:
REMARK  status: ('A' for Active; 'I' for Inactive)
REMARK    1  A    between atoms: C_12  and  C_14
REMARK    2  A    between atoms: C_14  and  N_15
REMARK    3  A    between atoms: C_18  and  N_21
REMARK    4  A    between atoms: C_22  and  C_24
REMARK    5  A    between atoms: C_24  and  C_25
REMARK                            x       y       z     vdW  Elec       q    Type
REMARK                         _______ _______ _______ _____ _____    ______ ____
ROOT
ATOM      1  N   UNL     1       7.061  -0.122  -1.262  0.00  0.00    +0.386 N 
ATOM      2  C   UNL     1       7.328   1.099  -0.493  0.00  0.00    -0.076 C 
ATOM      3  C   UNL     1       8.356   1.958  -1.233  0.00  0.00    +0.003 C 
ATOM      4  C   UNL     1       9.654   1.162  -1.397  0.00  0.00    +0.069 C 
ATOM      5  C   UNL     1       9.351  -0.145  -2.135  0.00  0.00    +0.003 C 
ATOM      6  C   UNL     1       8.286  -0.925  -1.362  0.00  0.00    -0.076 C 
ATOM      7  H   UNL     1       6.748   0.127  -2.188  0.00  0.00    -0.081 HD
ENDROOT
BRANCH   4   8
ATOM      8  N   UNL     1      10.617   1.950  -2.171  0.00  0.00    -0.313 N 
ATOM      9  C   UNL     1      11.939   1.724  -2.032  0.00  0.00    +0.213 C 
ATOM     10  O   UNL     1      12.331   0.870  -1.266  0.00  0.00    -0.276 OA
ATOM     11  H   UNL     1      10.304   2.633  -2.784  0.00  0.00    +0.149 HD
BRANCH   9  12
ATOM     12  C   UNL     1      12.929   2.534  -2.828  0.00  0.00    +0.099 C 
BRANCH  12  13
ATOM     13  C   UNL     1      14.350   2.083  -2.486  0.00  0.00    -0.002 C 
ATOM     14  C   UNL     1      14.690   2.466  -1.030  0.00  0.00    +0.004 C 
ATOM     15  C   UNL     1      16.184   2.873  -1.084  0.00  0.00    +0.000 C 
ATOM     16  C   UNL     1      16.288   3.615  -2.439  0.00  0.00    +0.000 C 
ATOM     17  C   UNL     1      15.366   2.813  -3.381  0.00  0.00    +0.004 C 
ENDBRANCH  12  13
ENDBRANCH   9  12
ENDBRANCH   4   8
BRANCH   1  18
ATOM     18  C   UNL     1       6.018  -0.905  -0.587  0.00  0.00    +0.019 C 
BRANCH  18  30
ATOM     19  C   UNL     1      -0.017   1.378   0.010  0.00  0.00    +0.002 A 
ATOM     20  C   UNL     1       1.167   2.094   0.002  0.00  0.00    +0.002 A 
ATOM     21  C   UNL     1       2.381   1.430  -0.011  0.00  0.00    +0.025 A 
ATOM     22  C   UNL     1       2.406   0.047  -0.018  0.00  0.00    +0.058 A 
ATOM     23  C   UNL     1       1.213  -0.677  -0.014  0.00  0.00    +0.055 A 
ATOM     24  C   UNL     1       0.002  -0.004   0.002  0.00  0.00    +0.025 A 
ATOM     25  N   UNL     1       1.254  -2.076  -0.032  0.00  0.00    -0.283 N 
ATOM     26  C   UNL     1       2.399  -2.734   0.232  0.00  0.00    +0.235 C 
ATOM     27  O   UNL     1       2.422  -3.945   0.168  0.00  0.00    -0.274 OA
ATOM     28  C   UNL     1       3.652  -1.984   0.605  0.00  0.00    +0.209 C 
ATOM     29  N   UNL     1       3.622  -0.656  -0.025  0.00  0.00    -0.262 N 
ATOM     30  C   UNL     1       4.725  -0.130  -0.593  0.00  0.00    +0.204 C 
ATOM     31  O   UNL     1       4.678   0.967  -1.108  0.00  0.00    -0.277 OA
ATOM     32  H   UNL     1       0.450  -2.577  -0.237  0.00  0.00    +0.155 HD
ENDBRANCH  18  30
ENDBRANCH   1  18
TORSDOF 5
