REMARK  Name = ZINC04075412
REMARK  6 active torsions:
REMARK  status: ('A' for Active; 'I' for Inactive)
REMARK    1  A    between atoms: C_1  and  C_2
REMARK    2  A    between atoms: C_9  and  C_11
REMARK    3  A    between atoms: C_12  and  C_32
REMARK    4  A    between atoms: C_16  and  C_18
REMARK    5  A    between atoms: C_28  and  C_30
REMARK    6  A    between atoms: C_28  and  C_31
REMARK                            x       y       z     vdW  Elec       q    Type
REMARK                         _______ _______ _______ _____ _____    ______ ____
ROOT
ATOM      1  C   UNL     1      -3.626  -1.002  -0.209  0.00  0.00    +0.043 C 
ATOM      2  C   UNL     1      -3.606  -2.345  -0.205  0.00  0.00    +0.014 C 
ATOM      3  N   UNL     1      -4.771  -3.055  -0.289  0.00  0.00    -0.321 N 
ATOM      4  C   UNL     1      -5.908  -2.472  -0.779  0.00  0.00    +0.016 C 
ATOM      5  C   UNL     1      -6.026  -1.127  -0.820  0.00  0.00    +0.024 C 
ATOM      6  C   UNL     1      -4.915  -0.242  -0.312  0.00  0.00    +0.090 C 
ATOM      7  C   UNL     1      -7.181  -0.515  -1.336  0.00  0.00    +0.162 C 
ATOM      8  O   UNL     1      -7.258   0.698  -1.348  0.00  0.00    -0.292 OA
ATOM      9  C   UNL     1      -8.323  -1.334  -1.873  0.00  0.00    +0.086 C 
ATOM     10  C   UNL     1      -7.777  -2.663  -2.404  0.00  0.00    -0.023 C 
ATOM     11  C   UNL     1      -7.020  -3.364  -1.274  0.00  0.00    +0.058 C 
ATOM     12  C   UNL     1      -6.826  -2.397  -3.573  0.00  0.00    +0.011 C 
ATOM     13  C   UNL     1      -8.934  -3.548  -2.874  0.00  0.00    +0.011 C 
ATOM     14  C   UNL     1      -2.291  -3.074  -0.100  0.00  0.00    +0.061 C 
ATOM     15  H   UNL     1      -4.800  -4.105   0.037  0.00  0.00    +0.152 HD
ENDROOT
BRANCH   1  24
ATOM     16  C   UNL     1       2.469   3.835  -0.089  0.00  0.00    +0.045 C 
ATOM     17  C   UNL     1       1.141   3.123  -0.070  0.00  0.00    -0.032 A 
ATOM     18  C   UNL     1      -0.043   3.848  -0.045  0.00  0.00    +0.008 A 
ATOM     19  C   UNL     1      -1.240   3.155  -0.029  0.00  0.00    +0.044 A 
ATOM     20  C   UNL     1      -1.217   1.764  -0.033  0.00  0.00    +0.125 A 
ATOM     21  N   UNL     1      -0.067   1.110  -0.062  0.00  0.00    -0.240 NA
ATOM     22  C   UNL     1       1.090   1.744  -0.078  0.00  0.00    +0.116 A 
ATOM     23  N   UNL     1      -2.415   1.054  -0.011  0.00  0.00    -0.267 N 
ATOM     24  C   UNL     1      -2.405  -0.289  -0.121  0.00  0.00    +0.248 C 
ATOM     25  O   UNL     1      -1.346  -0.889  -0.145  0.00  0.00    -0.270 OA
ATOM     26  H   UNL     1      -3.370   1.590   0.096  0.00  0.00    +0.157 HD
ENDBRANCH   1  24
BRANCH   6  27
ATOM     27  C   UNL     1      -5.288   0.287   1.050  0.00  0.00    -0.035 A 
ATOM     28  C   UNL     1      -5.499  -0.590   2.097  0.00  0.00    +0.005 A 
ATOM     29  C   UNL     1      -5.836  -0.105   3.347  0.00  0.00    +0.015 A 
ATOM     30  C   UNL     1      -5.972   1.257   3.547  0.00  0.00    +0.018 A 
ATOM     31  C   UNL     1      -5.766   2.133   2.497  0.00  0.00    +0.015 A 
ATOM     32  C   UNL     1      -5.424   1.648   1.249  0.00  0.00    +0.005 A 
ATOM     33 BR   UNL     1      -6.441   1.920   5.255  0.00  0.00    -0.050 Br
ENDBRANCH   6  27
TORSDOF 2
