REMARK  Name = ZINC10316968
REMARK  6 active torsions:
REMARK  status: ('A' for Active; 'I' for Inactive)
REMARK    1  A    between atoms: N_9  and  C_28
REMARK    2  A    between atoms: C_10  and  S_12
REMARK    3  A    between atoms: S_12  and  C_13
REMARK    4  A    between atoms: C_13  and  C_14
REMARK    5  A    between atoms: C_14  and  C_16
REMARK    6  A    between atoms: C_16  and  C_26
REMARK                            x       y       z     vdW  Elec       q    Type
REMARK                         _______ _______ _______ _____ _____    ______ ____
ROOT
ATOM      1  C   UNL     1       2.381   1.422  -0.011  0.00  0.00    +0.001 A 
ATOM      2  C   UNL     1       1.161   2.086   0.002  0.00  0.00    +0.002 A 
ATOM      3  C   UNL     1      -0.017   1.394   0.010  0.00  0.00    +0.028 A 
ATOM      4  C   UNL     1       0.002  -0.004   0.002  0.00  0.00    +0.079 A 
ATOM      5  C   UNL     1       1.245  -0.677  -0.013  0.00  0.00    +0.065 A 
ATOM      6  C   UNL     1       2.432   0.055  -0.020  0.00  0.00    +0.015 A 
ATOM      7  C   UNL     1       1.240  -2.146  -0.021  0.00  0.00    +0.267 A 
ATOM      8  O   UNL     1       2.278  -2.781  -0.035  0.00  0.00    -0.267 OA
ATOM      9  N   UNL     1       0.037  -2.766  -0.013  0.00  0.00    -0.253 N 
ATOM     10  C   UNL     1      -1.119  -2.036   0.002  0.00  0.00    +0.177 A 
ATOM     11  N   UNL     1      -1.137  -0.726   0.009  0.00  0.00    -0.223 NA
ENDROOT
BRANCH   9  12
ATOM     12  C   UNL     1      -0.024  -4.167  -0.020  0.00  0.00    +0.087 A 
ATOM     13  C   UNL     1      -0.037  -4.868   1.178  0.00  0.00    +0.029 A 
ATOM     14  C   UNL     1      -0.102  -6.248   1.169  0.00  0.00    +0.002 A 
ATOM     15  C   UNL     1      -0.143  -6.932  -0.032  0.00  0.00    +0.003 A 
ATOM     16  C   UNL     1      -0.125  -6.239  -1.228  0.00  0.00    +0.040 A 
ATOM     17  C   UNL     1      -0.066  -4.857  -1.226  0.00  0.00    +0.147 A 
ATOM     18  F   UNL     1      -0.047  -4.179  -2.394  0.00  0.00    -0.203 F 
ENDBRANCH   9  12
BRANCH  10  19
ATOM     19  S   UNL     1      -2.657  -2.897   0.013  0.00  0.00    -0.079 S 
BRANCH  19  20
ATOM     20  C   UNL     1      -3.801  -1.495   0.031  0.00  0.00    +0.157 C 
BRANCH  20  21
ATOM     21  C   UNL     1      -5.220  -2.005   0.042  0.00  0.00    +0.187 C 
ATOM     22  O   UNL     1      -5.436  -3.201   0.038  0.00  0.00    -0.290 OA
BRANCH  21  23
ATOM     23  C   UNL     1      -6.292  -1.097   0.057  0.00  0.00    +0.131 C 
ATOM     24  C   UNL     1      -7.616  -1.573   0.068  0.00  0.00    +0.114 C 
ATOM     25  N   UNL     1      -7.981  -2.881   0.059  0.00  0.00    -0.300 N 
ATOM     26  C   UNL     1      -9.370  -2.946   0.076  0.00  0.00    +0.054 A 
ATOM     27  C   UNL     1     -10.270  -4.003   0.079  0.00  0.00    +0.025 A 
ATOM     28  C   UNL     1     -11.627  -3.751   0.093  0.00  0.00    +0.002 A 
ATOM     29  C   UNL     1     -12.095  -2.447   0.105  0.00  0.00    +0.002 A 
ATOM     30  C   UNL     1     -11.209  -1.389   0.102  0.00  0.00    +0.025 A 
ATOM     31  C   UNL     1      -9.842  -1.631   0.088  0.00  0.00    +0.054 A 
ATOM     32  N   UNL     1      -8.730  -0.797   0.082  0.00  0.00    -0.300 N 
ATOM     33  H   UNL     1      -7.377  -3.640   0.044  0.00  0.00    +0.153 HD
ATOM     34  H   UNL     1      -8.748   0.173   0.088  0.00  0.00    +0.153 HD
BRANCH  23  35
ATOM     35  C   UNL     1      -6.038   0.312   0.062  0.00  0.00    +0.106 C 
ATOM     36  N   UNL     1      -5.836   1.430   0.065  0.00  0.00    -0.191 NA
ENDBRANCH  23  35
ENDBRANCH  21  23
ENDBRANCH  20  21
ENDBRANCH  19  20
ENDBRANCH  10  19
TORSDOF 6
