REMARK  Name = ZINC15106448
REMARK  8 active torsions:
REMARK  status: ('A' for Active; 'I' for Inactive)
REMARK    1  A    between atoms: C_1  and  C_2
REMARK    2  A    between atoms: C_2  and  C_3
REMARK    3  A    between atoms: C_2  and  C_4
REMARK    4  A    between atoms: C_2  and  C_5
REMARK    5  A    between atoms: C_14  and  C_20
REMARK    6  A    between atoms: C_23  and  O_28
REMARK    7  A    between atoms: C_24  and  O_26
REMARK    8  A    between atoms: O_26  and  C_27
REMARK                            x       y       z     vdW  Elec       q    Type
REMARK                         _______ _______ _______ _____ _____    ______ ____
ROOT
ATOM      1  C   UNL     1      -0.942   3.113  -1.138  0.00  0.00    -0.000 C 
ATOM      2  C   UNL     1      -0.758   1.595  -1.226  0.00  0.00    +0.009 C 
ATOM      3  C   UNL     1      -0.013   1.086   0.008  0.00  0.00    +0.036 C 
ATOM      4  C   UNL     1      -0.733   1.581   1.260  0.00  0.00    -0.032 A 
ATOM      5  C   UNL     1      -1.598   2.629   1.180  0.00  0.00    -0.005 A 
ATOM      6  S   UNL     1      -2.177   2.833   2.845  0.00  0.00    -0.078 S 
ATOM      7  C   UNL     1      -1.240   1.514   3.575  0.00  0.00    +0.076 A 
ATOM      8  C   UNL     1      -0.543   0.990   2.518  0.00  0.00    -0.008 A 
ATOM      9  C   UNL     1       0.387  -0.191   2.775  0.00  0.00    +0.060 C 
ATOM     10  C   UNL     1       0.927  -0.086   4.200  0.00  0.00    +0.109 C 
ATOM     11  C   UNL     1      -0.158   0.220   5.193  0.00  0.00    +0.218 C 
ATOM     12  O   UNL     1      -0.124  -0.292   6.293  0.00  0.00    -0.275 OA
ATOM     13  N   UNL     1      -1.175   1.059   4.878  0.00  0.00    -0.280 N 
ATOM     14  C   UNL     1      -1.964   3.421  -0.033  0.00  0.00    +0.046 C 
ATOM     15  H   UNL     1      -1.830   1.330   5.541  0.00  0.00    +0.155 HD
ENDROOT
BRANCH   9  16
ATOM     16  C   UNL     1      -0.378  -1.480   2.618  0.00  0.00    -0.036 A 
ATOM     17  C   UNL     1      -1.471  -1.736   3.424  0.00  0.00    +0.008 A 
ATOM     18  C   UNL     1      -2.176  -2.917   3.283  0.00  0.00    +0.049 A 
ATOM     19  C   UNL     1      -1.787  -3.847   2.333  0.00  0.00    +0.158 A 
ATOM     20  C   UNL     1      -0.686  -3.589   1.522  0.00  0.00    +0.162 A 
ATOM     21  C   UNL     1       0.013  -2.401   1.664  0.00  0.00    +0.053 A 
BRANCH  20  22
ATOM     22  O   UNL     1      -0.300  -4.499   0.588  0.00  0.00    -0.491 OA
ATOM     23  C   UNL     1       0.840  -4.168  -0.209  0.00  0.00    +0.277 C 
ENDBRANCH  20  22
BRANCH  19  24
ATOM     24  O   UNL     1      -2.480  -5.009   2.192  0.00  0.00    -0.503 OA
ATOM     25  H   UNL     1      -3.208  -4.958   1.557  0.00  0.00    +0.292 HD
ENDBRANCH  19  24
ENDBRANCH   9  16
BRANCH   1  27
ATOM     26  C   UNL     1      -2.795   2.989  -2.811  0.00  0.00    +0.011 C 
ATOM     27  C   UNL     1      -1.453   3.646  -2.478  0.00  0.00    -0.035 C 
ATOM     28  C   UNL     1      -1.637   5.162  -2.386  0.00  0.00    +0.011 C 
ATOM     29  C   UNL     1      -0.440   3.321  -3.577  0.00  0.00    +0.011 C 
ENDBRANCH   1  27
TORSDOF 4
