REMARK  Name = ZINC36595400
REMARK  17 active torsions:
REMARK  status: ('A' for Active; 'I' for Inactive)
REMARK    1  A    between atoms: C_1  and  C_2
REMARK    2  A    between atoms: C_5  and  C_7
REMARK    3  A    between atoms: C_7  and  N_8
REMARK    4  A    between atoms: N_8  and  C_9
REMARK    5  A    between atoms: C_9  and  C_11
REMARK    6  A    between atoms: C_9  and  C_20
REMARK    7  A    between atoms: C_14  and  N_17
REMARK    8  A    between atoms: N_22  and  C_23
REMARK    9  A    between atoms: C_23  and  C_24
REMARK   10  A    between atoms: C_23  and  C_25
REMARK   11  A    between atoms: C_23  and  C_26
REMARK   12  A    between atoms: C_26  and  C_27
REMARK   13  A    between atoms: C_27  and  C_28
REMARK   14  A    between atoms: C_27  and  C_29
REMARK   15  A    between atoms: C_27  and  C_30
REMARK   16  A    between atoms: C_31  and  C_33
REMARK   17  A    between atoms: C_38  and  O_39
REMARK                            x       y       z     vdW  Elec       q    Type
REMARK                         _______ _______ _______ _____ _____    ______ ____
ROOT
ATOM      1  C   UNL     1       3.091  -3.320  -1.327  0.00  0.00    +0.193 C 
ENDROOT
BRANCH   1   2
ATOM      2  C   UNL     1       2.522  -2.198  -2.157  0.00  0.00    -0.018 A 
ATOM      3  C   UNL     1       1.587  -2.469  -3.138  0.00  0.00    +0.008 A 
ATOM      4  C   UNL     1       1.066  -1.440  -3.900  0.00  0.00    +0.033 A 
ATOM      5  C   UNL     1       1.480  -0.139  -3.679  0.00  0.00    +0.126 A 
ATOM      6  C   UNL     1       2.414   0.132  -2.697  0.00  0.00    +0.033 A 
ATOM      7  C   UNL     1       2.932  -0.897  -1.933  0.00  0.00    +0.008 A 
BRANCH   5   8
ATOM      8  N   UNL     1       0.922   0.963  -4.495  0.00  0.00    +0.056 N 
ATOM      9  O   UNL     1       0.105   0.726  -5.354  0.00  0.00    -0.126 OA
ATOM     10  O   UNL     1       1.284   2.100  -4.303  0.00  0.00    -0.126 OA
ENDBRANCH   5   8
ENDBRANCH   1   2
BRANCH   1  11
ATOM     11  C   UNL     1       4.421  -3.741  -1.895  0.00  0.00    +0.239 C 
ATOM     12  O   UNL     1       4.576  -4.872  -2.304  0.00  0.00    -0.273 OA
ATOM     13  N   UNL     1       5.440  -2.860  -1.950  0.00  0.00    -0.308 N 
ATOM     14  H   UNL     1       5.317  -1.955  -1.623  0.00  0.00    +0.149 HD
BRANCH  13  15
ATOM     15  C   UNL     1       6.734  -3.270  -2.502  0.00  0.00    +0.030 C 
ATOM     16  C   UNL     1       7.426  -4.224  -1.527  0.00  0.00    +0.031 C 
ATOM     17  C   UNL     1       6.516  -3.978  -3.841  0.00  0.00    +0.031 C 
BRANCH  15  18
ATOM     18  C   UNL     1       7.611  -2.034  -2.716  0.00  0.00    +0.031 C 
BRANCH  18  19
ATOM     19  C   UNL     1       6.763  -0.902  -3.299  0.00  0.00    -0.036 C 
ATOM     20  C   UNL     1       5.755  -0.427  -2.251  0.00  0.00    +0.010 C 
ATOM     21  C   UNL     1       7.673   0.263  -3.697  0.00  0.00    +0.010 C 
ATOM     22  C   UNL     1       6.015  -1.409  -4.534  0.00  0.00    +0.010 C 
ENDBRANCH  18  19
ENDBRANCH  15  18
ENDBRANCH  13  15
ENDBRANCH   1  11
BRANCH   1  23
ATOM     23  N   UNL     1       2.169  -4.458  -1.348  0.00  0.00    -0.275 N 
ATOM     24  C   UNL     1       0.958  -4.356  -0.764  0.00  0.00    +0.251 C 
ATOM     25  O   UNL     1       0.170  -5.279  -0.834  0.00  0.00    -0.270 OA
BRANCH  24  26
ATOM     26  C   UNL     1       0.590  -3.124  -0.040  0.00  0.00    +0.078 A 
ATOM     27  C   UNL     1       1.460  -2.031  -0.027  0.00  0.00    +0.017 A 
ATOM     28  C   UNL     1       1.110  -0.883   0.650  0.00  0.00    +0.001 A 
ATOM     29  C   UNL     1      -0.101  -0.807   1.319  0.00  0.00    +0.004 A 
ATOM     30  C   UNL     1      -0.970  -1.880   1.314  0.00  0.00    +0.046 A 
ATOM     31  C   UNL     1      -0.636  -3.042   0.633  0.00  0.00    +0.129 A 
BRANCH  31  32
ATOM     32  O   UNL     1      -1.491  -4.095   0.622  0.00  0.00    -0.506 OA
ATOM     33  H   UNL     1      -1.358  -4.716   1.351  0.00  0.00    +0.292 HD
ENDBRANCH  31  32
ENDBRANCH  24  26
BRANCH  23  34
ATOM     34  C   UNL     1       2.562  -5.708  -2.004  0.00  0.00    +0.183 C 
BRANCH  34  39
ATOM     35  C   UNL     1       6.330  -7.907   0.528  0.00  0.00    +0.086 C 
ATOM     36  C   UNL     1       4.940  -7.536   0.079  0.00  0.00    +0.102 A 
ATOM     37  C   UNL     1       3.793  -8.025   0.584  0.00  0.00    +0.045 A 
ATOM     38  C   UNL     1       2.737  -7.409  -0.126  0.00  0.00    +0.046 A 
ATOM     39  C   UNL     1       3.302  -6.579  -1.022  0.00  0.00    +0.122 A 
ATOM     40  O   UNL     1       4.636  -6.656  -0.889  0.00  0.00    -0.463 OA
ENDBRANCH  34  39
ENDBRANCH  23  34
ENDBRANCH   1  23
TORSDOF 11
