REMARK  Name = ZINC47283216
REMARK  7 active torsions:
REMARK  status: ('A' for Active; 'I' for Inactive)
REMARK    1  A    between atoms: C_1  and  O_2
REMARK    2  A    between atoms: O_2  and  C_3
REMARK    3  A    between atoms: C_9  and  C_13
REMARK    4  A    between atoms: C_19  and  C_21
REMARK    5  A    between atoms: C_24  and  O_28
REMARK    6  A    between atoms: C_26  and  O_27
REMARK    7  A    between atoms: O_28  and  C_29
REMARK                            x       y       z     vdW  Elec       q    Type
REMARK                         _______ _______ _______ _____ _____    ______ ____
ROOT
ATOM      1  C   UNL     1       1.536  -5.737  -1.961  0.00  0.00    -0.039 C 
ATOM      2  C   UNL     1       2.139  -6.122  -0.861  0.00  0.00    -0.004 C 
ATOM      3  C   UNL     1       1.605  -7.197   0.043  0.00  0.00    +0.135 C 
ATOM      4  N   UNL     1       0.229  -7.524  -0.357  0.00  0.00    -0.293 N 
ATOM      5  C   UNL     1      -0.044  -7.653  -1.799  0.00  0.00    +0.113 C 
ATOM      6  C   UNL     1       0.233  -6.294  -2.452  0.00  0.00    +0.054 C 
ATOM      7  C   UNL     1      -0.745  -7.699   0.559  0.00  0.00    +0.250 C 
ATOM      8  O   UNL     1      -1.894  -7.870   0.199  0.00  0.00    -0.270 OA
ENDROOT
BRANCH   1  15
ATOM      9  C   UNL     1       1.965  -1.102  -1.405  0.00  0.00    +0.121 A 
ATOM     10  C   UNL     1       2.673  -0.507  -2.446  0.00  0.00    +0.047 A 
ATOM     11  C   UNL     1       3.159  -1.267  -3.486  0.00  0.00    +0.030 A 
ATOM     12  C   UNL     1       2.945  -2.642  -3.503  0.00  0.00    +0.047 A 
ATOM     13  C   UNL     1       2.231  -3.243  -2.453  0.00  0.00    +0.010 A 
ATOM     14  C   UNL     1       1.748  -2.466  -1.402  0.00  0.00    +0.056 A 
ATOM     15  C   UNL     1       2.181  -4.681  -2.767  0.00  0.00    +0.003 A 
ATOM     16  C   UNL     1       2.842  -4.847  -3.941  0.00  0.00    +0.091 A 
ATOM     17  N   UNL     1       3.300  -3.642  -4.386  0.00  0.00    -0.360 N 
ATOM     18  H   UNL     1       3.801  -3.506  -5.205  0.00  0.00    +0.165 HD
BRANCH   9  20
ATOM     19  C   UNL     1       1.752   1.066  -0.449  0.00  0.00    +0.277 C 
ATOM     20  O   UNL     1       1.492  -0.338  -0.384  0.00  0.00    -0.495 OA
ENDBRANCH   9  20
ENDBRANCH   1  15
BRANCH   7  21
ATOM     21  C   UNL     1      -0.417  -7.682   1.995  0.00  0.00    +0.078 A 
ATOM     22  C   UNL     1       0.717  -8.353   2.464  0.00  0.00    +0.020 A 
ATOM     23  C   UNL     1       1.020  -8.335   3.805  0.00  0.00    +0.046 A 
ATOM     24  C   UNL     1       0.202  -7.651   4.700  0.00  0.00    +0.124 A 
ATOM     25  C   UNL     1      -0.925  -6.983   4.245  0.00  0.00    +0.091 A 
ATOM     26  C   UNL     1      -1.238  -6.988   2.897  0.00  0.00    +0.132 A 
BRANCH  26  27
ATOM     27  O   UNL     1      -2.337  -6.331   2.450  0.00  0.00    -0.506 OA
ATOM     28  H   UNL     1      -3.140  -6.869   2.439  0.00  0.00    +0.292 HD
ENDBRANCH  26  27
BRANCH  24  29
ATOM     29  O   UNL     1       0.508  -7.638   6.022  0.00  0.00    -0.495 OA
ATOM     30  C   UNL     1       1.683  -8.346   6.423  0.00  0.00    +0.277 C 
ENDBRANCH  24  29
ENDBRANCH   7  21
TORSDOF 5
