REMARK  Name = ZINC15277077
REMARK  11 active torsions:
REMARK  status: ('A' for Active; 'I' for Inactive)
REMARK    1  A    between atoms: C_1  and  C_2
REMARK    2  A    between atoms: C_2  and  O_3
REMARK    3  A    between atoms: O_3  and  C_4
REMARK    4  A    between atoms: C_4  and  C_6
REMARK    5  A    between atoms: C_6  and  C_7
REMARK    6  A    between atoms: C_13  and  C_15
REMARK    7  A    between atoms: C_16  and  N_33
REMARK    8  A    between atoms: C_26  and  C_29
REMARK    9  A    between atoms: C_29  and  C_30
REMARK   10  A    between atoms: C_29  and  C_31
REMARK   11  A    between atoms: C_29  and  C_32
REMARK                            x       y       z     vdW  Elec       q    Type
REMARK                         _______ _______ _______ _____ _____    ______ ____
ROOT
ATOM      1  C   UNL     1      -8.648   0.439   4.569  0.00  0.00    +0.097 A 
ATOM      2  C   UNL     1      -7.502   1.204   4.568  0.00  0.00    +0.053 A 
ATOM      3  C   UNL     1      -6.395   0.788   3.721  0.00  0.00    +0.029 A 
ATOM      4  C   UNL     1      -5.130   1.397   3.551  0.00  0.00    +0.017 A 
ATOM      5  C   UNL     1      -4.211   0.833   2.687  0.00  0.00    -0.025 A 
ATOM      6  C   UNL     1      -4.530  -0.319   1.993  0.00  0.00    +0.046 A 
ATOM      7  N   UNL     1      -5.718  -0.886   2.160  0.00  0.00    -0.244 NA
ATOM      8  C   UNL     1      -6.622  -0.388   2.970  0.00  0.00    +0.111 A 
ATOM      9  S   UNL     1      -8.270  -0.872   3.422  0.00  0.00    -0.062 S 
ATOM     10  C   UNL     1      -3.575  -0.978   1.032  0.00  0.00    +0.056 C 
ATOM     11  C   UNL     1      -2.149  -0.483   1.269  0.00  0.00    +0.010 C 
ATOM     12  C   UNL     1      -2.164   1.050   1.278  0.00  0.00    -0.001 C 
ATOM     13  C   UNL     1      -2.875   1.517   2.546  0.00  0.00    +0.041 C 
ENDROOT
BRANCH   1  20
ATOM     14  C   UNL     1     -14.407   0.022   7.082  0.00  0.00    +0.022 A 
ATOM     15  C   UNL     1     -13.502   0.994   7.353  0.00  0.00    +0.124 A 
ATOM     16  N   UNL     1     -12.332   0.950   6.747  0.00  0.00    -0.233 NA
ATOM     17  C   UNL     1     -12.039  -0.015   5.896  0.00  0.00    +0.165 A 
ATOM     18  S   UNL     1     -13.494  -0.962   5.903  0.00  0.00    -0.056 S 
ATOM     19  N   UNL     1     -10.870  -0.216   5.175  0.00  0.00    -0.260 N 
ATOM     20  C   UNL     1      -9.841   0.645   5.304  0.00  0.00    +0.258 C 
ATOM     21  O   UNL     1      -9.937   1.600   6.053  0.00  0.00    -0.269 OA
ATOM     22  H   UNL     1     -10.793  -0.978   4.579  0.00  0.00    +0.157 HD
BRANCH  14  23
ATOM     23  C   UNL     1     -15.801  -0.172   7.622  0.00  0.00    +0.164 C 
BRANCH  23  24
ATOM     24  C   UNL     1     -16.787   0.545   6.736  0.00  0.00    +0.312 C 
ATOM     25  O   UNL     1     -16.398   1.151   5.766  0.00  0.00    -0.250 OA
BRANCH  24  26
ATOM     26  O   UNL     1     -18.097   0.510   7.025  0.00  0.00    -0.465 OA
BRANCH  26  28
ATOM     27  C   UNL     1     -20.431   1.071   6.615  0.00  0.00    +0.048 C 
ATOM     28  C   UNL     1     -18.989   1.223   6.128  0.00  0.00    +0.229 C 
ENDBRANCH  26  28
ENDBRANCH  24  26
ENDBRANCH  23  24
ENDBRANCH  14  23
ENDBRANCH   1  20
BRANCH  12  29
ATOM     29  C   UNL     1      -0.729   1.579   1.267  0.00  0.00    -0.035 C 
ATOM     30  C   UNL     1      -0.013   1.086   0.008  0.00  0.00    +0.011 C 
ATOM     31  C   UNL     1       0.011   1.072   2.506  0.00  0.00    +0.011 C 
ATOM     32  C   UNL     1      -0.750   3.109   1.275  0.00  0.00    +0.011 C 
ENDBRANCH  12  29
BRANCH   2  33
ATOM     33  N   UNL     1      -7.406   2.342   5.357  0.00  0.00    -0.356 N 
ATOM     34  H   UNL     1      -6.593   2.871   5.348  0.00  0.00    +0.142 HD
ATOM     35  H   UNL     1      -8.152   2.608   5.917  0.00  0.00    +0.142 HD
ENDBRANCH   2  33
TORSDOF 7
