REMARK  Name = ZINC61086875
REMARK  8 active torsions:
REMARK  status: ('A' for Active; 'I' for Inactive)
REMARK    1  A    between atoms: C_1  and  C_2
REMARK    2  A    between atoms: C_2  and  C_3
REMARK    3  A    between atoms: C_6  and  C_9
REMARK    4  A    between atoms: C_9  and  C_10
REMARK    5  A    between atoms: C_9  and  N_13
REMARK    6  A    between atoms: C_10  and  C_11
REMARK    7  A    between atoms: C_10  and  C_12
REMARK    8  A    between atoms: C_14  and  C_16
REMARK                            x       y       z     vdW  Elec       q    Type
REMARK                         _______ _______ _______ _____ _____    ______ ____
ROOT
ATOM      1  N   UNL     1       3.993  -1.180  -4.884  0.00  0.00    -0.304 N 
ATOM      2  C   UNL     1       4.564  -1.046  -6.098  0.00  0.00    +0.245 C 
ATOM      3  O   UNL     1       4.012  -1.496  -7.083  0.00  0.00    -0.270 OA
ATOM      4  H   UNL     1       4.434  -0.821  -4.098  0.00  0.00    +0.150 HD
ENDROOT
BRANCH   2   5
ATOM      5  C   UNL     1       5.861  -0.352  -6.231  0.00  0.00    +0.039 A 
ATOM      6  C   UNL     1       6.500   0.160  -5.097  0.00  0.00    +0.015 A 
ATOM      7  C   UNL     1       7.708   0.806  -5.220  0.00  0.00    +0.028 A 
ATOM      8  C   UNL     1       8.302   0.954  -6.472  0.00  0.00    +0.066 A 
ATOM      9  C   UNL     1       7.668   0.445  -7.609  0.00  0.00    +0.066 A 
ATOM     10  C   UNL     1       6.453  -0.213  -7.486  0.00  0.00    +0.040 A 
ATOM     11  N   UNL     1       8.249   0.585  -8.867  0.00  0.00    -0.316 N 
ATOM     12  H   UNL     1       7.801   0.229  -9.650  0.00  0.00    +0.169 HD
ATOM     13  C   UNL     1       9.433   1.218  -8.997  0.00  0.00    +0.314 A 
ATOM     14  O   UNL     1       9.944   1.344 -10.091  0.00  0.00    -0.262 OA
ATOM     15  C   UNL     1      10.107   1.761  -7.782  0.00  0.00    +0.314 A 
ATOM     16  O   UNL     1      11.174   2.333  -7.878  0.00  0.00    -0.262 OA
ATOM     17  N   UNL     1       9.521   1.610  -6.578  0.00  0.00    -0.316 N 
ATOM     18  H   UNL     1       9.953   1.960  -5.783  0.00  0.00    +0.169 HD
ENDBRANCH   2   5
BRANCH   1  19
ATOM     19  C   UNL     1       2.707  -1.868  -4.752  0.00  0.00    +0.106 C 
BRANCH  19  23
ATOM     20  C   UNL     1       0.707  -0.490  -1.238  0.00  0.00    -0.048 A 
ATOM     21  C   UNL     1      -0.011  -0.719  -2.397  0.00  0.00    +0.004 A 
ATOM     22  C   UNL     1       0.636  -1.164  -3.534  0.00  0.00    +0.006 A 
ATOM     23  C   UNL     1       2.002  -1.381  -3.513  0.00  0.00    -0.027 A 
ATOM     24  C   UNL     1       2.720  -1.152  -2.354  0.00  0.00    +0.006 A 
ATOM     25  C   UNL     1       2.073  -0.702  -1.218  0.00  0.00    +0.004 A 
BRANCH  20  27
ATOM     26  C   UNL     1      -0.019   1.526   0.010  0.00  0.00    +0.009 C 
ATOM     27  C   UNL     1       0.002  -0.004   0.002  0.00  0.00    +0.032 C 
ENDBRANCH  20  27
ENDBRANCH  19  23
BRANCH  19  28
ATOM     28  C   UNL     1       2.943  -3.376  -4.645  0.00  0.00    +0.008 C 
ATOM     29  C   UNL     1       3.701  -3.683  -3.352  0.00  0.00    +0.009 C 
ATOM     30  C   UNL     1       1.598  -4.104  -4.633  0.00  0.00    +0.009 C 
ENDBRANCH  19  28
ENDBRANCH   1  19
TORSDOF 5
