REMARK  Name = ZINC66246677
REMARK  4 active torsions:
REMARK  status: ('A' for Active; 'I' for Inactive)
REMARK    1  A    between atoms: C_1  and  N_2
REMARK    2  A    between atoms: N_5  and  C_6
REMARK    3  A    between atoms: C_6  and  C_7
REMARK    4  A    between atoms: C_7  and  C_13
REMARK                            x       y       z     vdW  Elec       q    Type
REMARK                         _______ _______ _______ _____ _____    ______ ____
ROOT
ATOM      1  C   UNL     1       2.349   0.427  -4.037  0.00  0.00    +0.017 C 
ATOM      2  C   UNL     1       1.171   1.341  -4.386  0.00  0.00    +0.041 C 
ATOM      3  C   UNL     1       0.152   0.553  -5.213  0.00  0.00    +0.161 C 
ATOM      4  O   UNL     1       0.786   0.042  -6.387  0.00  0.00    -0.380 OA
ATOM      5  C   UNL     1       1.866  -0.856  -6.122  0.00  0.00    +0.161 C 
ATOM      6  C   UNL     1       2.954  -0.125  -5.332  0.00  0.00    +0.041 C 
ENDROOT
BRANCH   1   7
ATOM      7  C   UNL     1       3.394   1.214  -3.288  0.00  0.00    -0.039 A 
ATOM      8  C   UNL     1       4.667   1.346  -3.811  0.00  0.00    +0.005 A 
ATOM      9  C   UNL     1       5.625   2.067  -3.125  0.00  0.00    +0.015 A 
ATOM     10  C   UNL     1       5.311   2.656  -1.913  0.00  0.00    +0.018 A 
ATOM     11  C   UNL     1       4.037   2.524  -1.390  0.00  0.00    +0.015 A 
ATOM     12  C   UNL     1       3.078   1.807  -2.080  0.00  0.00    +0.005 A 
ATOM     13 BR   UNL     1       6.622   3.643  -0.973  0.00  0.00    -0.050 Br
ENDBRANCH   1   7
BRANCH   1  14
ATOM     14  C   UNL     1       1.858  -0.731  -3.167  0.00  0.00    +0.127 C 
BRANCH  14  19
ATOM     15  C   UNL     1       5.147  -3.131  -2.182  0.00  0.00    +0.142 C 
ATOM     16  N   UNL     1       3.816  -3.414  -1.639  0.00  0.00    -0.361 N 
ATOM     17  C   UNL     1       2.807  -2.653  -1.960  0.00  0.00    +0.169 C 
ATOM     18  N   UNL     1       1.558  -2.918  -1.451  0.00  0.00    -0.371 N 
ATOM     19  N   UNL     1       2.992  -1.586  -2.807  0.00  0.00    -0.357 N 
ATOM     20  H   UNL     1       1.427  -3.671  -0.853  0.00  0.00    +0.159 HD
ATOM     21  H   UNL     1       0.807  -2.352  -1.689  0.00  0.00    +0.159 HD
ATOM     22  H   UNL     1       3.874  -1.399  -3.166  0.00  0.00    +0.162 HD
ATOM     23  H   UNL     1       3.685  -4.167  -1.042  0.00  0.00    +0.162 HD
ENDBRANCH  14  19
ENDBRANCH   1  14
TORSDOF 3
