REMARK  Name = ZINC53503809
REMARK  9 active torsions:
REMARK  status: ('A' for Active; 'I' for Inactive)
REMARK    1  A    between atoms: C_1  and  C_2
REMARK    2  A    between atoms: C_4  and  C_14
REMARK    3  A    between atoms: C_7  and  N_8
REMARK    4  A    between atoms: N_16  and  C_17
REMARK    5  A    between atoms: C_17  and  C_18
REMARK    6  A    between atoms: C_18  and  C_20
REMARK    7  A    between atoms: C_18  and  N_26
REMARK    8  A    between atoms: N_26  and  C_27
REMARK    9  A    between atoms: N_26  and  C_28
REMARK                            x       y       z     vdW  Elec       q    Type
REMARK                         _______ _______ _______ _____ _____    ______ ____
ROOT
ATOM      1  C   UNL     1      -0.280  -2.895  -2.351  0.00  0.00    +0.244 C 
ATOM      2  O   UNL     1      -0.153  -2.219  -3.353  0.00  0.00    -0.270 OA
ATOM      3  N   UNL     1      -0.207  -4.239  -2.430  0.00  0.00    -0.313 N 
ATOM      4  H   UNL     1      -0.308  -4.778  -1.631  0.00  0.00    +0.149 HD
ENDROOT
BRANCH   1   8
ATOM      5  C   UNL     1      -0.887   1.253   0.348  0.00  0.00    +0.046 C 
ATOM      6  C   UNL     1      -0.806  -0.249   0.256  0.00  0.00    -0.028 A 
ATOM      7  C   UNL     1      -0.588  -0.852  -0.962  0.00  0.00    +0.018 A 
ATOM      8  C   UNL     1      -0.513  -2.245  -1.046  0.00  0.00    +0.037 A 
ATOM      9  C   UNL     1      -0.659  -3.021   0.107  0.00  0.00    +0.015 A 
ATOM     10  C   UNL     1      -0.877  -2.411   1.321  0.00  0.00    +0.024 A 
ATOM     11  C   UNL     1      -0.946  -1.024   1.403  0.00  0.00    +0.041 A 
BRANCH  11  12
ATOM     12  N   UNL     1      -1.161  -0.409   2.636  0.00  0.00    -0.254 N 
ATOM     13  C   UNL     1      -2.476  -0.091   3.212  0.00  0.00    +0.134 C 
ATOM     14  C   UNL     1      -2.137   0.568   4.563  0.00  0.00    +0.125 C 
ATOM     15  N   UNL     1      -0.667   0.552   4.605  0.00  0.00    -0.297 N 
ATOM     16  C   UNL     1      -0.202  -0.019   3.486  0.00  0.00    +0.307 C 
ATOM     17  O   UNL     1       0.984  -0.167   3.261  0.00  0.00    -0.252 OA
ATOM     18  H   UNL     1      -0.122   0.896   5.329  0.00  0.00    +0.150 HD
ENDBRANCH  11  12
ENDBRANCH   1   8
BRANCH   3  19
ATOM     19  C   UNL     1       0.024  -4.884  -3.725  0.00  0.00    +0.089 C 
BRANCH  19  20
ATOM     20  C   UNL     1       0.213  -6.388  -3.518  0.00  0.00    -0.049 C 
BRANCH  20  21
ATOM     21  C   UNL     1       1.547  -6.643  -2.812  0.00  0.00    -0.023 C 
ATOM     22  C   UNL     1       1.527  -5.981  -1.433  0.00  0.00    +0.002 C 
ATOM     23  C   UNL     1       2.861  -6.235  -0.726  0.00  0.00    +0.000 C 
ATOM     24  C   UNL     1       4.000  -5.644  -1.559  0.00  0.00    +0.000 C 
ATOM     25  C   UNL     1       4.019  -6.306  -2.939  0.00  0.00    +0.000 C 
ATOM     26  C   UNL     1       2.686  -6.052  -3.645  0.00  0.00    +0.002 C 
ENDBRANCH  20  21
BRANCH  20  27
ATOM     27  N   UNL     1      -0.885  -6.911  -2.694  0.00  0.00    +0.379 N 
ATOM     28  C   UNL     1      -2.170  -6.574  -3.320  0.00  0.00    -0.096 C 
ATOM     29  C   UNL     1      -0.762  -8.371  -2.584  0.00  0.00    -0.096 C 
ATOM     30  H   UNL     1      -0.840  -6.500  -1.774  0.00  0.00    -0.082 HD
ENDBRANCH  20  27
ENDBRANCH  19  20
ENDBRANCH   3  19
TORSDOF 6
