REMARK  Name = ZINC35375465
REMARK  8 active torsions:
REMARK  status: ('A' for Active; 'I' for Inactive)
REMARK    1  A    between atoms: C_1  and  C_2
REMARK    2  A    between atoms: C_2  and  C_3
REMARK    3  A    between atoms: C_3  and  C_5
REMARK    4  A    between atoms: C_3  and  N_6
REMARK    5  A    between atoms: C_11  and  C_28
REMARK    6  A    between atoms: C_28  and  C_29
REMARK    7  A    between atoms: C_29  and  C_30
REMARK    8  A    between atoms: C_29  and  C_31
REMARK                            x       y       z     vdW  Elec       q    Type
REMARK                         _______ _______ _______ _____ _____    ______ ____
ROOT
ATOM      1  N   UNL     1      -0.500  -0.035  -2.208  0.00  0.00    -0.239 N 
ATOM      2  C   UNL     1      -1.732  -0.408  -2.572  0.00  0.00    +0.224 C 
ATOM      3  O   UNL     1      -2.491  -1.070  -1.898  0.00  0.00    -0.275 OA
ATOM      4  C   UNL     1      -2.030   0.125  -3.955  0.00  0.00    +0.073 C 
ATOM      5  C   UNL     1      -2.134  -1.054  -4.945  0.00  0.00    -0.057 C 
ATOM      6  N   UNL     1      -0.738  -1.296  -5.397  0.00  0.00    +0.394 N 
ATOM      7  C   UNL     1      -0.161   0.056  -5.524  0.00  0.00    +0.050 C 
ATOM      8  C   UNL     1      -0.726   0.878  -4.339  0.00  0.00    +0.088 C 
ATOM      9  C   UNL     1       0.152   0.696  -3.121  0.00  0.00    +0.225 C 
ATOM     10  O   UNL     1       1.272   1.140  -2.992  0.00  0.00    -0.275 OA
ATOM     11  C   UNL     1       1.341   0.018  -5.509  0.00  0.00    -0.028 A 
ATOM     12  C   UNL     1       2.269  -0.428  -4.595  0.00  0.00    +0.004 A 
ATOM     13  C   UNL     1       3.620  -0.327  -4.874  0.00  0.00    +0.000 A 
ATOM     14  C   UNL     1       4.036   0.223  -6.073  0.00  0.00    +0.002 A 
ATOM     15  C   UNL     1       3.110   0.673  -6.990  0.00  0.00    +0.023 A 
ATOM     16  C   UNL     1       1.748   0.575  -6.717  0.00  0.00    +0.036 A 
ATOM     17  N   UNL     1       0.636   0.954  -7.473  0.00  0.00    -0.286 N 
ATOM     18  C   UNL     1      -0.523   0.684  -6.842  0.00  0.00    +0.211 C 
ATOM     19  O   UNL     1      -1.641   0.904  -7.256  0.00  0.00    -0.277 OA
ATOM     20  H   UNL     1      -0.232  -1.833  -4.709  0.00  0.00    -0.083 HD
ATOM     21  H   UNL     1       0.692   1.365  -8.350  0.00  0.00    +0.155 HD
ATOM     22  H   UNL     1      -0.732  -1.767  -6.290  0.00  0.00    -0.083 HD
ENDROOT
BRANCH   1  23
ATOM     23  C   UNL     1       0.086  -0.391  -0.914  0.00  0.00    +0.081 C 
ATOM     24  C   UNL     1       0.157  -1.915  -0.789  0.00  0.00    +0.028 C 
BRANCH  23  26
ATOM     25  C   UNL     1      -0.752   1.702   0.162  0.00  0.00    +0.006 C 
ATOM     26  C   UNL     1      -0.782   0.173   0.212  0.00  0.00    +0.019 C 
ENDBRANCH  23  26
ENDBRANCH   1  23
BRANCH   5  27
ATOM     27  C   UNL     1      -2.690  -2.293  -4.242  0.00  0.00    -0.012 C 
BRANCH  27  28
ATOM     28  C   UNL     1      -2.887  -3.414  -5.264  0.00  0.00    -0.019 C 
ATOM     29  C   UNL     1      -3.303  -4.696  -4.540  0.00  0.00    +0.007 C 
ATOM     30  C   UNL     1      -3.979  -3.012  -6.258  0.00  0.00    +0.007 C 
ENDBRANCH  27  28
ENDBRANCH   5  27
TORSDOF 4
