REMARK  Name = ZINC14866677
REMARK  7 active torsions:
REMARK  status: ('A' for Active; 'I' for Inactive)
REMARK    1  A    between atoms: C_4  and  C_7
REMARK    2  A    between atoms: C_7  and  C_9
REMARK    3  A    between atoms: C_7  and  S_29
REMARK    4  A    between atoms: N_11  and  C_12
REMARK    5  A    between atoms: C_15  and  S_18
REMARK    6  A    between atoms: S_18  and  N_21
REMARK    7  A    between atoms: S_29  and  C_30
REMARK                            x       y       z     vdW  Elec       q    Type
REMARK                         _______ _______ _______ _____ _____    ______ ____
ROOT
ATOM      1  C   UNL     1       3.973   0.284  -2.548  0.00  0.00    +0.235 C 
ATOM      2  O   UNL     1       3.809   0.780  -3.643  0.00  0.00    -0.274 OA
ATOM      3  N   UNL     1       4.218  -1.036  -2.436  0.00  0.00    -0.284 N 
ATOM      4  H   UNL     1       4.416  -1.421  -1.568  0.00  0.00    +0.155 HD
ENDROOT
BRANCH   3   5
ATOM      5  C   UNL     1       4.188  -1.852  -3.572  0.00  0.00    +0.034 A 
ATOM      6  C   UNL     1       3.713  -3.154  -3.482  0.00  0.00    +0.025 A 
ATOM      7  C   UNL     1       3.684  -3.957  -4.606  0.00  0.00    +0.031 A 
ATOM      8  C   UNL     1       4.127  -3.466  -5.820  0.00  0.00    +0.113 A 
ATOM      9  C   UNL     1       4.601  -2.170  -5.913  0.00  0.00    +0.031 A 
ATOM     10  C   UNL     1       4.627  -1.360  -4.795  0.00  0.00    +0.025 A 
BRANCH   8  11
ATOM     11  S   UNL     1       4.089  -4.493  -7.251  0.00  0.00    +0.100 S 
ATOM     12  O   UNL     1       5.066  -3.979  -8.146  0.00  0.00    -0.146 OA
ATOM     13  O   UNL     1       4.112  -5.836  -6.787  0.00  0.00    -0.146 OA
BRANCH  11  14
ATOM     14  N   UNL     1       2.617  -4.268  -7.976  0.00  0.00    -0.118 NA
ATOM     15  C   UNL     1       2.325  -4.911  -9.059  0.00  0.00    +0.117 C 
ATOM     16  C   UNL     1       3.333  -5.882  -9.668  0.00  0.00    +0.073 C 
ATOM     17  C   UNL     1       2.780  -7.279  -9.482  0.00  0.00    +0.008 C 
ATOM     18  C   UNL     1       1.868  -7.730 -10.625  0.00  0.00    +0.002 C 
ATOM     19  C   UNL     1       0.899  -6.640 -11.084  0.00  0.00    +0.019 C 
ATOM     20  C   UNL     1       0.270  -5.879  -9.937  0.00  0.00    +0.102 C 
ATOM     21  N   UNL     1       1.154  -4.733  -9.637  0.00  0.00    -0.331 N 
ATOM     22  H   UNL     1       0.866  -3.837  -9.872  0.00  0.00    +0.147 HD
ENDBRANCH  11  14
ENDBRANCH   8  11
ENDBRANCH   3   5
BRANCH   1  23
ATOM     23  C   UNL     1       3.903   1.145  -1.313  0.00  0.00    +0.167 C 
BRANCH  23  27
ATOM     24  C   UNL     1       7.842   2.382  -0.216  0.00  0.00    +0.000 A 
ATOM     25  C   UNL     1       7.080   1.640   0.666  0.00  0.00    +0.000 A 
ATOM     26  C   UNL     1       5.805   1.240   0.312  0.00  0.00    +0.005 A 
ATOM     27  C   UNL     1       5.292   1.582  -0.925  0.00  0.00    -0.025 A 
ATOM     28  C   UNL     1       6.054   2.325  -1.808  0.00  0.00    +0.005 A 
ATOM     29  C   UNL     1       7.329   2.724  -1.454  0.00  0.00    +0.000 A 
ENDBRANCH  23  27
BRANCH  23  30
ATOM     30  S   UNL     1       2.881   2.605  -1.650  0.00  0.00    -0.108 S 
BRANCH  30  31
ATOM     31  C   UNL     1       2.775   3.421  -0.092  0.00  0.00    +0.009 A 
ATOM     32  C   UNL     1       3.418   2.887   1.019  0.00  0.00    +0.015 A 
ATOM     33  C   UNL     1       3.332   3.529   2.238  0.00  0.00    +0.001 A 
ATOM     34  C   UNL     1       2.608   4.701   2.355  0.00  0.00    +0.000 A 
ATOM     35  C   UNL     1       1.967   5.235   1.252  0.00  0.00    +0.001 A 
ATOM     36  C   UNL     1       2.053   4.602   0.028  0.00  0.00    +0.015 A 
ENDBRANCH  30  31
ENDBRANCH  23  30
ENDBRANCH   1  23
TORSDOF 7
