REMARK  Name = ZINC06475344
REMARK  5 active torsions:
REMARK  status: ('A' for Active; 'I' for Inactive)
REMARK    1  A    between atoms: C_4  and  C_7
REMARK    2  A    between atoms: C_7  and  C_8
REMARK    3  A    between atoms: N_12  and  C_16
REMARK    4  A    between atoms: C_16  and  C_17
REMARK    5  A    between atoms: N_19  and  C_20
REMARK                            x       y       z     vdW  Elec       q    Type
REMARK                         _______ _______ _______ _____ _____    ______ ____
ROOT
ATOM      1  C   UNL     1      -1.235   2.107   0.018  0.00  0.00    +0.165 C 
ATOM      2  C   UNL     1      -0.014   1.208   0.009  0.00  0.00    +0.244 C 
ATOM      3  O   UNL     1       0.002  -0.004   0.002  0.00  0.00    -0.273 OA
ATOM      4  N   UNL     1       1.048   2.037   0.003  0.00  0.00    -0.216 N 
ATOM      5  C   UNL     1       0.673   3.321   0.013  0.00  0.00    +0.310 C 
ATOM      6  O   UNL     1       1.453   4.253   0.010  0.00  0.00    -0.252 OA
ATOM      7  N   UNL     1      -0.664   3.465   0.026  0.00  0.00    -0.287 N 
ATOM      8  H   UNL     1      -1.157   4.301   0.034  0.00  0.00    +0.151 HD
ENDROOT
BRANCH   1   9
ATOM      9  C   UNL     1      -2.068   1.870   1.279  0.00  0.00    +0.067 C 
BRANCH   9  13
ATOM     10  C   UNL     1      -5.657   4.177   1.070  0.00  0.00    +0.000 A 
ATOM     11  C   UNL     1      -5.632   2.891   0.564  0.00  0.00    +0.000 A 
ATOM     12  C   UNL     1      -4.471   2.144   0.632  0.00  0.00    +0.004 A 
ATOM     13  C   UNL     1      -3.334   2.684   1.205  0.00  0.00    -0.045 A 
ATOM     14  C   UNL     1      -3.361   3.968   1.716  0.00  0.00    +0.004 A 
ATOM     15  C   UNL     1      -4.521   4.716   1.644  0.00  0.00    +0.000 A 
ENDBRANCH   9  13
ENDBRANCH   1   9
BRANCH   4  16
ATOM     16  C   UNL     1       2.443   1.587  -0.013  0.00  0.00    +0.213 C 
BRANCH  16  17
ATOM     17  C   UNL     1       2.907   1.440  -1.439  0.00  0.00    +0.231 C 
ATOM     18  O   UNL     1       2.148   1.687  -2.352  0.00  0.00    -0.274 OA
ATOM     19  N   UNL     1       4.166   1.034  -1.699  0.00  0.00    -0.307 N 
ATOM     20  H   UNL     1       4.773   0.837  -0.969  0.00  0.00    +0.149 HD
BRANCH  19  21
ATOM     21  C   UNL     1       4.617   0.892  -3.086  0.00  0.00    +0.103 C 
ATOM     22  C   UNL     1       6.133   1.069  -3.142  0.00  0.00    +0.027 C 
ATOM     23  C   UNL     1       6.611   0.703  -4.553  0.00  0.00    +0.007 C 
ATOM     24  C   UNL     1       6.458  -0.805  -4.736  0.00  0.00    +0.035 C 
ATOM     25  C   UNL     1       5.067  -1.246  -4.361  0.00  0.00    -0.042 A 
ATOM     26  C   UNL     1       4.224  -0.468  -3.599  0.00  0.00    -0.024 A 
ATOM     27  C   UNL     1       2.956  -0.938  -3.281  0.00  0.00    +0.006 A 
ATOM     28  C   UNL     1       2.534  -2.174  -3.725  0.00  0.00    +0.000 A 
ATOM     29  C   UNL     1       3.379  -2.953  -4.493  0.00  0.00    +0.000 A 
ATOM     30  C   UNL     1       4.640  -2.489  -4.808  0.00  0.00    +0.004 A 
ENDBRANCH  19  21
ENDBRANCH  16  17
ENDBRANCH   4  16
TORSDOF 5
