REMARK  Name = ZINC00752452
REMARK  8 active torsions:
REMARK  status: ('A' for Active; 'I' for Inactive)
REMARK    1  A    between atoms: C_1  and  C_2
REMARK    2  A    between atoms: C_2  and  O_3
REMARK    3  A    between atoms: O_3  and  C_4
REMARK    4  A    between atoms: C_4  and  C_6
REMARK    5  A    between atoms: C_7  and  C_24
REMARK    6  A    between atoms: C_9  and  N_23
REMARK    7  A    between atoms: C_10  and  C_21
REMARK    8  A    between atoms: C_11  and  C_13
REMARK                            x       y       z     vdW  Elec       q    Type
REMARK                         _______ _______ _______ _____ _____    ______ ____
ROOT
ATOM      1  C   UNL     1      -0.019   1.694   2.383  0.00  0.00    +0.087 C 
ATOM      2  C   UNL     1      -0.722   1.554   1.252  0.00  0.00    +0.115 C 
ATOM      3  O   UNL     1      -2.027   1.853   1.179  0.00  0.00    -0.445 OA
ATOM      4  C   UNL     1      -2.750   1.926   2.312  0.00  0.00    +0.198 C 
ATOM      5  C   UNL     1      -2.164   2.092   3.523  0.00  0.00    +0.098 C 
ATOM      6  C   UNL     1      -0.668   2.193   3.646  0.00  0.00    +0.106 C 
ATOM      7  C   UNL     1      -0.021   1.049   0.018  0.00  0.00    +0.087 C 
ENDROOT
BRANCH   6   8
ATOM      8  C   UNL     1      -0.280   3.631   3.874  0.00  0.00    -0.016 A 
ATOM      9  C   UNL     1      -0.599   4.591   2.932  0.00  0.00    +0.007 A 
ATOM     10  C   UNL     1      -0.243   5.910   3.141  0.00  0.00    +0.020 A 
ATOM     11  C   UNL     1       0.432   6.271   4.293  0.00  0.00    +0.042 A 
ATOM     12  C   UNL     1       0.751   5.311   5.237  0.00  0.00    +0.040 A 
ATOM     13  C   UNL     1       0.391   3.991   5.029  0.00  0.00    +0.046 A 
ATOM     14 CL   UNL     1       0.784   2.787   6.216  0.00  0.00    -0.083 Cl
ATOM     15 CL   UNL     1       0.877   7.928   4.556  0.00  0.00    -0.083 Cl
ENDBRANCH   6   8
BRANCH   4  16
ATOM     16  N   UNL     1      -4.118   1.835   2.240  0.00  0.00    -0.328 N 
ATOM     17  H   UNL     1      -4.651   1.890   3.048  0.00  0.00    +0.145 HD
ATOM     18  H   UNL     1      -4.551   1.717   1.380  0.00  0.00    +0.145 HD
ENDBRANCH   4  16
BRANCH   1  19
ATOM     19  C   UNL     1       1.359   1.367   2.391  0.00  0.00    +0.339 C 
ATOM     20  O   UNL     1       1.919   1.065   1.354  0.00  0.00    -0.245 OA
BRANCH  19  21
ATOM     21  O   UNL     1       2.051   1.388   3.549  0.00  0.00    -0.462 OA
BRANCH  21  23
ATOM     22  C   UNL     1       4.049   1.127   4.883  0.00  0.00    +0.048 C 
ATOM     23  C   UNL     1       3.437   1.047   3.483  0.00  0.00    +0.229 C 
ENDBRANCH  21  23
ENDBRANCH  19  21
ENDBRANCH   1  19
BRANCH   5  24
ATOM     24  C   UNL     1      -2.978   2.171   4.699  0.00  0.00    +0.101 C 
ATOM     25  N   UNL     1      -3.624   2.234   5.631  0.00  0.00    -0.191 NA
ENDBRANCH   5  24
TORSDOF 6
