REMARK  Name = ZINC20609370
REMARK  14 active torsions:
REMARK  status: ('A' for Active; 'I' for Inactive)
REMARK    1  A    between atoms: C_1  and  C_2
REMARK    2  A    between atoms: C_2  and  O_3
REMARK    3  A    between atoms: O_3  and  C_4
REMARK    4  A    between atoms: C_4  and  C_6
REMARK    5  A    between atoms: C_7  and  C_36
REMARK    6  A    between atoms: C_11  and  C_13
REMARK    7  A    between atoms: C_15  and  O_22
REMARK    8  A    between atoms: C_16  and  O_20
REMARK    9  A    between atoms: O_20  and  C_21
REMARK   10  A    between atoms: O_22  and  C_23
REMARK   11  A    between atoms: C_26  and  C_32
REMARK   12  A    between atoms: C_28  and  C_31
REMARK   13  A    between atoms: C_32  and  O_34
REMARK   14  A    between atoms: O_34  and  C_35
REMARK                            x       y       z     vdW  Elec       q    Type
REMARK                         _______ _______ _______ _____ _____    ______ ____
ROOT
ATOM      1  C   UNL     1       3.930   3.871  -3.852  0.00  0.00    +0.065 C 
ATOM      2  C   UNL     1       4.970   3.312  -3.208  0.00  0.00    +0.016 C 
ATOM      3  N   UNL     1       4.840   2.900  -1.911  0.00  0.00    -0.321 N 
ATOM      4  C   UNL     1       3.603   2.673  -1.371  0.00  0.00    +0.016 C 
ATOM      5  C   UNL     1       2.499   3.200  -1.942  0.00  0.00    +0.025 C 
ATOM      6  C   UNL     1       2.607   4.064  -3.173  0.00  0.00    +0.092 C 
ATOM      7  C   UNL     1       1.221   2.962  -1.406  0.00  0.00    +0.176 C 
ATOM      8  O   UNL     1       0.249   3.458  -1.940  0.00  0.00    -0.291 OA
ATOM      9  C   UNL     1       1.035   2.103  -0.185  0.00  0.00    +0.171 C 
ATOM     10  C   UNL     1       2.171   1.077  -0.119  0.00  0.00    +0.013 C 
ATOM     11  C   UNL     1       3.505   1.827  -0.126  0.00  0.00    +0.055 C 
ATOM     12  C   UNL     1       2.098   0.149  -1.334  0.00  0.00    +0.009 C 
ATOM     13  C   UNL     1       6.287   3.140  -3.920  0.00  0.00    +0.061 C 
ATOM     14  H   UNL     1       5.735   2.746  -1.291  0.00  0.00    +0.152 HD
ENDROOT
BRANCH   6  15
ATOM     15  C   UNL     1       2.462   5.511  -2.776  0.00  0.00    -0.030 A 
ATOM     16  C   UNL     1       1.438   6.273  -3.306  0.00  0.00    +0.054 A 
ATOM     17  C   UNL     1       1.301   7.602  -2.938  0.00  0.00    +0.163 A 
ATOM     18  C   UNL     1       2.202   8.169  -2.043  0.00  0.00    +0.175 A 
ATOM     19  C   UNL     1       3.229   7.402  -1.518  0.00  0.00    +0.063 A 
ATOM     20  C   UNL     1       3.357   6.074  -1.886  0.00  0.00    +0.023 A 
ATOM     21 BR   UNL     1       4.457   8.168  -0.301  0.00  0.00    -0.046 Br
BRANCH  18  22
ATOM     22  O   UNL     1       2.074   9.475  -1.682  0.00  0.00    -0.490 OA
ATOM     23  C   UNL     1       2.763  10.439  -2.481  0.00  0.00    +0.277 C 
ENDBRANCH  18  22
BRANCH  17  24
ATOM     24  O   UNL     1       0.291   8.351  -3.456  0.00  0.00    -0.491 OA
ATOM     25  C   UNL     1      -0.596   7.702  -4.369  0.00  0.00    +0.277 C 
ENDBRANCH  17  24
ENDBRANCH   6  15
BRANCH   1  26
ATOM     26  C   UNL     1       4.088   4.283  -5.196  0.00  0.00    +0.338 C 
ATOM     27  O   UNL     1       5.182   4.230  -5.725  0.00  0.00    -0.245 OA
BRANCH  26  28
ATOM     28  O   UNL     1       3.023   4.736  -5.892  0.00  0.00    -0.462 OA
BRANCH  28  30
ATOM     29  C   UNL     1       1.942   5.615  -7.866  0.00  0.00    +0.048 C 
ATOM     30  C   UNL     1       3.255   5.135  -7.244  0.00  0.00    +0.229 C 
ENDBRANCH  28  30
ENDBRANCH  26  28
ENDBRANCH   1  26
BRANCH   9  31
ATOM     31  C   UNL     1      -0.287   1.386  -0.270  0.00  0.00    +0.318 C 
ATOM     32  O   UNL     1      -0.321   0.178  -0.268  0.00  0.00    -0.250 OA
BRANCH  31  33
ATOM     33  O   UNL     1      -1.428   2.089  -0.352  0.00  0.00    -0.467 OA
ATOM     34  C   UNL     1      -2.664   1.332  -0.437  0.00  0.00    +0.280 C 
ENDBRANCH  31  33
ENDBRANCH   9  31
TORSDOF 8
