REMARK  Name = ZINC54425102
REMARK  2 active torsions:
REMARK  status: ('A' for Active; 'I' for Inactive)
REMARK    1  A    between atoms: N_9  and  C_23
REMARK    2  A    between atoms: C_10  and  C_13
REMARK                            x       y       z     vdW  Elec       q    Type
REMARK                         _______ _______ _______ _____ _____    ______ ____
ROOT
ATOM      1  C   UNL     1       0.034   1.393   0.155  0.00  0.00    +0.001 A 
ATOM      2  C   UNL     1       1.220   2.105   0.065  0.00  0.00    +0.002 A 
ATOM      3  C   UNL     1       2.430   1.445  -0.024  0.00  0.00    +0.024 A 
ATOM      4  C   UNL     1       2.457   0.060  -0.024  0.00  0.00    +0.041 A 
ATOM      5  C   UNL     1       1.256  -0.665   0.059  0.00  0.00    +0.058 A 
ATOM      6  C   UNL     1       0.043   0.014   0.154  0.00  0.00    +0.015 A 
ATOM      7  C   UNL     1       1.316  -2.137   0.028  0.00  0.00    +0.250 C 
ATOM      8  O   UNL     1       0.322  -2.796   0.260  0.00  0.00    -0.270 OA
ATOM      9  N   UNL     1       2.484  -2.746  -0.259  0.00  0.00    -0.272 N 
ATOM     10  C   UNL     1       3.646  -1.980  -0.713  0.00  0.00    +0.196 C 
ATOM     11  N   UNL     1       3.651  -0.649  -0.097  0.00  0.00    -0.321 N 
ATOM     12  H   UNL     1       4.473  -0.270   0.253  0.00  0.00    +0.148 HD
ENDROOT
BRANCH  10  13
ATOM     13  C   UNL     1       3.590  -1.832  -2.212  0.00  0.00    +0.036 A 
ATOM     14  C   UNL     1       2.895  -2.755  -2.972  0.00  0.00    +0.011 A 
ATOM     15  C   UNL     1       2.843  -2.622  -4.347  0.00  0.00    +0.004 A 
ATOM     16  C   UNL     1       3.486  -1.567  -4.967  0.00  0.00    +0.049 A 
ATOM     17  C   UNL     1       4.184  -0.638  -4.210  0.00  0.00    +0.162 A 
ATOM     18  C   UNL     1       4.231  -0.767  -2.827  0.00  0.00    +0.169 A 
ATOM     19  O   UNL     1       4.900   0.140  -2.065  0.00  0.00    -0.485 OA
ATOM     20  C   UNL     1       5.840   0.981  -2.743  0.00  0.00    +0.270 C 
ATOM     21  C   UNL     1       5.174   1.517  -4.017  0.00  0.00    +0.270 C 
ATOM     22  O   UNL     1       4.816   0.393  -4.835  0.00  0.00    -0.485 OA
ENDBRANCH  10  13
BRANCH   9  23
ATOM     23  C   UNL     1       2.593  -4.199  -0.113  0.00  0.00    +0.079 C 
ATOM     24  C   UNL     1       2.066  -4.821   1.182  0.00  0.00    +0.024 C 
ATOM     25  C   UNL     1       3.573  -4.733   0.933  0.00  0.00    +0.024 C 
ENDBRANCH   9  23
TORSDOF 2
