REMARK  Name = ZINC63571287
REMARK  2 active torsions:
REMARK  status: ('A' for Active; 'I' for Inactive)
REMARK    1  A    between atoms: C_5  and  C_7
REMARK    2  A    between atoms: N_24  and  C_25
REMARK                            x       y       z     vdW  Elec       q    Type
REMARK                         _______ _______ _______ _____ _____    ______ ____
ROOT
ATOM      1  C   UNL     1       1.226  -2.180  -0.026  0.00  0.00    +0.137 C 
ATOM      2  C   UNL     1       1.492  -2.707   1.389  0.00  0.00    +0.131 C 
ATOM      3  C   UNL     1       0.231  -2.434   2.198  0.00  0.00    -0.035 C 
ATOM      4  C   UNL     1       0.608  -1.717   3.250  0.00  0.00    -0.001 A 
ATOM      5  C   UNL     1      -0.142  -1.215   4.413  0.00  0.00    +0.010 A 
ATOM      6  C   UNL     1       0.568  -0.489   5.316  0.00  0.00    +0.001 A 
ATOM      7  C   UNL     1       1.933  -0.216   5.181  0.00  0.00    +0.002 A 
ATOM      8  C   UNL     1       2.702  -0.641   4.147  0.00  0.00    +0.026 A 
ATOM      9  C   UNL     1       2.068  -1.419   3.135  0.00  0.00    +0.043 A 
ATOM     10  N   UNL     1       2.575  -1.974   2.048  0.00  0.00    -0.375 N 
ATOM     11  C   UNL     1      -1.137  -2.878   1.741  0.00  0.00    +0.052 C 
ATOM     12  C   UNL     1      -1.297  -2.395   0.288  0.00  0.00    +0.114 C 
ATOM     13  N   UNL     1      -0.076  -2.703  -0.466  0.00  0.00    -0.276 N 
ATOM     14  C   UNL     1      -0.149  -3.471  -1.570  0.00  0.00    +0.303 C 
ATOM     15  O   UNL     1       0.869  -3.813  -2.141  0.00  0.00    -0.253 OA
ATOM     16  N   UNL     1      -1.349  -3.861  -2.043  0.00  0.00    -0.294 N 
ATOM     17  H   UNL     1      -2.163  -3.527  -1.634  0.00  0.00    +0.151 HD
ATOM     18  H   UNL     1       3.490  -1.911   1.734  0.00  0.00    +0.160 HD
ENDROOT
BRANCH  16  19
ATOM     19  C   UNL     1      -1.425  -4.789  -3.174  0.00  0.00    +0.037 C 
ATOM     20  C   UNL     1      -0.729  -6.101  -2.805  0.00  0.00    +0.029 C 
ATOM     21  C   UNL     1      -0.809  -7.069  -3.987  0.00  0.00    -0.008 C 
ATOM     22  C   UNL     1      -2.276  -7.347  -4.322  0.00  0.00    +0.007 C 
ATOM     23  C   UNL     1      -2.972  -6.035  -4.690  0.00  0.00    -0.008 C 
ATOM     24  C   UNL     1      -2.892  -5.066  -3.509  0.00  0.00    +0.029 C 
ATOM     25  C   UNL     1      -2.280  -5.415  -5.906  0.00  0.00    +0.007 C 
ATOM     26  C   UNL     1      -0.813  -5.137  -5.571  0.00  0.00    -0.008 C 
ATOM     27  C   UNL     1      -0.117  -6.449  -5.203  0.00  0.00    +0.007 C 
ATOM     28  C   UNL     1      -0.734  -4.168  -4.390  0.00  0.00    +0.029 C 
ENDBRANCH  16  19
BRANCH   1  33
ATOM     29  C   UNL     1       0.201   1.372   0.741  0.00  0.00    +0.000 A 
ATOM     30  C   UNL     1       1.131   2.092   0.015  0.00  0.00    +0.003 A 
ATOM     31  C   UNL     1       2.093   1.431  -0.725  0.00  0.00    +0.039 A 
ATOM     32  C   UNL     1       2.125   0.047  -0.739  0.00  0.00    +0.128 A 
ATOM     33  C   UNL     1       1.193  -0.673  -0.011  0.00  0.00    +0.010 A 
ATOM     34  C   UNL     1       0.232  -0.010   0.728  0.00  0.00    +0.008 A 
ATOM     35  F   UNL     1       3.065  -0.600  -1.462  0.00  0.00    -0.205 F 
ENDBRANCH   1  33
TORSDOF 2
