REMARK  Name = ZINC01382526
REMARK  9 active torsions:
REMARK  status: ('A' for Active; 'I' for Inactive)
REMARK    1  A    between atoms: C_1  and  C_2
REMARK    2  A    between atoms: C_4  and  C_43
REMARK    3  A    between atoms: C_7  and  C_14
REMARK    4  A    between atoms: C_14  and  C_16
REMARK    5  A    between atoms: C_14  and  N_27
REMARK    6  A    between atoms: N_20  and  C_21
REMARK    7  A    between atoms: C_21  and  C_22
REMARK    8  A    between atoms: N_30  and  C_33
REMARK    9  A    between atoms: C_33  and  C_34
REMARK                            x       y       z     vdW  Elec       q    Type
REMARK                         _______ _______ _______ _____ _____    ______ ____
ROOT
ATOM      1  C   UNL     1       0.096  -6.383   1.200  0.00  0.00    +0.162 C 
ENDROOT
BRANCH   1   8
ATOM      2  C   UNL     1      -1.107   1.307  -0.541  0.00  0.00    +0.044 C 
ATOM      3  C   UNL     1      -0.898  -0.182  -0.442  0.00  0.00    -0.048 A 
ATOM      4  C   UNL     1      -0.914  -0.956  -1.595  0.00  0.00    +0.007 A 
ATOM      5  C   UNL     1      -0.728  -2.307  -1.527  0.00  0.00    -0.041 A 
ATOM      6  C   UNL     1      -0.519  -2.917  -0.286  0.00  0.00    +0.002 A 
ATOM      7  C   UNL     1      -0.315  -4.363  -0.177  0.00  0.00    +0.021 A 
ATOM      8  C   UNL     1      -0.117  -4.899   1.053  0.00  0.00    +0.042 A 
ATOM      9  C   UNL     1      -0.109  -4.071   2.196  0.00  0.00    +0.254 A 
ATOM     10  O   UNL     1       0.071  -4.573   3.292  0.00  0.00    -0.268 OA
ATOM     11  N   UNL     1      -0.295  -2.742   2.106  0.00  0.00    -0.322 N 
ATOM     12  H   UNL     1      -0.284  -2.203   2.912  0.00  0.00    +0.169 HD
ATOM     13  C   UNL     1      -0.502  -2.136   0.885  0.00  0.00    +0.050 A 
ATOM     14  C   UNL     1      -0.689  -0.761   0.791  0.00  0.00    +0.029 A 
ATOM     15  C   UNL     1      -0.748  -3.138  -2.785  0.00  0.00    +0.044 C 
ENDBRANCH   1   8
BRANCH   1  16
ATOM     16  N   UNL     1       1.341  -6.629   1.938  0.00  0.00    -0.286 NA
ATOM     17  C   UNL     1       1.550  -8.068   2.155  0.00  0.00    +0.101 C 
ATOM     18  C   UNL     1       2.813  -8.276   2.994  0.00  0.00    +0.100 C 
ATOM     19  N   UNL     1       3.963  -7.678   2.301  0.00  0.00    -0.296 NA
ATOM     20  C   UNL     1       3.754  -6.240   2.084  0.00  0.00    +0.100 C 
ATOM     21  C   UNL     1       2.491  -6.031   1.245  0.00  0.00    +0.101 C 
BRANCH  19  22
ATOM     22  C   UNL     1       5.209  -7.924   3.039  0.00  0.00    +0.119 C 
BRANCH  22  23
ATOM     23  C   UNL     1       6.385  -7.518   2.189  0.00  0.00    -0.030 A 
ATOM     24  C   UNL     1       6.972  -8.438   1.340  0.00  0.00    +0.009 A 
ATOM     25  C   UNL     1       8.051  -8.070   0.558  0.00  0.00    +0.050 A 
ATOM     26  C   UNL     1       8.547  -6.778   0.624  0.00  0.00    +0.166 A 
ATOM     27  C   UNL     1       7.956  -5.852   1.480  0.00  0.00    +0.167 A 
ATOM     28  C   UNL     1       6.871  -6.226   2.256  0.00  0.00    +0.054 A 
ATOM     29  O   UNL     1       8.620  -4.665   1.363  0.00  0.00    -0.453 OA
ATOM     30  C   UNL     1       9.874  -4.986   0.735  0.00  0.00    +0.466 C 
ATOM     31  O   UNL     1       9.581  -6.171  -0.028  0.00  0.00    -0.453 OA
ENDBRANCH  22  23
ENDBRANCH  19  22
ENDBRANCH   1  16
BRANCH   1  32
ATOM     32  C   UNL     1      -1.062  -6.984   1.954  0.00  0.00    +0.173 A 
ATOM     33  N   UNL     1      -1.264  -6.934   3.248  0.00  0.00    -0.111 NA
ATOM     34  N   UNL     1      -2.359  -7.563   3.505  0.00  0.00    -0.023 NA
ATOM     35  N   UNL     1      -2.861  -8.013   2.408  0.00  0.00    -0.043 NA
ATOM     36  N   UNL     1      -2.094  -7.672   1.429  0.00  0.00    -0.220 N 
BRANCH  36  37
ATOM     37  C   UNL     1      -2.303  -7.979   0.012  0.00  0.00    +0.221 C 
BRANCH  37  38
ATOM     38  C   UNL     1      -1.647  -9.294  -0.320  0.00  0.00    +0.126 A 
ATOM     39  C   UNL     1      -2.229 -10.505  -0.248  0.00  0.00    +0.046 A 
ATOM     40  C   UNL     1      -1.258 -11.452  -0.645  0.00  0.00    +0.041 A 
ATOM     41  C   UNL     1      -0.139 -10.764  -0.936  0.00  0.00    +0.195 A 
ATOM     42  O   UNL     1      -0.382  -9.457  -0.743  0.00  0.00    -0.466 OA
ENDBRANCH  37  38
ENDBRANCH  36  37
ENDBRANCH   1  32
TORSDOF 7
