REMARK  Name = ZINC23337876
REMARK  13 active torsions:
REMARK  status: ('A' for Active; 'I' for Inactive)
REMARK    1  A    between atoms: C_1  and  C_2
REMARK    2  A    between atoms: N_6  and  C_7
REMARK    3  A    between atoms: C_7  and  C_8
REMARK    4  A    between atoms: C_8  and  C_9
REMARK    5  A    between atoms: C_9  and  N_10
REMARK    6  A    between atoms: C_11  and  C_13
REMARK    7  A    between atoms: C_13  and  C_14
REMARK    8  A    between atoms: N_21  and  C_22
REMARK    9  A    between atoms: C_22  and  C_23
REMARK   10  A    between atoms: C_25  and  O_31
REMARK   11  A    between atoms: C_27  and  O_29
REMARK   12  A    between atoms: O_29  and  C_30
REMARK   13  A    between atoms: O_31  and  C_32
REMARK                            x       y       z     vdW  Elec       q    Type
REMARK                         _______ _______ _______ _____ _____    ______ ____
ROOT
ATOM      1  C   UNL     1       9.329   0.115  -4.657  0.00  0.00    +0.028 C 
ATOM      2  C   UNL     1       9.717  -0.089  -6.095  0.00  0.00    +0.200 C 
ATOM      3  O   UNL     1       9.056  -0.846  -6.773  0.00  0.00    -0.278 OA
ATOM      4  N   UNL     1      10.760   0.530  -6.657  0.00  0.00    -0.318 N 
ATOM      5  C   UNL     1      11.597   1.487  -5.938  0.00  0.00    +0.085 C 
ATOM      6  C   UNL     1      11.404   1.323  -4.430  0.00  0.00    -0.058 C 
ATOM      7  N   UNL     1       9.962   1.333  -4.134  0.00  0.00    +0.391 N 
ATOM      8  H   UNL     1      10.977   0.291  -7.708  0.00  0.00    +0.149 HD
ATOM      9  H   UNL     1       9.508   2.202  -4.633  0.00  0.00    -0.080 HD
ENDROOT
BRANCH   1  10
ATOM     10  C   UNL     1       7.809   0.248  -4.555  0.00  0.00    +0.089 C 
BRANCH  10  12
ATOM     11  N   UNL     1       6.044   1.725  -5.463  0.00  0.00    -0.315 N 
ATOM     12  C   UNL     1       7.359   1.467  -5.319  0.00  0.00    +0.212 C 
ATOM     13  O   UNL     1       8.181   2.217  -5.803  0.00  0.00    -0.276 OA
ATOM     14  H   UNL     1       5.299   1.045  -5.024  0.00  0.00    +0.149 HD
BRANCH  11  15
ATOM     15  C   UNL     1       5.607   2.910  -6.205  0.00  0.00    +0.106 C 
BRANCH  15  16
ATOM     16  C   UNL     1       4.078   2.967  -6.221  0.00  0.00    +0.040 C 
BRANCH  16  17
ATOM     17  C   UNL     1       3.622   4.205  -6.995  0.00  0.00    +0.124 C 
BRANCH  17  23
ATOM     18  C   UNL     1       1.842   5.428  -4.774  0.00  0.00    +0.084 C 
ATOM     19  C   UNL     1       1.366   4.787  -6.052  0.00  0.00    +0.084 A 
ATOM     20  N   UNL     1       0.121   4.651  -6.417  0.00  0.00    -0.350 N 
ATOM     21  C   UNL     1       0.073   4.038  -7.609  0.00  0.00    +0.101 A 
ATOM     22  C   UNL     1       1.337   3.785  -7.997  0.00  0.00    +0.104 A 
ATOM     23  N   UNL     1       2.158   4.260  -7.010  0.00  0.00    -0.336 N 
ATOM     24  H   UNL     1      -0.686   5.021  -5.767  0.00  0.00    +0.166 HD
ENDBRANCH  17  23
ENDBRANCH  16  17
ENDBRANCH  15  16
ENDBRANCH  11  15
ENDBRANCH  10  12
ENDBRANCH   1  10
BRANCH   7  25
ATOM     25  C   UNL     1       9.721   1.474  -2.692  0.00  0.00    -0.042 C 
BRANCH  25  26
ATOM     26  C   UNL     1      10.030   2.886  -2.267  0.00  0.00    -0.057 A 
ATOM     27  C   UNL     1      11.303   3.217  -1.847  0.00  0.00    +0.047 A 
ATOM     28  C   UNL     1      11.591   4.518  -1.459  0.00  0.00    +0.124 A 
ATOM     29  C   UNL     1      10.597   5.484  -1.483  0.00  0.00    +0.091 A 
ATOM     30  C   UNL     1       9.318   5.148  -1.900  0.00  0.00    +0.124 A 
ATOM     31  C   UNL     1       9.037   3.847  -2.292  0.00  0.00    +0.047 A 
BRANCH  30  32
ATOM     32  O   UNL     1       8.341   6.092  -1.925  0.00  0.00    -0.495 OA
ATOM     33  C   UNL     1       8.702   7.410  -1.508  0.00  0.00    +0.277 C 
ENDBRANCH  30  32
BRANCH  28  34
ATOM     34  O   UNL     1      12.846   4.844  -1.050  0.00  0.00    -0.495 OA
ATOM     35  C   UNL     1      13.069   6.200  -0.660  0.00  0.00    +0.277 C 
ENDBRANCH  28  34
ENDBRANCH  25  26
ENDBRANCH   7  25
TORSDOF 10
