REMARK  Name = ZINC17099669
REMARK  8 active torsions:
REMARK  status: ('A' for Active; 'I' for Inactive)
REMARK    1  A    between atoms: C_1  and  C_2
REMARK    2  A    between atoms: C_9  and  N_13
REMARK    3  A    between atoms: C_10  and  C_11
REMARK    4  A    between atoms: N_13  and  C_14
REMARK    5  A    between atoms: C_14  and  N_16
REMARK    6  A    between atoms: C_17  and  C_19
REMARK    7  A    between atoms: C_28  and  O_29
REMARK    8  A    between atoms: O_29  and  C_30
REMARK                            x       y       z     vdW  Elec       q    Type
REMARK                         _______ _______ _______ _____ _____    ______ ____
ROOT
ATOM      1  C   UNL     1       2.232  -6.107  -3.022  0.00  0.00    +0.141 C 
ATOM      2  S   UNL     1       2.193  -4.849  -4.183  0.00  0.00    -0.018 S 
ENDROOT
BRANCH   1   3
ATOM      3  N   UNL     1       2.562  -7.359  -3.396  0.00  0.00    -0.263 N 
ATOM      4  C   UNL     1       2.860  -7.621  -4.684  0.00  0.00    +0.253 C 
ATOM      5  O   UNL     1       2.832  -6.728  -5.508  0.00  0.00    -0.270 OA
ATOM      6  H   UNL     1       2.584  -8.072  -2.739  0.00  0.00    +0.157 HD
BRANCH   4   7
ATOM      7  C   UNL     1       3.221  -8.992  -5.094  0.00  0.00    +0.079 A 
ATOM      8  C   UNL     1       3.251 -10.007  -4.150  0.00  0.00    +0.025 A 
ATOM      9  C   UNL     1       3.594 -11.307  -4.546  0.00  0.00    -0.017 A 
ATOM     10  C   UNL     1       3.635 -12.362  -3.615  0.00  0.00    +0.008 A 
ATOM     11  C   UNL     1       3.970 -13.614  -4.029  0.00  0.00    +0.001 A 
ATOM     12  C   UNL     1       4.276 -13.869  -5.365  0.00  0.00    +0.001 A 
ATOM     13  C   UNL     1       4.248 -12.875  -6.294  0.00  0.00    +0.008 A 
ATOM     14  C   UNL     1       3.905 -11.568  -5.906  0.00  0.00    -0.014 A 
ATOM     15  C   UNL     1       3.867 -10.521  -6.842  0.00  0.00    +0.055 A 
ATOM     16  C   UNL     1       3.527  -9.262  -6.444  0.00  0.00    +0.133 A 
BRANCH  16  17
ATOM     17  O   UNL     1       3.486  -8.258  -7.356  0.00  0.00    -0.494 OA
ATOM     18  C   UNL     1       3.807  -8.595  -8.707  0.00  0.00    +0.277 C 
ENDBRANCH  16  17
ENDBRANCH   4   7
ENDBRANCH   1   3
BRANCH   1  19
ATOM     19  N   UNL     1       1.934  -5.846  -1.734  0.00  0.00    -0.290 N 
ATOM     20  H   UNL     1       1.956  -6.558  -1.076  0.00  0.00    +0.154 HD
BRANCH  19  28
ATOM     21  C   UNL     1      -0.019   1.526   0.010  0.00  0.00    +0.008 C 
ATOM     22  C   UNL     1       0.002  -0.004   0.002  0.00  0.00    -0.009 C 
ATOM     23  C   UNL     1       0.742  -0.514   1.242  0.00  0.00    +0.008 C 
ATOM     24  C   UNL     1       0.556  -2.027   1.373  0.00  0.00    +0.037 C 
ATOM     25  C   UNL     1       0.941  -2.684   0.053  0.00  0.00    -0.018 A 
ATOM     26  C   UNL     1       1.008  -1.965  -1.089  0.00  0.00    -0.004 A 
ATOM     27  S   UNL     1       1.486  -3.133  -2.331  0.00  0.00    -0.077 S 
ATOM     28  C   UNL     1       1.595  -4.557  -1.349  0.00  0.00    +0.089 A 
ATOM     29  C   UNL     1       1.259  -4.095  -0.084  0.00  0.00    +0.084 A 
ATOM     30  C   UNL     1       0.736  -0.502  -1.252  0.00  0.00    +0.046 C 
BRANCH  29  31
ATOM     31  C   UNL     1       1.227  -4.977   1.044  0.00  0.00    +0.102 C 
ATOM     32  N   UNL     1       1.202  -5.676   1.938  0.00  0.00    -0.191 NA
ENDBRANCH  29  31
ENDBRANCH  19  28
ENDBRANCH   1  19
TORSDOF 6
