REMARK  Name = ZINC20881924
REMARK  8 active torsions:
REMARK  status: ('A' for Active; 'I' for Inactive)
REMARK    1  A    between atoms: C_1  and  C_2
REMARK    2  A    between atoms: C_2  and  O_3
REMARK    3  A    between atoms: O_3  and  C_4
REMARK    4  A    between atoms: C_7  and  C_12
REMARK    5  A    between atoms: C_9  and  O_10
REMARK    6  A    between atoms: O_10  and  C_11
REMARK    7  A    between atoms: C_17  and  C_23
REMARK    8  A    between atoms: C_26  and  C_30
REMARK                            x       y       z     vdW  Elec       q    Type
REMARK                         _______ _______ _______ _____ _____    ______ ____
ROOT
ATOM      1  C   UNL     1       2.036   5.305  -1.125  0.00  0.00    +0.032 C 
ATOM      2  C   UNL     1       2.407   3.974  -0.467  0.00  0.00    +0.059 C 
ATOM      3  C   UNL     1       1.154   3.266  -0.016  0.00  0.00    +0.018 C 
ATOM      4  C   UNL     1       0.065   3.964   0.368  0.00  0.00    +0.020 C 
ATOM      5  C   UNL     1      -1.174   3.234   0.829  0.00  0.00    +0.063 C 
ATOM      6  C   UNL     1      -1.331   1.942   0.019  0.00  0.00    +0.109 C 
ATOM      7  C   UNL     1      -0.014   1.208   0.009  0.00  0.00    +0.218 C 
ATOM      8  O   UNL     1       0.002  -0.004   0.002  0.00  0.00    -0.275 OA
ATOM      9  N   UNL     1       1.141   1.894   0.001  0.00  0.00    -0.289 N 
ATOM     10  C   UNL     1       0.053   5.369   0.349  0.00  0.00    +0.162 C 
ATOM     11  O   UNL     1      -0.943   5.963   0.713  0.00  0.00    -0.292 OA
ATOM     12  C   UNL     1       1.254   6.149  -0.114  0.00  0.00    +0.088 C 
ATOM     13  H   UNL     1       2.089   1.336   0.009  0.00  0.00    +0.155 HD
ENDROOT
BRANCH   5  14
ATOM     14  C   UNL     1      -1.046   2.902   2.293  0.00  0.00    -0.038 A 
ATOM     15  C   UNL     1      -1.969   3.394   3.197  0.00  0.00    +0.004 A 
ATOM     16  C   UNL     1      -1.852   3.090   4.540  0.00  0.00    +0.005 A 
ATOM     17  C   UNL     1      -0.811   2.293   4.981  0.00  0.00    -0.036 A 
ATOM     18  C   UNL     1       0.112   1.801   4.077  0.00  0.00    +0.021 A 
ATOM     19  C   UNL     1      -0.009   2.100   2.732  0.00  0.00    +0.019 A 
ATOM     20 BR   UNL     1       1.536   0.712   4.679  0.00  0.00    -0.050 Br
ATOM     21  C   UNL     1      -0.684   1.962   6.445  0.00  0.00    +0.045 C 
ENDBRANCH   5  14
BRANCH   1  25
ATOM     22  C   UNL     1       5.597   7.377  -2.272  0.00  0.00    +0.162 A 
ATOM     23  C   UNL     1       5.377   7.056  -0.942  0.00  0.00    +0.050 A 
ATOM     24  C   UNL     1       4.225   6.386  -0.574  0.00  0.00    +0.008 A 
ATOM     25  C   UNL     1       3.290   6.035  -1.531  0.00  0.00    -0.040 A 
ATOM     26  C   UNL     1       3.507   6.348  -2.860  0.00  0.00    +0.053 A 
ATOM     27  C   UNL     1       4.657   7.024  -3.235  0.00  0.00    +0.162 A 
BRANCH  27  28
ATOM     28  O   UNL     1       4.869   7.336  -4.541  0.00  0.00    -0.491 OA
ATOM     29  C   UNL     1       3.862   6.942  -5.474  0.00  0.00    +0.277 C 
ENDBRANCH  27  28
BRANCH  22  30
ATOM     30  O   UNL     1       6.730   8.036  -2.635  0.00  0.00    -0.489 OA
BRANCH  30  32
ATOM     31  C   UNL     1       8.855   9.098  -2.189  0.00  0.00    +0.048 C 
ATOM     32  C   UNL     1       7.651   8.366  -1.593  0.00  0.00    +0.226 C 
ENDBRANCH  30  32
ENDBRANCH  22  30
ENDBRANCH   1  25
TORSDOF 5
