REMARK  Name = ZINC34760083
REMARK  12 active torsions:
REMARK  status: ('A' for Active; 'I' for Inactive)
REMARK    1  A    between atoms: C_1  and  C_2
REMARK    2  A    between atoms: C_2  and  N_3
REMARK    3  A    between atoms: N_3  and  C_4
REMARK    4  A    between atoms: C_4  and  C_5
REMARK    5  A    between atoms: C_6  and  C_8
REMARK    6  A    between atoms: C_8  and  N_9
REMARK    7  A    between atoms: C_17  and  C_36
REMARK    8  A    between atoms: C_18  and  C_35
REMARK    9  A    between atoms: C_22  and  S_24
REMARK   10  A    between atoms: S_24  and  C_25
REMARK   11  A    between atoms: C_25  and  C_26
REMARK   12  A    between atoms: N_28  and  C_29
REMARK                            x       y       z     vdW  Elec       q    Type
REMARK                         _______ _______ _______ _____ _____    ______ ____
ROOT
ATOM      1  N   UNL     1      -2.327  -1.755  -4.567  0.00  0.00    +0.387 N 
ATOM      2  C   UNL     1      -3.245  -2.301  -5.575  0.00  0.00    -0.059 C 
ATOM      3  C   UNL     1      -2.475  -2.573  -6.871  0.00  0.00    +0.088 C 
ATOM      4  N   UNL     1      -1.794  -1.335  -7.278  0.00  0.00    -0.318 N 
ATOM      5  C   UNL     1      -0.979  -0.630  -6.276  0.00  0.00    +0.088 C 
ATOM      6  C   UNL     1      -1.820  -0.449  -5.008  0.00  0.00    -0.059 C 
ATOM      7  C   UNL     1      -1.914  -0.847  -8.567  0.00  0.00    +0.134 A 
ATOM      8  C   UNL     1      -1.090  -1.356  -9.608  0.00  0.00    +0.051 A 
ATOM      9  C   UNL     1      -0.060  -2.381  -9.559  0.00  0.00    -0.028 A 
ATOM     10  C   UNL     1       0.597  -2.703 -10.682  0.00  0.00    -0.008 A 
ATOM     11  S   UNL     1      -0.131  -1.636 -11.912  0.00  0.00    -0.073 S 
ATOM     12  C   UNL     1      -1.299  -0.786 -10.883  0.00  0.00    +0.115 A 
ATOM     13  N   UNL     1      -2.202   0.155 -11.077  0.00  0.00    -0.214 NA
ATOM     14  C   UNL     1      -2.942   0.592 -10.067  0.00  0.00    +0.191 A 
ATOM     15  N   UNL     1      -2.801   0.094  -8.844  0.00  0.00    -0.206 NA
ATOM     16  C   UNL     1       1.691  -3.724 -10.863  0.00  0.00    +0.052 C 
ATOM     17  C   UNL     1       0.266  -3.072  -8.261  0.00  0.00    +0.045 C 
ATOM     18  H   UNL     1      -1.553  -2.390  -4.442  0.00  0.00    -0.081 HD
ENDROOT
BRANCH   1  19
ATOM     19  C   UNL     1      -3.040  -1.597  -3.292  0.00  0.00    +0.019 C 
BRANCH  19  21
ATOM     20  N   UNL     1      -4.127  -3.053  -1.614  0.00  0.00    -0.304 N 
ATOM     21  C   UNL     1      -3.454  -2.951  -2.777  0.00  0.00    +0.199 C 
ATOM     22  O   UNL     1      -3.183  -3.950  -3.410  0.00  0.00    -0.278 OA
BRANCH  20  24
ATOM     23  C   UNL     1      -5.920  -4.716  -1.652  0.00  0.00    +0.024 C 
ATOM     24  C   UNL     1      -4.530  -4.369  -1.113  0.00  0.00    +0.104 C 
ENDBRANCH  20  24
BRANCH  20  25
ATOM     25  C   UNL     1      -4.455  -1.847  -0.850  0.00  0.00    +0.104 C 
ATOM     26  C   UNL     1      -3.320  -1.538   0.129  0.00  0.00    +0.024 C 
ENDBRANCH  20  25
ENDBRANCH  19  21
ENDBRANCH   1  19
BRANCH  14  27
ATOM     27  S   UNL     1      -4.141   1.851 -10.355  0.00  0.00    -0.077 S 
BRANCH  27  28
ATOM     28  C   UNL     1      -3.986   2.207 -12.127  0.00  0.00    +0.173 C 
BRANCH  28  29
ATOM     29  C   UNL     1      -4.970   3.282 -12.511  0.00  0.00    +0.224 C 
ATOM     30  O   UNL     1      -5.703   3.761 -11.671  0.00  0.00    -0.275 OA
ATOM     31  N   UNL     1      -5.035   3.712 -13.787  0.00  0.00    -0.312 N 
ATOM     32  H   UNL     1      -4.449   3.329 -14.458  0.00  0.00    +0.149 HD
BRANCH  31  33
ATOM     33  C   UNL     1      -5.992   4.757 -14.160  0.00  0.00    +0.073 C 
ATOM     34  C   UNL     1      -7.351   4.121 -14.459  0.00  0.00    +0.022 C 
ATOM     35  C   UNL     1      -8.350   5.213 -14.848  0.00  0.00    +0.002 C 
ATOM     36  C   UNL     1      -7.844   5.946 -16.093  0.00  0.00    +0.000 C 
ATOM     37  C   UNL     1      -6.485   6.581 -15.794  0.00  0.00    +0.002 C 
ATOM     38  C   UNL     1      -5.486   5.490 -15.404  0.00  0.00    +0.022 C 
ENDBRANCH  31  33
ENDBRANCH  28  29
ENDBRANCH  27  28
ENDBRANCH  14  27
TORSDOF 8
