REMARK  Name = ZINC38627220
REMARK  12 active torsions:
REMARK  status: ('A' for Active; 'I' for Inactive)
REMARK    1  A    between atoms: C_1  and  C_2
REMARK    2  A    between atoms: C_2  and  C_4
REMARK    3  A    between atoms: C_2  and  N_23
REMARK    4  A    between atoms: N_6  and  C_7
REMARK    5  A    between atoms: C_11  and  O_21
REMARK    6  A    between atoms: C_15  and  C_17
REMARK    7  A    between atoms: C_17  and  O_19
REMARK    8  A    between atoms: O_19  and  C_20
REMARK    9  A    between atoms: O_21  and  C_22
REMARK   10  A    between atoms: N_26  and  C_29
REMARK   11  A    between atoms: C_34  and  O_35
REMARK   12  A    between atoms: O_35  and  C_36
REMARK                            x       y       z     vdW  Elec       q    Type
REMARK                         _______ _______ _______ _____ _____    ______ ____
ROOT
ATOM      1  C   UNL     1       1.679  -0.592  -1.267  0.00  0.00    +0.203 C 
ATOM      2  O   UNL     1       0.769  -1.265  -1.700  0.00  0.00    -0.277 OA
ATOM      3  N   UNL     1       2.720  -0.274  -2.062  0.00  0.00    -0.288 N 
ATOM      4  H   UNL     1       3.476   0.213  -1.700  0.00  0.00    +0.155 HD
ENDROOT
BRANCH   3   5
ATOM      5  C   UNL     1       2.710  -0.638  -3.376  0.00  0.00    +0.053 C 
ATOM      6  C   UNL     1       3.622  -0.274  -4.349  0.00  0.00    +0.018 A 
ATOM      7  C   UNL     1       4.784   0.536  -4.312  0.00  0.00    +0.015 A 
ATOM      8  C   UNL     1       5.506   0.727  -5.441  0.00  0.00    +0.046 A 
ATOM      9  C   UNL     1       5.133   0.139  -6.660  0.00  0.00    +0.122 A 
ATOM     10  C   UNL     1       4.029  -0.651  -6.765  0.00  0.00    +0.071 A 
ATOM     11  C   UNL     1       3.226  -0.894  -5.626  0.00  0.00    +0.048 A 
ATOM     12  N   UNL     1       2.128  -1.608  -5.469  0.00  0.00    -0.367 N 
ATOM     13  C   UNL     1       1.702  -1.528  -4.068  0.00  0.00    +0.234 C 
ATOM     14  H   UNL     1       1.676  -2.108  -6.167  0.00  0.00    +0.161 HD
BRANCH  13  15
ATOM     15  C   UNL     1       1.704  -2.899  -3.443  0.00  0.00    +0.335 C 
ATOM     16  O   UNL     1       2.619  -3.660  -3.658  0.00  0.00    -0.248 OA
BRANCH  15  17
ATOM     17  O   UNL     1       0.691  -3.276  -2.647  0.00  0.00    -0.466 OA
ATOM     18  C   UNL     1       0.759  -4.589  -2.088  0.00  0.00    +0.280 C 
ENDBRANCH  15  17
ENDBRANCH  13  15
BRANCH   9  19
ATOM     19  O   UNL     1       5.893   0.363  -7.761  0.00  0.00    -0.495 OA
ATOM     20  C   UNL     1       7.040   1.199  -7.598  0.00  0.00    +0.277 C 
ENDBRANCH   9  19
ENDBRANCH   3   5
BRANCH   1  22
ATOM     21  C   UNL     1       1.020   1.283   0.216  0.00  0.00    -0.004 C 
ATOM     22  C   UNL     1       1.648  -0.111   0.161  0.00  0.00    +0.017 C 
BRANCH  22  23
ATOM     23  N   UNL     1       0.850  -1.040   0.973  0.00  0.00    +0.389 N 
ATOM     24  C   UNL     1       1.506  -2.353   0.998  0.00  0.00    -0.059 C 
ATOM     25  C   UNL     1       0.619  -3.352   1.748  0.00  0.00    +0.086 C 
ATOM     26  N   UNL     1       0.315  -2.800   3.077  0.00  0.00    -0.331 N 
ATOM     27  C   UNL     1      -0.195  -1.422   3.155  0.00  0.00    +0.086 C 
ATOM     28  C   UNL     1       0.731  -0.514   2.339  0.00  0.00    -0.059 C 
ATOM     29  H   UNL     1      -0.070  -1.133   0.569  0.00  0.00    -0.081 HD
BRANCH  26  30
ATOM     30  C   UNL     1       0.506  -3.563   4.235  0.00  0.00    +0.072 A 
ATOM     31  C   UNL     1       1.723  -3.527   4.899  0.00  0.00    +0.027 A 
ATOM     32  C   UNL     1       1.909  -4.282   6.042  0.00  0.00    +0.002 A 
ATOM     33  C   UNL     1       0.883  -5.074   6.526  0.00  0.00    +0.004 A 
ATOM     34  C   UNL     1      -0.333  -5.114   5.869  0.00  0.00    +0.047 A 
ATOM     35  C   UNL     1      -0.528  -4.357   4.726  0.00  0.00    +0.141 A 
BRANCH  35  36
ATOM     36  O   UNL     1      -1.726  -4.392   4.082  0.00  0.00    -0.493 OA
ATOM     37  C   UNL     1      -2.740  -5.229   4.642  0.00  0.00    +0.277 C 
ENDBRANCH  35  36
ENDBRANCH  26  30
ENDBRANCH  22  23
ENDBRANCH   1  22
TORSDOF 8
