REMARK  Name = ZINC02363115
REMARK  5 active torsions:
REMARK  status: ('A' for Active; 'I' for Inactive)
REMARK    1  A    between atoms: C_1  and  C_2
REMARK    2  A    between atoms: C_3  and  N_9
REMARK    3  A    between atoms: C_10  and  C_12
REMARK    4  A    between atoms: C_22  and  C_24
REMARK    5  A    between atoms: C_22  and  C_25
REMARK                            x       y       z     vdW  Elec       q    Type
REMARK                         _______ _______ _______ _____ _____    ______ ____
ROOT
ATOM      1  C   UNL     1       0.192   0.111  -4.876  0.00  0.00    +0.119 C 
ATOM      2  C   UNL     1      -1.057   0.975  -5.052  0.00  0.00    +0.115 C 
ATOM      3  C   UNL     1      -2.216   0.097  -5.446  0.00  0.00    +0.237 C 
ATOM      4  O   UNL     1      -3.318   0.311  -4.980  0.00  0.00    -0.274 OA
ATOM      5  N   UNL     1      -2.046  -0.907  -6.296  0.00  0.00    -0.185 NA
ATOM      6  C   UNL     1      -0.852  -1.336  -6.658  0.00  0.00    +0.042 C 
ATOM      7  C   UNL     1       0.302  -0.862  -6.027  0.00  0.00    +0.026 C 
ATOM      8  C   UNL     1       1.535  -1.258  -6.423  0.00  0.00    +0.162 C 
ATOM      9  C   UNL     1       1.714  -2.248  -7.542  0.00  0.00    +0.086 C 
ATOM     10  C   UNL     1       0.517  -3.205  -7.553  0.00  0.00    -0.023 C 
ATOM     11  C   UNL     1      -0.758  -2.382  -7.743  0.00  0.00    +0.060 C 
ATOM     12  C   UNL     1       0.450  -3.961  -6.224  0.00  0.00    +0.011 C 
ATOM     13  C   UNL     1       0.664  -4.198  -8.707  0.00  0.00    +0.011 C 
ATOM     14  O   UNL     1       2.619  -0.756  -5.805  0.00  0.00    -0.292 OA
ENDROOT
BRANCH   1  16
ATOM     15  N   UNL     1      -0.010   0.011  -2.413  0.00  0.00    -0.285 N 
ATOM     16  C   UNL     1       0.095  -0.653  -3.581  0.00  0.00    +0.225 C 
ATOM     17  O   UNL     1       0.112  -1.866  -3.590  0.00  0.00    -0.275 OA
ATOM     18  H   UNL     1      -0.104   0.977  -2.411  0.00  0.00    +0.155 HD
BRANCH  15  21
ATOM     19  C   UNL     1      -1.263   1.190  -0.146  0.00  0.00    +0.047 C 
ATOM     20  C   UNL     1      -0.583  -0.153  -0.073  0.00  0.00    -0.011 A 
ATOM     21  C   UNL     1       0.017  -0.692  -1.204  0.00  0.00    +0.038 A 
ATOM     22  C   UNL     1       0.642  -1.929  -1.132  0.00  0.00    +0.023 A 
ATOM     23  C   UNL     1       0.667  -2.621   0.064  0.00  0.00    +0.003 A 
ATOM     24  C   UNL     1       0.069  -2.084   1.188  0.00  0.00    +0.020 A 
ATOM     25  C   UNL     1      -0.551  -0.848   1.122  0.00  0.00    +0.046 A 
ATOM     26 CL   UNL     1      -1.293  -0.172   2.538  0.00  0.00    -0.083 Cl
ENDBRANCH  15  21
ENDBRANCH   1  16
TORSDOF 2
