REMARK  Name = ZINC39962634
REMARK  9 active torsions:
REMARK  status: ('A' for Active; 'I' for Inactive)
REMARK    1  A    between atoms: C_1  and  C_2
REMARK    2  A    between atoms: C_2  and  O_3
REMARK    3  A    between atoms: O_3  and  C_4
REMARK    4  A    between atoms: C_4  and  C_6
REMARK    5  A    between atoms: C_8  and  N_17
REMARK    6  A    between atoms: C_18  and  C_20
REMARK    7  A    between atoms: C_20  and  N_21
REMARK    8  A    between atoms: N_21  and  C_22
REMARK    9  A    between atoms: C_30  and  N_37
REMARK                            x       y       z     vdW  Elec       q    Type
REMARK                         _______ _______ _______ _____ _____    ______ ____
ROOT
ATOM      1  N   UNL     1      -2.621  -2.340  -5.969  0.00  0.00    +0.390 N 
ATOM      2  H   UNL     1      -2.710  -3.340  -5.867  0.00  0.00    -0.084 HD
ATOM      3  H   UNL     1      -3.527  -1.940  -6.162  0.00  0.00    -0.084 HD
ENDROOT
BRANCH   1   4
ATOM      4  C   UNL     1      -1.707  -2.041  -7.080  0.00  0.00    -0.023 C 
ATOM      5  C   UNL     1      -1.673  -0.528  -7.325  0.00  0.00    -0.009 C 
ATOM      6  C   UNL     1      -0.923  -0.241  -8.629  0.00  0.00    +0.003 C 
ATOM      7  C   UNL     1      -1.770  -0.715  -9.816  0.00  0.00    +0.037 C 
ATOM      8  C   UNL     1      -2.223  -2.128  -9.549  0.00  0.00    -0.021 A 
ATOM      9  C   UNL     1      -2.754  -3.096 -10.486  0.00  0.00    +0.005 A 
ATOM     10  C   UNL     1      -3.010  -3.046 -11.859  0.00  0.00    +0.043 A 
ATOM     11  C   UNL     1      -3.529  -4.179 -12.436  0.00  0.00    +0.127 A 
ATOM     12  C   UNL     1      -3.791  -5.324 -11.703  0.00  0.00    +0.035 A 
ATOM     13  C   UNL     1      -3.547  -5.402 -10.342  0.00  0.00    +0.028 A 
ATOM     14  C   UNL     1      -3.021  -4.267  -9.730  0.00  0.00    +0.047 A 
ATOM     15  N   UNL     1      -2.670  -4.003  -8.437  0.00  0.00    -0.359 N 
ATOM     16  C   UNL     1      -2.193  -2.725  -8.335  0.00  0.00    +0.006 A 
ATOM     17  H   UNL     1      -2.746  -4.629  -7.700  0.00  0.00    +0.166 HD
BRANCH  11  18
ATOM     18  N   UNL     1      -3.818  -4.176 -13.888  0.00  0.00    +0.056 N 
ATOM     19  O   UNL     1      -3.597  -3.187 -14.546  0.00  0.00    -0.126 OA
ATOM     20  O   UNL     1      -4.275  -5.163 -14.415  0.00  0.00    -0.126 OA
ENDBRANCH  11  18
ENDBRANCH   1   4
BRANCH   1  21
ATOM     21  C   UNL     1      -2.087  -1.766  -4.727  0.00  0.00    +0.016 C 
BRANCH  21  23
ATOM     22  N   UNL     1      -2.737  -1.643  -2.344  0.00  0.00    -0.304 N 
ATOM     23  C   UNL     1      -3.025  -2.073  -3.588  0.00  0.00    +0.197 C 
ATOM     24  O   UNL     1      -4.038  -2.708  -3.791  0.00  0.00    -0.278 OA
ATOM     25  H   UNL     1      -1.926  -1.135  -2.181  0.00  0.00    +0.150 HD
BRANCH  22  27
ATOM     26  C   UNL     1      -2.881  -2.427   0.017  0.00  0.00    +0.155 C 
ATOM     27  C   UNL     1      -3.649  -1.941  -1.236  0.00  0.00    +0.153 C 
ATOM     28  S   UNL     1      -4.638  -3.460  -1.564  0.00  0.00    -0.106 S 
ATOM     29  C   UNL     1      -3.614  -4.627  -0.699  0.00  0.00    -0.013 C 
ATOM     30  C   UNL     1      -2.771  -3.930   0.050  0.00  0.00    -0.044 C 
ATOM     31  C   UNL     1      -1.727  -4.632   0.916  0.00  0.00    +0.032 C 
ATOM     32  C   UNL     1      -2.142  -6.088   1.122  0.00  0.00    +0.005 C 
ATOM     33  C   UNL     1      -2.421  -6.737  -0.238  0.00  0.00    +0.005 C 
ATOM     34  C   UNL     1      -3.701  -6.123  -0.811  0.00  0.00    +0.042 C 
BRANCH  26  35
ATOM     35  C   UNL     1      -1.496  -1.832   0.006  0.00  0.00    +0.317 C 
ATOM     36  O   UNL     1      -0.528  -2.555  -0.007  0.00  0.00    -0.250 OA
BRANCH  35  37
ATOM     37  O   UNL     1      -1.339  -0.499   0.012  0.00  0.00    -0.464 OA
BRANCH  37  39
ATOM     38  C   UNL     1      -0.019   1.526   0.010  0.00  0.00    +0.048 C 
ATOM     39  C   UNL     1       0.002  -0.004   0.002  0.00  0.00    +0.229 C 
ENDBRANCH  37  39
ENDBRANCH  35  37
ENDBRANCH  26  35
ENDBRANCH  22  27
ENDBRANCH  21  23
ENDBRANCH   1  21
TORSDOF 8
