REMARK  Name = ZINC64591875
REMARK  7 active torsions:
REMARK  status: ('A' for Active; 'I' for Inactive)
REMARK    1  A    between atoms: C_1  and  C_2
REMARK    2  A    between atoms: C_5  and  S_9
REMARK    3  A    between atoms: S_9  and  N_12
REMARK    4  A    between atoms: N_12  and  C_13
REMARK    5  A    between atoms: C_18  and  C_19
REMARK    6  A    between atoms: N_20  and  C_25
REMARK    7  A    between atoms: N_23  and  C_24
REMARK                            x       y       z     vdW  Elec       q    Type
REMARK                         _______ _______ _______ _____ _____    ______ ____
ROOT
ATOM      1  N   UNL     1       1.651  -5.001  -0.037  0.00  0.00    -0.216 N 
ATOM      2  H   UNL     1       2.008  -5.477  -0.803  0.00  0.00    +0.174 HD
ENDROOT
BRANCH   1   3
ATOM      3  C   UNL     1       2.498  -4.625   1.011  0.00  0.00    +0.053 A 
ATOM      4  C   UNL     1       2.034  -4.645   2.318  0.00  0.00    +0.052 A 
ATOM      5  C   UNL     1       2.876  -4.272   3.353  0.00  0.00    +0.071 A 
ATOM      6  C   UNL     1       4.187  -3.878   3.078  0.00  0.00    +0.070 A 
ATOM      7  C   UNL     1       4.645  -3.860   1.770  0.00  0.00    +0.033 A 
ATOM      8  C   UNL     1       3.805  -4.238   0.740  0.00  0.00    -0.026 A 
ATOM      9  C   UNL     1       4.306  -4.224  -0.681  0.00  0.00    +0.046 C 
ATOM     10  N   UNL     1       4.779  -3.567   4.303  0.00  0.00    -0.295 N 
ATOM     11  C   UNL     1       3.869  -3.763   5.275  0.00  0.00    +0.330 A 
ATOM     12  O   UNL     1       4.062  -3.583   6.463  0.00  0.00    -0.246 OA
ATOM     13  N   UNL     1       2.712  -4.188   4.734  0.00  0.00    -0.295 N 
ATOM     14  C   UNL     1       1.487  -4.508   5.472  0.00  0.00    +0.154 C 
ATOM     15  C   UNL     1       6.156  -3.106   4.497  0.00  0.00    +0.154 C 
ENDBRANCH   1   3
BRANCH   1  16
ATOM     16  S   UNL     1       0.037  -4.633   0.030  0.00  0.00    +0.072 S 
ATOM     17  O   UNL     1      -0.444  -5.137   1.268  0.00  0.00    -0.150 OA
ATOM     18  O   UNL     1      -0.520  -5.020  -1.219  0.00  0.00    -0.150 OA
BRANCH  16  23
ATOM     19  C   UNL     1      -0.412   1.379   0.323  0.00  0.00    +0.047 C 
ATOM     20  C   UNL     1      -0.299  -0.122   0.251  0.00  0.00    -0.015 A 
ATOM     21  C   UNL     1      -0.284  -0.756  -0.978  0.00  0.00    +0.008 A 
ATOM     22  C   UNL     1      -0.181  -2.132  -1.045  0.00  0.00    +0.029 A 
ATOM     23  C   UNL     1      -0.093  -2.877   0.117  0.00  0.00    +0.111 A 
ATOM     24  C   UNL     1      -0.108  -2.246   1.346  0.00  0.00    +0.067 A 
ATOM     25  C   UNL     1      -0.206  -0.867   1.414  0.00  0.00    +0.128 A 
ATOM     26  F   UNL     1      -0.216  -0.248   2.615  0.00  0.00    -0.205 F 
ENDBRANCH  16  23
ENDBRANCH   1  16
TORSDOF 3
