REMARK  Name = ZINC67336199
REMARK  4 active torsions:
REMARK  status: ('A' for Active; 'I' for Inactive)
REMARK    1  A    between atoms: C_4  and  S_7
REMARK    2  A    between atoms: S_7  and  C_10
REMARK    3  A    between atoms: C_15  and  N_16
REMARK    4  A    between atoms: C_20  and  N_23
REMARK                            x       y       z     vdW  Elec       q    Type
REMARK                         _______ _______ _______ _____ _____    ______ ____
ROOT
ATOM      1  C   UNL     1       4.233  -0.957   1.738  0.00  0.00    +0.151 A 
ATOM      2  C   UNL     1       4.452  -2.195   2.309  0.00  0.00    +0.145 A 
ATOM      3  N   UNL     1       5.100  -2.271   3.463  0.00  0.00    -0.221 NA
ATOM      4  C   UNL     1       5.537  -1.178   4.071  0.00  0.00    +0.220 A 
ATOM      5  N   UNL     1       5.348   0.027   3.556  0.00  0.00    -0.198 NA
ATOM      6  C   UNL     1       4.711   0.176   2.399  0.00  0.00    +0.147 A 
ATOM      7  N   UNL     1       6.210  -1.300   5.275  0.00  0.00    -0.300 N 
ATOM      8  C   UNL     1       6.703  -0.109   5.980  0.00  0.00    +0.106 C 
ATOM      9  C   UNL     1       6.170  -0.129   7.416  0.00  0.00    +0.004 C 
ATOM     10  C   UNL     1       6.551  -1.455   8.078  0.00  0.00    -0.066 C 
ATOM     11  C   UNL     1       5.913  -2.614   7.309  0.00  0.00    +0.004 C 
ATOM     12  C   UNL     1       6.438  -2.621   5.875  0.00  0.00    +0.106 C 
ENDROOT
BRANCH  10  13
ATOM     13  N   UNL     1       6.070  -1.465   9.466  0.00  0.00    +0.382 N 
ATOM     14  C   UNL     1       6.678  -0.349  10.201  0.00  0.00    -0.078 C 
ATOM     15  C   UNL     1       6.118  -0.305  11.625  0.00  0.00    -0.019 C 
ATOM     16  C   UNL     1       6.442  -1.623  12.335  0.00  0.00    -0.004 C 
ATOM     17  C   UNL     1       5.868  -2.785  11.521  0.00  0.00    -0.019 C 
ATOM     18  C   UNL     1       6.436  -2.737  10.101  0.00  0.00    -0.078 C 
ATOM     19  H   UNL     1       5.066  -1.363   9.474  0.00  0.00    -0.081 HD
ENDBRANCH  10  13
BRANCH   1  20
ATOM     20  S   UNL     1       3.377  -0.812   0.204  0.00  0.00    +0.030 S 
ATOM     21  O   UNL     1       3.011  -2.129  -0.183  0.00  0.00    -0.164 OA
ATOM     22  O   UNL     1       4.165   0.034  -0.622  0.00  0.00    -0.164 OA
BRANCH  20  26
ATOM     23  C   UNL     1      -0.478   1.413   1.028  0.00  0.00    +0.000 A 
ATOM     24  C   UNL     1       0.637   2.102   0.588  0.00  0.00    +0.002 A 
ATOM     25  C   UNL     1       1.814   1.422   0.336  0.00  0.00    +0.027 A 
ATOM     26  C   UNL     1       1.877   0.054   0.526  0.00  0.00    +0.094 A 
ATOM     27  C   UNL     1       0.762  -0.634   0.967  0.00  0.00    +0.027 A 
ATOM     28  C   UNL     1      -0.416   0.045   1.217  0.00  0.00    +0.002 A 
ENDBRANCH  20  26
ENDBRANCH   1  20
BRANCH   6  29
ATOM     29  N   UNL     1       4.519   1.438   1.860  0.00  0.00    -0.341 N 
ATOM     30  H   UNL     1       4.151   1.533   0.968  0.00  0.00    +0.144 HD
ATOM     31  H   UNL     1       4.752   2.226   2.375  0.00  0.00    +0.144 HD
ENDBRANCH   6  29
TORSDOF 4
