REMARK  Name = ZINC24902441
REMARK  11 active torsions:
REMARK  status: ('A' for Active; 'I' for Inactive)
REMARK    1  A    between atoms: C_1  and  C_2
REMARK    2  A    between atoms: C_2  and  O_3
REMARK    3  A    between atoms: O_3  and  C_4
REMARK    4  A    between atoms: C_4  and  C_6
REMARK    5  A    between atoms: C_7  and  C_21
REMARK    6  A    between atoms: C_12  and  C_14
REMARK    7  A    between atoms: C_21  and  S_22
REMARK    8  A    between atoms: S_22  and  C_23
REMARK    9  A    between atoms: C_25  and  C_32
REMARK   10  A    between atoms: C_26  and  C_28
REMARK   11  A    between atoms: C_28  and  C_29
REMARK                            x       y       z     vdW  Elec       q    Type
REMARK                         _______ _______ _______ _____ _____    ______ ____
ROOT
ATOM      1  C   UNL     1       2.292   4.206   1.162  0.00  0.00    +0.079 C 
ATOM      2  C   UNL     1       1.925   3.596   0.014  0.00  0.00    +0.034 C 
ATOM      3  N   UNL     1       1.811   4.298  -1.152  0.00  0.00    -0.272 N 
ATOM      4  C   UNL     1       2.053   5.611  -1.255  0.00  0.00    +0.304 C 
ATOM      5  O   UNL     1       1.925   6.149  -2.337  0.00  0.00    -0.252 OA
ATOM      6  N   UNL     1       2.433   6.355  -0.198  0.00  0.00    -0.288 N 
ATOM      7  C   UNL     1       2.584   5.692   1.108  0.00  0.00    +0.144 C 
ATOM      8  H   UNL     1       1.506   3.784  -2.075  0.00  0.00    +0.156 HD
ATOM      9  H   UNL     1       2.629   7.434  -0.293  0.00  0.00    +0.151 HD
ENDROOT
BRANCH   7  10
ATOM     10  C   UNL     1       4.000   5.908   1.578  0.00  0.00    -0.022 A 
ATOM     11  C   UNL     1       5.046   5.831   0.677  0.00  0.00    +0.007 A 
ATOM     12  C   UNL     1       6.344   6.035   1.107  0.00  0.00    +0.020 A 
ATOM     13  C   UNL     1       6.597   6.305   2.439  0.00  0.00    +0.041 A 
ATOM     14  C   UNL     1       5.550   6.377   3.341  0.00  0.00    +0.020 A 
ATOM     15  C   UNL     1       4.252   6.179   2.910  0.00  0.00    +0.007 A 
ATOM     16 CL   UNL     1       8.228   6.555   2.980  0.00  0.00    -0.084 Cl
ENDBRANCH   7  10
BRANCH   1  17
ATOM     17  C   UNL     1       2.404   3.482   2.371  0.00  0.00    +0.339 C 
ATOM     18  O   UNL     1       2.313   2.268   2.365  0.00  0.00    -0.245 OA
BRANCH  17  19
ATOM     19  O   UNL     1       2.613   4.136   3.533  0.00  0.00    -0.462 OA
BRANCH  19  21
ATOM     20  C   UNL     1       2.951   4.252   5.923  0.00  0.00    +0.048 C 
ATOM     21  C   UNL     1       2.717   3.341   4.716  0.00  0.00    +0.229 C 
ENDBRANCH  19  21
ENDBRANCH  17  19
ENDBRANCH   1  17
BRANCH   2  22
ATOM     22  C   UNL     1       1.630   2.119   0.022  0.00  0.00    +0.127 C 
BRANCH  22  23
ATOM     23  S   UNL     1       3.071   1.212  -0.593  0.00  0.00    -0.093 S 
BRANCH  23  24
ATOM     24  C   UNL     1       2.466  -0.438  -0.480  0.00  0.00    +0.135 A 
ATOM     25  N   UNL     1       1.290  -0.864  -0.055  0.00  0.00    -0.238 NA
ATOM     26  C   UNL     1       0.995  -2.150  -0.039  0.00  0.00    +0.050 A 
ATOM     27  C   UNL     1       1.932  -3.033  -0.460  0.00  0.00    +0.022 A 
ATOM     28  S   UNL     1       3.265  -1.924  -0.890  0.00  0.00    -0.065 S 
ATOM     29  C   UNL     1      -0.351  -2.625   0.443  0.00  0.00    +0.066 C 
BRANCH  27  30
ATOM     30  C   UNL     1       1.867  -4.536  -0.541  0.00  0.00    +0.139 C 
BRANCH  30  31
ATOM     31  C   UNL     1       1.339  -4.944  -1.893  0.00  0.00    +0.215 C 
ATOM     32  O   UNL     1       1.045  -4.097  -2.709  0.00  0.00    -0.276 OA
ATOM     33  N   UNL     1       1.195  -6.250  -2.194  0.00  0.00    -0.329 N 
ATOM     34  H   UNL     1       0.810  -6.547  -3.180  0.00  0.00    +0.145 HD
ATOM     35  H   UNL     1       1.463  -7.018  -1.453  0.00  0.00    +0.145 HD
ENDBRANCH  30  31
ENDBRANCH  27  30
ENDBRANCH  23  24
ENDBRANCH  22  23
ENDBRANCH   2  22
TORSDOF 9
