REMARK  Name = ZINC08695201
REMARK  16 active torsions:
REMARK  status: ('A' for Active; 'I' for Inactive)
REMARK    1  A    between atoms: C_1  and  C_2
REMARK    2  A    between atoms: C_2  and  C_3
REMARK    3  A    between atoms: C_3  and  C_4
REMARK    4  A    between atoms: C_4  and  N_69
REMARK    5  A    between atoms: C_5  and  C_6
REMARK    6  A    between atoms: C_5  and  N_69
REMARK    7  A    between atoms: C_6  and  C_7
REMARK    8  A    between atoms: C_7  and  C_8
REMARK    9  A    between atoms: C_9  and  C_10
REMARK   10  A    between atoms: C_9  and  N_69
REMARK   11  A    between atoms: C_10  and  C_11
REMARK   12  A    between atoms: C_11  and  N_12
REMARK   13  A    between atoms: C_13  and  C_28
REMARK   14  A    between atoms: C_15  and  C_20
REMARK   15  A    between atoms: C_16  and  O_19
REMARK   16  A    between atoms: C_20  and  C_22
REMARK                            x       y       z     vdW  Elec       q    Type
REMARK                         _______ _______ _______ _____ _____    ______ ____
ROOT
ATOM      1  N   UNL     1       0.021  -2.827  -3.912  0.00  0.00    -0.284 N 
ATOM      2  C   UNL     1      -1.016  -3.731  -4.423  0.00  0.00    +0.146 C 
ATOM      3  C   UNL     1      -0.884  -5.013  -3.634  0.00  0.00    +0.071 C 
ATOM      4  C   UNL     1       0.137  -4.832  -2.764  0.00  0.00    +0.188 C 
ATOM      5  C   UNL     1       0.697  -3.476  -2.946  0.00  0.00    +0.282 C 
ATOM      6  O   UNL     1       1.627  -3.015  -2.316  0.00  0.00    -0.267 OA
ENDROOT
BRANCH   2   7
ATOM      7  C   UNL     1      -0.794  -3.999  -5.889  0.00  0.00    -0.004 A 
ATOM      8  C   UNL     1       0.482  -3.936  -6.417  0.00  0.00    +0.008 A 
ATOM      9  C   UNL     1       0.687  -4.182  -7.761  0.00  0.00    +0.020 A 
ATOM     10  C   UNL     1      -0.385  -4.492  -8.580  0.00  0.00    +0.042 A 
ATOM     11  C   UNL     1      -1.662  -4.556  -8.052  0.00  0.00    +0.040 A 
ATOM     12  C   UNL     1      -1.866  -4.315  -6.704  0.00  0.00    +0.048 A 
ATOM     13 CL   UNL     1      -3.467  -4.403  -6.039  0.00  0.00    -0.083 Cl
ATOM     14 CL   UNL     1      -0.128  -4.801 -10.268  0.00  0.00    -0.083 Cl
ENDBRANCH   2   7
BRANCH   4  15
ATOM     15  O   UNL     1       0.579  -5.749  -1.872  0.00  0.00    -0.502 OA
ATOM     16  H   UNL     1       1.342  -5.366  -1.351  0.00  0.00    +0.292 HD
ENDBRANCH   4  15
BRANCH   3  17
ATOM     17  C   UNL     1      -1.703  -6.219  -3.782  0.00  0.00    +0.195 C 
ATOM     18  O   UNL     1      -1.201  -7.250  -4.189  0.00  0.00    -0.287 OA
BRANCH  17  19
ATOM     19  C   UNL     1      -3.141  -6.184  -3.437  0.00  0.00    +0.022 A 
ATOM     20  C   UNL     1      -3.694  -5.041  -2.855  0.00  0.00    +0.012 A 
ATOM     21  C   UNL     1      -5.037  -5.013  -2.541  0.00  0.00    +0.001 A 
ATOM     22  C   UNL     1      -5.833  -6.117  -2.791  0.00  0.00    +0.000 A 
ATOM     23  C   UNL     1      -5.290  -7.254  -3.362  0.00  0.00    +0.001 A 
ATOM     24  C   UNL     1      -3.950  -7.294  -3.686  0.00  0.00    +0.012 A 
ENDBRANCH  17  19
ENDBRANCH   3  17
BRANCH   1  25
ATOM     25  C   UNL     1       0.279  -1.462  -4.376  0.00  0.00    +0.107 C 
BRANCH  25  26
ATOM     26  C   UNL     1      -0.557  -0.477  -3.556  0.00  0.00    +0.000 C 
BRANCH  26  27
ATOM     27  C   UNL     1      -0.287   0.949  -4.041  0.00  0.00    -0.077 C 
BRANCH  27  28
ATOM     28  N   UNL     1      -1.118   1.885  -3.254  0.00  0.00    +0.380 N 
ATOM     29  H   UNL     1      -2.094   1.565  -3.278  0.00  0.00    -0.082 HD
BRANCH  28  30
ATOM     30  C   UNL     1      -0.655   1.913  -1.851  0.00  0.00    -0.079 C 
BRANCH  30  31
ATOM     31  C   UNL     1      -1.770   2.496  -0.979  0.00  0.00    -0.019 C 
BRANCH  31  33
ATOM     32  C   UNL     1      -2.413   3.143   1.347  0.00  0.00    +0.004 C 
ATOM     33  C   UNL     1      -1.299   2.560   0.475  0.00  0.00    -0.005 C 
ENDBRANCH  31  33
ENDBRANCH  30  31
ENDBRANCH  28  30
BRANCH  28  34
ATOM     34  C   UNL     1      -1.042   3.240  -3.839  0.00  0.00    -0.079 C 
BRANCH  34  35
ATOM     35  C   UNL     1      -1.858   3.263  -5.133  0.00  0.00    -0.019 C 
BRANCH  35  36
ATOM     36  C   UNL     1      -1.909   4.692  -5.678  0.00  0.00    -0.005 C 
ATOM     37  C   UNL     1      -2.724   4.715  -6.973  0.00  0.00    +0.004 C 
ENDBRANCH  35  36
ENDBRANCH  34  35
ENDBRANCH  28  34
ENDBRANCH  27  28
ENDBRANCH  26  27
ENDBRANCH  25  26
ENDBRANCH   1  25
TORSDOF 14
