REMARK  Name = ZINC12234823
REMARK  1 active torsions:
REMARK  status: ('A' for Active; 'I' for Inactive)
REMARK    1  A    between atoms: C_8  and  C_10
REMARK                            x       y       z     vdW  Elec       q    Type
REMARK                         _______ _______ _______ _____ _____    ______ ____
ROOT
ATOM      1  C   UNL     1      -1.678   7.239   0.056  0.00  0.00    +0.276 C 
ATOM      2  O   UNL     1      -0.783   8.062   0.049  0.00  0.00    -0.267 OA
ATOM      3  N   UNL     1      -2.962   7.639  -0.032  0.00  0.00    -0.255 N 
ATOM      4  C   UNL     1      -4.063   6.664  -0.035  0.00  0.00    +0.210 C 
ATOM      5  C   UNL     1      -5.084   7.073  -1.060  0.00  0.00    +0.235 C 
ATOM      6  O   UNL     1      -5.760   6.224  -1.603  0.00  0.00    -0.274 OA
ATOM      7  N   UNL     1      -5.255   8.368  -1.385  0.00  0.00    -0.283 N 
ATOM      8  C   UNL     1      -4.455   9.361  -0.810  0.00  0.00    +0.055 A 
ATOM      9  C   UNL     1      -3.291   8.999  -0.128  0.00  0.00    +0.058 A 
ATOM     10  C   UNL     1      -2.487   9.971   0.439  0.00  0.00    +0.025 A 
ATOM     11  C   UNL     1      -2.840  11.304   0.330  0.00  0.00    +0.002 A 
ATOM     12  C   UNL     1      -3.994  11.665  -0.342  0.00  0.00    +0.002 A 
ATOM     13  C   UNL     1      -4.802  10.698  -0.913  0.00  0.00    +0.025 A 
ATOM     14  H   UNL     1      -5.941   8.615  -2.025  0.00  0.00    +0.155 HD
ENDROOT
BRANCH   1  22
ATOM     15  C   UNL     1       1.140   1.778   0.264  0.00  0.00    +0.002 A 
ATOM     16  C   UNL     1      -0.045   1.081   0.469  0.00  0.00    +0.001 A 
ATOM     17  C   UNL     1      -1.237   1.775   0.534  0.00  0.00    +0.017 A 
ATOM     18  C   UNL     1      -1.229   3.144   0.404  0.00  0.00    +0.040 A 
ATOM     19  C   UNL     1      -0.037   3.884   0.194  0.00  0.00    +0.079 A 
ATOM     20  C   UNL     1       1.161   3.128   0.129  0.00  0.00    +0.029 A 
ATOM     21  N   UNL     1      -0.188   5.207   0.082  0.00  0.00    -0.234 NA
ATOM     22  C   UNL     1      -1.359   5.800   0.159  0.00  0.00    +0.164 A 
ATOM     23  S   UNL     1      -2.465   4.420   0.422  0.00  0.00    -0.063 S 
ENDBRANCH   1  22
TORSDOF 1
