REMARK  Name = ZINC09845992
REMARK  12 active torsions:
REMARK  status: ('A' for Active; 'I' for Inactive)
REMARK    1  A    between atoms: C_1  and  C_2
REMARK    2  A    between atoms: C_5  and  C_35
REMARK    3  A    between atoms: C_6  and  N_8
REMARK    4  A    between atoms: N_8  and  C_9
REMARK    5  A    between atoms: N_8  and  S_26
REMARK    6  A    between atoms: C_9  and  C_10
REMARK    7  A    between atoms: N_12  and  N_13
REMARK    8  A    between atoms: C_14  and  C_15
REMARK    9  A    between atoms: C_18  and  O_21
REMARK   10  A    between atoms: O_21  and  C_22
REMARK   11  A    between atoms: C_22  and  C_23
REMARK   12  A    between atoms: S_26  and  C_29
REMARK                            x       y       z     vdW  Elec       q    Type
REMARK                         _______ _______ _______ _____ _____    ______ ____
ROOT
ATOM      1  C   UNL     1       5.011  -0.367  -1.740  0.00  0.00    +0.228 C 
ENDROOT
BRANCH   1   2
ATOM      2  C   UNL     1       6.397  -0.892  -1.468  0.00  0.00    +0.251 C 
ATOM      3  O   UNL     1       6.544  -1.956  -0.905  0.00  0.00    -0.272 OA
ATOM      4  N   UNL     1       7.475  -0.179  -1.852  0.00  0.00    -0.206 N 
ATOM      5  H   UNL     1       7.358   0.672  -2.302  0.00  0.00    +0.177 HD
BRANCH   4   6
ATOM      6  N   UNL     1       8.764  -0.667  -1.599  0.00  0.00    -0.188 NA
ATOM      7  C   UNL     1       9.802   0.019  -1.969  0.00  0.00    +0.138 C 
BRANCH   7   8
ATOM      8  C   UNL     1      11.158  -0.494  -1.703  0.00  0.00    -0.005 A 
ATOM      9  C   UNL     1      11.328  -1.717  -1.049  0.00  0.00    +0.013 A 
ATOM     10  C   UNL     1      12.598  -2.195  -0.807  0.00  0.00    +0.046 A 
ATOM     11  C   UNL     1      13.707  -1.459  -1.203  0.00  0.00    +0.121 A 
ATOM     12  C   UNL     1      13.542  -0.240  -1.849  0.00  0.00    +0.046 A 
ATOM     13  C   UNL     1      12.277   0.243  -2.100  0.00  0.00    +0.013 A 
BRANCH  11  14
ATOM     14  O   UNL     1      14.957  -1.932  -0.958  0.00  0.00    -0.483 OA
BRANCH  14  15
ATOM     15  C   UNL     1      15.054  -3.191  -0.290  0.00  0.00    +0.324 C 
BRANCH  15  16
ATOM     16  C   UNL     1      16.506  -3.551  -0.105  0.00  0.00    +0.248 C 
ATOM     17  O   UNL     1      17.372  -2.803  -0.507  0.00  0.00    -0.272 OA
ATOM     18  N   UNL     1      16.842  -4.704   0.505  0.00  0.00    -0.327 N 
ATOM     19  H   UNL     1      16.150  -5.303   0.826  0.00  0.00    +0.145 HD
ATOM     20  H   UNL     1      17.777  -4.936   0.624  0.00  0.00    +0.145 HD
ENDBRANCH  15  16
ENDBRANCH  14  15
ENDBRANCH  11  14
ENDBRANCH   7   8
ENDBRANCH   4   6
ENDBRANCH   1   2
BRANCH   1  21
ATOM     21  N   UNL     1       4.020  -1.318  -1.230  0.00  0.00    -0.194 N 
BRANCH  21  27
ATOM     22  C   UNL     1       4.685  -5.964  -2.690  0.00  0.00    +0.044 C 
ATOM     23  C   UNL     1       3.924  -4.664  -2.747  0.00  0.00    -0.049 A 
ATOM     24  C   UNL     1       2.827  -4.542  -3.580  0.00  0.00    +0.004 A 
ATOM     25  C   UNL     1       2.126  -3.351  -3.635  0.00  0.00    +0.005 A 
ATOM     26  C   UNL     1       2.516  -2.281  -2.853  0.00  0.00    -0.028 A 
ATOM     27  C   UNL     1       3.620  -2.399  -2.019  0.00  0.00    +0.055 A 
ATOM     28  C   UNL     1       4.322  -3.597  -1.966  0.00  0.00    +0.028 A 
ATOM     29  C   UNL     1       1.748  -0.986  -2.909  0.00  0.00    +0.046 C 
ENDBRANCH  21  27
BRANCH  21  30
ATOM     30  S   UNL     1       3.375  -1.112   0.281  0.00  0.00    +0.075 S 
ATOM     31  O   UNL     1       4.237  -0.219   0.972  0.00  0.00    -0.150 OA
ATOM     32  O   UNL     1       3.069  -2.410   0.773  0.00  0.00    -0.150 OA
BRANCH  30  33
ATOM     33  C   UNL     1       1.838  -0.274   0.081  0.00  0.00    +0.109 A 
ATOM     34  C   UNL     1       0.656  -0.992   0.066  0.00  0.00    +0.029 A 
ATOM     35  C   UNL     1      -0.550  -0.334  -0.091  0.00  0.00    +0.002 A 
ATOM     36  C   UNL     1      -0.574   1.040  -0.234  0.00  0.00    +0.000 A 
ATOM     37  C   UNL     1       0.607   1.758  -0.218  0.00  0.00    +0.002 A 
ATOM     38  C   UNL     1       1.813   1.101  -0.061  0.00  0.00    +0.029 A 
ENDBRANCH  30  33
ENDBRANCH  21  30
ENDBRANCH   1  21
TORSDOF 10
