REMARK  Name = ZINC11221453
REMARK  9 active torsions:
REMARK  status: ('A' for Active; 'I' for Inactive)
REMARK    1  A    between atoms: C_1  and  C_2
REMARK    2  A    between atoms: C_2  and  O_3
REMARK    3  A    between atoms: O_3  and  C_4
REMARK    4  A    between atoms: C_4  and  C_6
REMARK    5  A    between atoms: C_7  and  C_21
REMARK    6  A    between atoms: C_12  and  C_14
REMARK    7  A    between atoms: C_21  and  S_22
REMARK    8  A    between atoms: S_22  and  C_23
REMARK    9  A    between atoms: C_26  and  C_29
REMARK                            x       y       z     vdW  Elec       q    Type
REMARK                         _______ _______ _______ _____ _____    ______ ____
ROOT
ATOM      1  C   UNL     1      -5.796   2.767   1.198  0.00  0.00    +0.079 C 
ATOM      2  C   UNL     1      -5.148   2.827   0.014  0.00  0.00    +0.034 C 
ATOM      3  N   UNL     1      -5.792   2.543  -1.156  0.00  0.00    -0.272 N 
ATOM      4  C   UNL     1      -7.079   2.183  -1.228  0.00  0.00    +0.304 C 
ATOM      5  O   UNL     1      -7.564   1.945  -2.317  0.00  0.00    -0.252 OA
ATOM      6  N   UNL     1      -7.857   2.080  -0.132  0.00  0.00    -0.288 N 
ATOM      7  C   UNL     1      -7.258   2.370   1.182  0.00  0.00    +0.144 C 
ATOM      8  H   UNL     1      -5.287   2.603  -1.982  0.00  0.00    +0.156 HD
ATOM      9  H   UNL     1      -8.789   1.821  -0.206  0.00  0.00    +0.151 HD
ENDROOT
BRANCH   7  10
ATOM     10  C   UNL     1      -7.416   1.145   2.045  0.00  0.00    -0.022 A 
ATOM     11  C   UNL     1      -7.093  -0.102   1.541  0.00  0.00    +0.007 A 
ATOM     12  C   UNL     1      -7.232  -1.225   2.333  0.00  0.00    +0.020 A 
ATOM     13  C   UNL     1      -7.705  -1.104   3.628  0.00  0.00    +0.041 A 
ATOM     14  C   UNL     1      -8.033   0.143   4.130  0.00  0.00    +0.020 A 
ATOM     15  C   UNL     1      -7.888   1.266   3.338  0.00  0.00    +0.007 A 
ATOM     16 CL   UNL     1      -7.888  -2.516   4.622  0.00  0.00    -0.084 Cl
ENDBRANCH   7  10
BRANCH   1  17
ATOM     17  C   UNL     1      -5.132   3.065   2.411  0.00  0.00    +0.339 C 
ATOM     18  O   UNL     1      -5.292   4.148   2.942  0.00  0.00    -0.245 OA
BRANCH  17  19
ATOM     19  O   UNL     1      -4.320   2.148   2.978  0.00  0.00    -0.462 OA
BRANCH  19  21
ATOM     20  C   UNL     1      -2.809   1.359   4.691  0.00  0.00    +0.048 C 
ATOM     21  C   UNL     1      -3.682   2.517   4.203  0.00  0.00    +0.229 C 
ENDBRANCH  19  21
ENDBRANCH  17  19
ENDBRANCH   1  17
BRANCH   2  22
ATOM     22  C   UNL     1      -3.693   3.218  -0.016  0.00  0.00    +0.128 C 
BRANCH  22  23
ATOM     23  S   UNL     1      -2.679   1.747  -0.301  0.00  0.00    -0.080 S 
BRANCH  23  24
ATOM     24  C   UNL     1      -1.074   2.474  -0.289  0.00  0.00    +0.190 A 
ATOM     25  N   UNL     1       0.114   1.821  -0.460  0.00  0.00    -0.316 N 
ATOM     26  H   UNL     1       0.244   0.872  -0.612  0.00  0.00    +0.169 HD
ATOM     27  C   UNL     1       1.086   2.791  -0.380  0.00  0.00    +0.165 A 
ATOM     28  N   UNL     1       0.474   3.933  -0.167  0.00  0.00    -0.128 NA
ATOM     29  N   UNL     1      -0.796   3.747  -0.111  0.00  0.00    -0.122 NA
BRANCH  27  30
ATOM     30  C   UNL     1       2.544   2.586  -0.507  0.00  0.00    +0.054 A 
ATOM     31  C   UNL     1       3.056   1.307  -0.727  0.00  0.00    +0.014 A 
ATOM     32  C   UNL     1       4.417   1.123  -0.849  0.00  0.00    +0.001 A 
ATOM     33  C   UNL     1       5.278   2.201  -0.745  0.00  0.00    +0.003 A 
ATOM     34  C   UNL     1       4.780   3.472  -0.522  0.00  0.00    +0.039 A 
ATOM     35  C   UNL     1       3.417   3.672  -0.402  0.00  0.00    +0.134 A 
ATOM     36  F   UNL     1       2.932   4.914  -0.184  0.00  0.00    -0.205 F 
ENDBRANCH  27  30
ENDBRANCH  23  24
ENDBRANCH  22  23
ENDBRANCH   2  22
TORSDOF 8
