REMARK  Name = ZINC18057181
REMARK  6 active torsions:
REMARK  status: ('A' for Active; 'I' for Inactive)
REMARK    1  A    between atoms: C_1  and  O_2
REMARK    2  A    between atoms: O_2  and  C_3
REMARK    3  A    between atoms: C_5  and  C_10
REMARK    4  A    between atoms: C_8  and  O_9
REMARK    5  A    between atoms: N_18  and  C_21
REMARK    6  A    between atoms: N_29  and  C_30
REMARK                            x       y       z     vdW  Elec       q    Type
REMARK                         _______ _______ _______ _____ _____    ______ ____
ROOT
ATOM      1  C   UNL     1      -4.871   0.257   0.037  0.00  0.00    +0.157 C 
ATOM      2  C   UNL     1      -5.540   0.185   1.405  0.00  0.00    +0.145 C 
ATOM      3  C   UNL     1      -6.388  -1.118   1.144  0.00  0.00    +0.249 C 
ATOM      4  C   UNL     1      -6.715  -1.526   2.495  0.00  0.00    +0.259 C 
ATOM      5  O   UNL     1      -7.727  -2.077   2.872  0.00  0.00    -0.272 OA
ATOM      6  N   UNL     1      -5.637  -1.157   3.256  0.00  0.00    -0.208 N 
ATOM      7  C   UNL     1      -4.780  -0.300   2.600  0.00  0.00    +0.235 C 
ATOM      8  O   UNL     1      -3.648  -0.002   2.913  0.00  0.00    -0.274 OA
ATOM      9  O   UNL     1      -6.980  -0.858  -0.061  0.00  0.00    -0.257 OA
ATOM     10  N   UNL     1      -5.880  -0.347  -0.880  0.00  0.00    -0.244 N 
ENDROOT
BRANCH   6  11
ATOM     11  C   UNL     1      -5.430  -1.593   4.573  0.00  0.00    +0.044 A 
ATOM     12  C   UNL     1      -4.313  -1.168   5.279  0.00  0.00    +0.025 A 
ATOM     13  C   UNL     1      -4.112  -1.600   6.575  0.00  0.00    +0.017 A 
ATOM     14  C   UNL     1      -5.022  -2.455   7.170  0.00  0.00    +0.018 A 
ATOM     15  C   UNL     1      -6.136  -2.881   6.468  0.00  0.00    +0.017 A 
ATOM     16  C   UNL     1      -6.345  -2.448   5.174  0.00  0.00    +0.025 A 
ATOM     17 BR   UNL     1      -4.742  -3.045   8.945  0.00  0.00    -0.050 Br
ENDBRANCH   6  11
BRANCH   1  20
ATOM     18  C   UNL     1      -1.211  -0.657   0.239  0.00  0.00    +0.162 A 
ATOM     19  C   UNL     1      -2.384   0.081   0.248  0.00  0.00    +0.055 A 
ATOM     20  C   UNL     1      -3.596  -0.546   0.027  0.00  0.00    -0.018 A 
ATOM     21  C   UNL     1      -3.642  -1.909  -0.202  0.00  0.00    +0.009 A 
ATOM     22  C   UNL     1      -2.475  -2.651  -0.212  0.00  0.00    +0.049 A 
ATOM     23  C   UNL     1      -1.256  -2.027   0.002  0.00  0.00    +0.158 A 
BRANCH  18  25
ATOM     24  C   UNL     1      -0.048   1.367   0.691  0.00  0.00    +0.277 C 
ATOM     25  O   UNL     1      -0.018  -0.042   0.455  0.00  0.00    -0.491 OA
ENDBRANCH  18  25
BRANCH  23  26
ATOM     26  O   UNL     1      -0.107  -2.754  -0.013  0.00  0.00    -0.503 OA
ATOM     27  H   UNL     1       0.144  -3.112   0.850  0.00  0.00    +0.292 HD
ENDBRANCH  23  26
ENDBRANCH   1  20
BRANCH  10  28
ATOM     28  C   UNL     1      -5.792  -0.405  -2.273  0.00  0.00    +0.065 A 
ATOM     29  C   UNL     1      -4.686   0.127  -2.923  0.00  0.00    +0.028 A 
ATOM     30  C   UNL     1      -4.602   0.068  -4.301  0.00  0.00    +0.002 A 
ATOM     31  C   UNL     1      -5.618  -0.520  -5.032  0.00  0.00    +0.000 A 
ATOM     32  C   UNL     1      -6.721  -1.050  -4.388  0.00  0.00    +0.002 A 
ATOM     33  C   UNL     1      -6.808  -0.999  -3.011  0.00  0.00    +0.028 A 
ENDBRANCH  10  28
TORSDOF 5
