REMARK  Name = ZINC04555239
REMARK  5 active torsions:
REMARK  status: ('A' for Active; 'I' for Inactive)
REMARK    1  A    between atoms: C_1  and  C_2
REMARK    2  A    between atoms: C_2  and  C_3
REMARK    3  A    between atoms: C_2  and  N_44
REMARK    4  A    between atoms: C_11  and  O_24
REMARK    5  A    between atoms: C_13  and  C_16
REMARK                            x       y       z     vdW  Elec       q    Type
REMARK                         _______ _______ _______ _____ _____    ______ ____
ROOT
ATOM      1  C   UNL     1      -1.356  -0.550   0.132  0.00  0.00    -0.073 C 
ATOM      2  C   UNL     1      -1.367  -2.032  -0.251  0.00  0.00    +0.018 C 
ATOM      3  C   UNL     1      -0.272  -2.737   0.542  0.00  0.00    -0.027 A 
ATOM      4  C   UNL     1       0.717  -2.013   1.119  0.00  0.00    -0.021 A 
ATOM      5  S   UNL     1       1.748  -3.210   1.921  0.00  0.00    -0.080 S 
ATOM      6  C   UNL     1       0.888  -4.628   1.499  0.00  0.00    +0.080 A 
ATOM      7  C   UNL     1      -0.199  -4.172   0.741  0.00  0.00    +0.067 A 
ATOM      8  C   UNL     1      -1.137  -5.197   0.215  0.00  0.00    +0.220 C 
ATOM      9  N   UNL     1      -1.020  -6.416   0.664  0.00  0.00    -0.223 NA
ATOM     10  C   UNL     1      -0.097  -6.829   1.715  0.00  0.00    +0.225 C 
ATOM     11  N   UNL     1       1.094  -5.960   1.764  0.00  0.00    -0.313 N 
ATOM     12  C   UNL     1       0.877  -0.527   1.068  0.00  0.00    -0.035 C 
ATOM     13  H   UNL     1       1.974  -6.311   1.970  0.00  0.00    +0.149 HD
ATOM     14  N   UNL     1       0.012  -0.013  -0.021  0.00  0.00    +0.384 N 
ATOM     15  H   UNL     1       0.393  -0.321  -0.924  0.00  0.00    -0.081 HD
ENDROOT
BRANCH  10  16
ATOM     16  C   UNL     1      -0.805  -6.767   3.044  0.00  0.00    +0.014 A 
ATOM     17  C   UNL     1      -2.185  -6.835   3.095  0.00  0.00    +0.009 A 
ATOM     18  C   UNL     1      -2.835  -6.779   4.314  0.00  0.00    +0.002 A 
ATOM     19  C   UNL     1      -2.107  -6.654   5.482  0.00  0.00    +0.021 A 
ATOM     20  C   UNL     1      -0.726  -6.585   5.432  0.00  0.00    +0.060 A 
ATOM     21  C   UNL     1      -0.074  -6.648   4.212  0.00  0.00    +0.066 A 
ATOM     22 CL   UNL     1       1.659  -6.571   4.148  0.00  0.00    -0.082 Cl
ATOM     23 CL   UNL     1       0.189  -6.428   6.899  0.00  0.00    -0.082 Cl
ENDBRANCH  10  16
BRANCH  14  25
ATOM     24  C   UNL     1       1.417   1.994  -0.001  0.00  0.00    -0.014 C 
ATOM     25  C   UNL     1      -0.018   1.465   0.010  0.00  0.00    -0.074 C 
ATOM     26  C   UNL     1      -0.758   1.972  -1.229  0.00  0.00    -0.014 C 
ENDBRANCH  14  25
BRANCH   8  27
ATOM     27  O   UNL     1      -2.081  -4.877  -0.700  0.00  0.00    -0.492 OA
ATOM     28  H   UNL     1      -2.635  -5.622  -0.971  0.00  0.00    +0.294 HD
ENDBRANCH   8  27
TORSDOF 3
