REMARK  Name = ZINC22310731
REMARK  8 active torsions:
REMARK  status: ('A' for Active; 'I' for Inactive)
REMARK    1  A    between atoms: C_1  and  C_2
REMARK    2  A    between atoms: C_2  and  N_3
REMARK    3  A    between atoms: C_7  and  S_26
REMARK    4  A    between atoms: C_11  and  S_12
REMARK    5  A    between atoms: S_12  and  C_13
REMARK    6  A    between atoms: C_13  and  C_14
REMARK    7  A    between atoms: N_16  and  C_17
REMARK    8  A    between atoms: S_26  and  N_29
REMARK                            x       y       z     vdW  Elec       q    Type
REMARK                         _______ _______ _______ _____ _____    ______ ____
ROOT
ATOM      1  N   UNL     1       5.367   9.502  -1.468  0.00  0.00    -0.319 N 
ATOM      2  C   UNL     1       6.746   9.586  -1.373  0.00  0.00    +0.070 A 
ATOM      3  C   UNL     1       7.666  10.598  -1.605  0.00  0.00    +0.030 A 
ATOM      4  C   UNL     1       9.012  10.359  -1.419  0.00  0.00    +0.030 A 
ATOM      5  C   UNL     1       9.453   9.112  -1.002  0.00  0.00    +0.107 A 
ATOM      6  C   UNL     1       8.554   8.095  -0.767  0.00  0.00    +0.058 A 
ATOM      7  C   UNL     1       7.187   8.321  -0.950  0.00  0.00    +0.092 A 
ATOM      8  N   UNL     1       6.084   7.541  -0.804  0.00  0.00    -0.222 NA
ATOM      9  C   UNL     1       5.013   8.233  -1.105  0.00  0.00    +0.170 A 
ENDROOT
BRANCH   5  10
ATOM     10  S   UNL     1      11.176   8.826  -0.771  0.00  0.00    +0.056 S 
ATOM     11  O   UNL     1      11.377   7.425  -0.905  0.00  0.00    -0.153 OA
ATOM     12  O   UNL     1      11.857   9.774  -1.581  0.00  0.00    -0.153 OA
BRANCH  10  13
ATOM     13  N   UNL     1      11.529   9.206   0.802  0.00  0.00    -0.204 NA
ATOM     14  H   UNL     1      12.600   9.041   0.988  0.00  0.00    +0.144 HD
ATOM     15  H   UNL     1      10.937   8.569   1.475  0.00  0.00    +0.144 HD
ENDBRANCH  10  13
ENDBRANCH   5  10
BRANCH   1  17
ATOM     16  C   UNL     1       4.023  11.374  -0.649  0.00  0.00    +0.027 C 
ATOM     17  C   UNL     1       4.457  10.574  -1.879  0.00  0.00    +0.121 C 
ENDBRANCH   1  17
BRANCH   9  18
ATOM     18  S   UNL     1       3.363   7.617  -1.055  0.00  0.00    -0.078 S 
BRANCH  18  19
ATOM     19  C   UNL     1       3.677   5.920  -0.510  0.00  0.00    +0.173 C 
BRANCH  19  20
ATOM     20  C   UNL     1       2.370   5.180  -0.393  0.00  0.00    +0.228 C 
ATOM     21  O   UNL     1       1.328   5.744  -0.653  0.00  0.00    -0.275 OA
ATOM     22  N   UNL     1       2.358   3.890  -0.001  0.00  0.00    -0.282 N 
ATOM     23  H   UNL     1       3.292   3.403   0.314  0.00  0.00    +0.155 HD
BRANCH  22  24
ATOM     24  C   UNL     1       1.156   3.171   0.007  0.00  0.00    +0.071 A 
ATOM     25  C   UNL     1       0.749   2.485  -1.130  0.00  0.00    +0.065 A 
ATOM     26  C   UNL     1      -0.438   1.776  -1.120  0.00  0.00    +0.042 A 
ATOM     27  C   UNL     1      -1.223   1.755   0.019  0.00  0.00    +0.044 A 
ATOM     28  C   UNL     1      -0.818   2.433   1.155  0.00  0.00    +0.042 A 
ATOM     29  C   UNL     1       0.368   3.144   1.151  0.00  0.00    +0.065 A 
ATOM     30 CL   UNL     1       0.874   3.999   2.575  0.00  0.00    -0.082 Cl
ATOM     31 CL   UNL     1      -2.717   0.870   0.026  0.00  0.00    -0.083 Cl
ATOM     32 CL   UNL     1       1.729   2.517  -2.562  0.00  0.00    -0.082 Cl
ENDBRANCH  22  24
ENDBRANCH  19  20
ENDBRANCH  18  19
ENDBRANCH   9  18
TORSDOF 7
