REMARK  Name = ZINC52594689
REMARK  5 active torsions:
REMARK  status: ('A' for Active; 'I' for Inactive)
REMARK    1  A    between atoms: C_4  and  N_7
REMARK    2  A    between atoms: C_8  and  C_10
REMARK    3  A    between atoms: C_10  and  C_12
REMARK    4  A    between atoms: C_10  and  N_22
REMARK    5  A    between atoms: C_12  and  C_13
REMARK                            x       y       z     vdW  Elec       q    Type
REMARK                         _______ _______ _______ _____ _____    ______ ____
ROOT
ATOM      1  C   UNL     1       4.964  -2.721   0.154  0.00  0.00    +0.165 C 
ENDROOT
BRANCH   1   2
ATOM      2  N   UNL     1       4.724  -4.163   0.246  0.00  0.00    -0.288 N 
ATOM      3  C   UNL     1       4.467  -4.729   1.442  0.00  0.00    +0.303 C 
ATOM      4  O   UNL     1       4.346  -4.032   2.430  0.00  0.00    -0.253 OA
ATOM      5  N   UNL     1       4.344  -6.067   1.542  0.00  0.00    -0.286 N 
ATOM      6  C   UNL     1       4.172  -6.707   2.853  0.00  0.00    +0.110 C 
ATOM      7  C   UNL     1       2.916  -7.584   2.812  0.00  0.00    +0.030 C 
ATOM      8  C   UNL     1       3.010  -8.552   1.636  0.00  0.00    -0.001 C 
ATOM      9  C   UNL     1       4.230  -9.475   1.812  0.00  0.00    +0.016 C 
ATOM     10  C   UNL     1       3.724 -10.806   1.213  0.00  0.00    +0.036 C 
ATOM     11  C   UNL     1       2.219 -10.765   1.370  0.00  0.00    -0.044 A 
ATOM     12  C   UNL     1       1.809  -9.466   1.613  0.00  0.00    -0.038 A 
ATOM     13  C   UNL     1       0.463  -9.191   1.789  0.00  0.00    +0.004 A 
ATOM     14  C   UNL     1      -0.469 -10.208   1.724  0.00  0.00    +0.000 A 
ATOM     15  C   UNL     1      -0.059 -11.506   1.482  0.00  0.00    +0.000 A 
ATOM     16  C   UNL     1       1.283 -11.783   1.304  0.00  0.00    +0.004 A 
ATOM     17  C   UNL     1       3.120  -7.788   0.319  0.00  0.00    +0.030 C 
ATOM     18  C   UNL     1       4.372  -6.913   0.340  0.00  0.00    +0.110 C 
ATOM     19  H   UNL     1       4.750  -4.711  -0.554  0.00  0.00    +0.151 HD
ENDBRANCH   1   2
BRANCH   1  21
ATOM     20  N   UNL     1       3.620  -0.654  -0.045  0.00  0.00    -0.284 N 
ATOM     21  C   UNL     1       3.646  -1.998   0.050  0.00  0.00    +0.238 C 
ATOM     22  O   UNL     1       2.608  -2.626   0.053  0.00  0.00    -0.273 OA
ATOM     23  H   UNL     1       4.450  -0.157  -0.122  0.00  0.00    +0.155 HD
BRANCH  20  27
ATOM     24  C   UNL     1      -0.022   1.368  -0.011  0.00  0.00    +0.000 A 
ATOM     25  C   UNL     1       0.130   0.208   0.725  0.00  0.00    +0.002 A 
ATOM     26  C   UNL     1       1.336  -0.465   0.716  0.00  0.00    +0.023 A 
ATOM     27  C   UNL     1       2.397   0.025  -0.034  0.00  0.00    +0.033 A 
ATOM     28  C   UNL     1       2.241   1.191  -0.773  0.00  0.00    +0.023 A 
ATOM     29  C   UNL     1       1.032   1.859  -0.759  0.00  0.00    +0.002 A 
ENDBRANCH  20  27
ENDBRANCH   1  21
BRANCH   1  30
ATOM     30  C   UNL     1       5.809  -2.422  -1.087  0.00  0.00    +0.065 C 
BRANCH  30  31
ATOM     31  C   UNL     1       7.172  -3.044  -0.928  0.00  0.00    -0.039 C 
ATOM     32  C   UNL     1       7.576  -4.248  -1.393  0.00  0.00    -0.001 A 
ATOM     33  C   UNL     1       6.893  -5.300  -2.156  0.00  0.00    +0.010 A 
ATOM     34  C   UNL     1       7.574  -6.421  -2.483  0.00  0.00    +0.001 A 
ATOM     35  C   UNL     1       8.914  -6.604  -2.112  0.00  0.00    +0.002 A 
ATOM     36  C   UNL     1       9.608  -5.683  -1.410  0.00  0.00    +0.026 A 
ATOM     37  C   UNL     1       8.991  -4.465  -1.014  0.00  0.00    +0.043 A 
ATOM     38  N   UNL     1       9.443  -3.436  -0.340  0.00  0.00    -0.380 N 
ATOM     39  C   UNL     1       8.368  -2.445  -0.221  0.00  0.00    +0.144 C 
ATOM     40  H   UNL     1      10.341  -3.343   0.016  0.00  0.00    +0.160 HD
ENDBRANCH  30  31
ENDBRANCH   1  30
TORSDOF 5
