REMARK  Name = ZINC47152349
REMARK  8 active torsions:
REMARK  status: ('A' for Active; 'I' for Inactive)
REMARK    1  A    between atoms: C_1  and  C_2
REMARK    2  A    between atoms: C_2  and  C_4
REMARK    3  A    between atoms: C_2  and  N_17
REMARK    4  A    between atoms: N_6  and  C_7
REMARK    5  A    between atoms: C_10  and  S_13
REMARK    6  A    between atoms: S_13  and  N_16
REMARK    7  A    between atoms: C_21  and  C_22
REMARK    8  A    between atoms: C_26  and  N_28
REMARK                            x       y       z     vdW  Elec       q    Type
REMARK                         _______ _______ _______ _____ _____    ______ ____
ROOT
ATOM      1  C   UNL     1      -0.606   0.785  -1.200  0.00  0.00    +0.038 C 
ATOM      2  C   UNL     1      -0.832  -0.715  -1.002  0.00  0.00    +0.166 C 
ENDROOT
BRANCH   2   3
ATOM      3  N   UNL     1      -2.206  -0.947  -0.552  0.00  0.00    -0.244 N 
ATOM      4  C   UNL     1      -2.413  -1.532   0.616  0.00  0.00    +0.259 C 
ATOM      5  O   UNL     1      -1.491  -1.884   1.327  0.00  0.00    -0.269 OA
ATOM      6  C   UNL     1      -3.823  -1.737   1.013  0.00  0.00    +0.077 C 
ATOM      7  C   UNL     1      -4.332  -2.301   2.136  0.00  0.00    +0.028 C 
ATOM      8  S   UNL     1      -4.672  -1.036  -0.396  0.00  0.00    -0.061 S 
ATOM      9  C   UNL     1      -3.232  -0.553  -1.334  0.00  0.00    +0.121 C 
ATOM     10  S   UNL     1      -3.167   0.220  -2.860  0.00  0.00    -0.027 S 
BRANCH   7  11
ATOM     11  C   UNL     1      -5.774  -2.569   2.236  0.00  0.00    -0.022 A 
ATOM     12  C   UNL     1      -6.595  -2.425   1.112  0.00  0.00    +0.008 A 
ATOM     13  C   UNL     1      -7.946  -2.679   1.214  0.00  0.00    +0.003 A 
ATOM     14  C   UNL     1      -8.491  -3.075   2.423  0.00  0.00    +0.033 A 
ATOM     15  C   UNL     1      -7.685  -3.220   3.539  0.00  0.00    +0.127 A 
ATOM     16  C   UNL     1      -6.331  -2.976   3.453  0.00  0.00    +0.040 A 
BRANCH  15  17
ATOM     17  N   UNL     1      -8.278  -3.643   4.827  0.00  0.00    +0.056 N 
ATOM     18  O   UNL     1      -9.465  -3.862   4.904  0.00  0.00    -0.126 OA
ATOM     19  O   UNL     1      -7.576  -3.770   5.803  0.00  0.00    -0.126 OA
ENDBRANCH  15  17
ENDBRANCH   7  11
ENDBRANCH   2   3
BRANCH   2  20
ATOM     20  C   UNL     1      -0.603  -1.433  -2.308  0.00  0.00    +0.238 C 
ATOM     21  O   UNL     1      -1.500  -2.076  -2.811  0.00  0.00    -0.273 OA
ATOM     22  N   UNL     1       0.598  -1.362  -2.915  0.00  0.00    -0.284 N 
ATOM     23  H   UNL     1       1.289  -0.784  -2.555  0.00  0.00    +0.155 HD
BRANCH  22  24
ATOM     24  C   UNL     1       0.847  -2.122  -4.063  0.00  0.00    +0.034 A 
ATOM     25  C   UNL     1       1.749  -1.666  -5.016  0.00  0.00    +0.025 A 
ATOM     26  C   UNL     1       1.994  -2.418  -6.148  0.00  0.00    +0.030 A 
ATOM     27  C   UNL     1       1.341  -3.623  -6.334  0.00  0.00    +0.105 A 
ATOM     28  C   UNL     1       0.441  -4.079  -5.388  0.00  0.00    +0.030 A 
ATOM     29  C   UNL     1       0.197  -3.334  -4.250  0.00  0.00    +0.025 A 
BRANCH  27  30
ATOM     30  S   UNL     1       1.655  -4.579  -7.780  0.00  0.00    +0.056 S 
ATOM     31  O   UNL     1       0.513  -5.401  -7.980  0.00  0.00    -0.153 OA
ATOM     32  O   UNL     1       2.125  -3.675  -8.771  0.00  0.00    -0.153 OA
BRANCH  30  33
ATOM     33  N   UNL     1       2.914  -5.596  -7.431  0.00  0.00    -0.204 NA
ATOM     34  H   UNL     1       3.324  -5.576  -6.552  0.00  0.00    +0.144 HD
ATOM     35  H   UNL     1       3.242  -6.211  -8.105  0.00  0.00    +0.144 HD
ENDBRANCH  30  33
ENDBRANCH  27  30
ENDBRANCH  22  24
ENDBRANCH   2  20
TORSDOF 7
