REMARK  Name = ZINC19891748
REMARK  8 active torsions:
REMARK  status: ('A' for Active; 'I' for Inactive)
REMARK    1  A    between atoms: C_4  and  C_7
REMARK    2  A    between atoms: C_7  and  C_9
REMARK    3  A    between atoms: C_7  and  N_16
REMARK    4  A    between atoms: N_19  and  C_22
REMARK    5  A    between atoms: C_22  and  C_23
REMARK    6  A    between atoms: C_23  and  C_25
REMARK    7  A    between atoms: C_23  and  O_39
REMARK    8  A    between atoms: C_25  and  N_26
REMARK                            x       y       z     vdW  Elec       q    Type
REMARK                         _______ _______ _______ _____ _____    ______ ____
ROOT
ATOM      1  N   UNL     1       1.728   7.396   5.070  0.00  0.00    +0.389 N 
ATOM      2  C   UNL     1       3.000   7.505   4.341  0.00  0.00    -0.062 C 
ATOM      3  C   UNL     1       2.788   7.089   2.884  0.00  0.00    +0.066 C 
ATOM      4  N   UNL     1       2.276   5.712   2.841  0.00  0.00    -0.303 NA
ATOM      5  C   UNL     1       1.004   5.603   3.569  0.00  0.00    +0.066 C 
ATOM      6  C   UNL     1       1.217   6.019   5.026  0.00  0.00    -0.062 C 
ATOM      7  H   UNL     1       0.995   8.047   4.572  0.00  0.00    -0.080 HD
ENDROOT
BRANCH   1   8
ATOM      8  C   UNL     1       1.874   7.860   6.456  0.00  0.00    -0.007 C 
BRANCH   8   9
ATOM      9  C   UNL     1       2.311   9.303   6.460  0.00  0.00    -0.057 A 
ATOM     10  C   UNL     1       1.776  10.189   5.543  0.00  0.00    +0.004 A 
ATOM     11  C   UNL     1       2.171  11.513   5.550  0.00  0.00    +0.020 A 
ATOM     12  C   UNL     1       3.112  11.949   6.466  0.00  0.00    +0.041 A 
ATOM     13  C   UNL     1       3.651  11.060   7.379  0.00  0.00    +0.020 A 
ATOM     14  C   UNL     1       3.250   9.738   7.375  0.00  0.00    +0.004 A 
ATOM     15 CL   UNL     1       3.615  13.611   6.470  0.00  0.00    -0.084 Cl
ENDBRANCH   8   9
BRANCH   8  19
ATOM     16  C   UNL     1      -1.871   7.501   8.479  0.00  0.00    +0.000 A 
ATOM     17  C   UNL     1      -0.697   7.180   9.135  0.00  0.00    +0.000 A 
ATOM     18  C   UNL     1       0.515   7.296   8.480  0.00  0.00    +0.002 A 
ATOM     19  C   UNL     1       0.553   7.733   7.170  0.00  0.00    -0.057 A 
ATOM     20  C   UNL     1      -0.620   8.060   6.515  0.00  0.00    +0.002 A 
ATOM     21  C   UNL     1      -1.832   7.939   7.168  0.00  0.00    +0.000 A 
ENDBRANCH   8  19
ENDBRANCH   1   8
BRANCH   4  22
ATOM     22  C   UNL     1       2.130   5.248   1.454  0.00  0.00    +0.117 C 
BRANCH  22  23
ATOM     23  C   UNL     1       1.838   3.746   1.447  0.00  0.00    +0.148 C 
BRANCH  23  24
ATOM     24  O   UNL     1       2.917   3.048   2.072  0.00  0.00    -0.389 OA
ATOM     25  H   UNL     1       2.886   1.952   2.161  0.00  0.00    +0.210 HD
ENDBRANCH  23  24
BRANCH  23  26
ATOM     26  C   UNL     1       1.686   3.263   0.004  0.00  0.00    +0.155 C 
BRANCH  26  27
ATOM     27  N   UNL     1       1.290   1.853  -0.000  0.00  0.00    -0.337 N 
ATOM     28  C   UNL     1      -0.017   1.399   0.010  0.00  0.00    +0.050 A 
ATOM     29  C   UNL     1      -1.240   2.063   0.030  0.00  0.00    +0.026 A 
ATOM     30  C   UNL     1      -2.416   1.344   0.033  0.00  0.00    +0.002 A 
ATOM     31  C   UNL     1      -2.395  -0.042   0.025  0.00  0.00    +0.001 A 
ATOM     32  C   UNL     1      -1.194  -0.718   0.010  0.00  0.00    +0.010 A 
ATOM     33  C   UNL     1       0.002  -0.004   0.002  0.00  0.00    +0.008 A 
ATOM     34  C   UNL     1       1.421  -0.403  -0.014  0.00  0.00    +0.008 A 
ATOM     35  C   UNL     1       2.169   0.784  -0.014  0.00  0.00    +0.050 A 
ATOM     36  C   UNL     1       3.558   0.714  -0.028  0.00  0.00    +0.026 A 
ATOM     37  C   UNL     1       4.187  -0.512  -0.040  0.00  0.00    +0.002 A 
ATOM     38  C   UNL     1       3.447  -1.685  -0.040  0.00  0.00    +0.001 A 
ATOM     39  C   UNL     1       2.070  -1.636  -0.027  0.00  0.00    +0.010 A 
ENDBRANCH  26  27
ENDBRANCH  23  26
ENDBRANCH  22  23
ENDBRANCH   4  22
TORSDOF 8
