REMARK  Name = ZINC40313653
REMARK  14 active torsions:
REMARK  status: ('A' for Active; 'I' for Inactive)
REMARK    1  A    between atoms: C_1  and  C_2
REMARK    2  A    between atoms: C_7  and  O_8
REMARK    3  A    between atoms: O_8  and  C_9
REMARK    4  A    between atoms: C_9  and  C_10
REMARK    5  A    between atoms: C_10  and  C_12
REMARK    6  A    between atoms: C_10  and  O_39
REMARK    7  A    between atoms: C_12  and  N_13
REMARK    8  A    between atoms: N_13  and  C_14
REMARK    9  A    between atoms: C_15  and  C_28
REMARK   10  A    between atoms: C_20  and  C_24
REMARK   11  A    between atoms: C_24  and  C_25
REMARK   12  A    between atoms: C_24  and  C_26
REMARK   13  A    between atoms: C_24  and  C_27
REMARK   14  A    between atoms: N_30  and  C_31
REMARK                            x       y       z     vdW  Elec       q    Type
REMARK                         _______ _______ _______ _____ _____    ______ ____
ROOT
ATOM      1  C   UNL     1      -0.283  -0.383   8.498  0.00  0.00    +0.078 A 
ATOM      2  C   UNL     1      -0.409   0.296   9.702  0.00  0.00    +0.068 A 
ATOM      3  C   UNL     1      -0.506  -0.507  10.910  0.00  0.00    -0.023 A 
ATOM      4  C   UNL     1      -0.458  -1.838  10.693  0.00  0.00    -0.004 A 
ATOM      5  S   UNL     1      -0.296  -2.003   8.939  0.00  0.00    -0.078 S 
ATOM      6  C   UNL     1      -0.534  -2.921  11.725  0.00  0.00    +0.046 C 
ATOM      7  C   UNL     1      -1.052  -2.305  13.033  0.00  0.00    -0.000 C 
ATOM      8  C   UNL     1      -0.266  -1.023  13.323  0.00  0.00    +0.009 C 
ATOM      9  C   UNL     1      -0.648   0.062  12.314  0.00  0.00    +0.037 C 
ENDROOT
BRANCH   7  10
ATOM     10  C   UNL     1      -0.859  -3.299  14.180  0.00  0.00    -0.035 C 
ATOM     11  C   UNL     1       0.629  -3.625  14.326  0.00  0.00    +0.011 C 
ATOM     12  C   UNL     1      -1.376  -2.683  15.481  0.00  0.00    +0.011 C 
ATOM     13  C   UNL     1      -1.635  -4.582  13.879  0.00  0.00    +0.011 C 
ENDBRANCH   7  10
BRANCH   2  14
ATOM     14  C   UNL     1      -0.444   1.760   9.753  0.00  0.00    +0.247 C 
ATOM     15  O   UNL     1      -1.508   2.346   9.676  0.00  0.00    -0.270 OA
ATOM     16  N   UNL     1       0.702   2.457   9.885  0.00  0.00    -0.307 N 
ATOM     17  H   UNL     1       1.549   1.989   9.946  0.00  0.00    +0.149 HD
BRANCH  16  18
ATOM     18  C   UNL     1       0.667   3.920   9.936  0.00  0.00    +0.096 C 
ATOM     19  C   UNL     1       0.696   4.491   8.508  0.00  0.00    +0.046 C 
ATOM     20  C   UNL     1       0.982   6.011   8.553  0.00  0.00    +0.168 C 
ATOM     21  S   UNL     1       1.960   6.193  10.100  0.00  0.00    -0.029 S 
ATOM     22  O   UNL     1       1.237   7.010  11.011  0.00  0.00    -0.174 OA
ATOM     23  O   UNL     1       3.297   6.535   9.764  0.00  0.00    -0.174 OA
ATOM     24  C   UNL     1       1.918   4.449  10.694  0.00  0.00    +0.188 C 
ENDBRANCH  16  18
ENDBRANCH   2  14
BRANCH   1  25
ATOM     25  N   UNL     1      -0.176   0.152   7.228  0.00  0.00    -0.335 N 
ATOM     26  H   UNL     1      -0.181   1.114   7.105  0.00  0.00    +0.147 HD
BRANCH  25  27
ATOM     27  C   UNL     1      -0.055  -0.735   6.069  0.00  0.00    +0.136 C 
BRANCH  27  28
ATOM     28  C   UNL     1       0.047   0.104   4.793  0.00  0.00    +0.169 C 
BRANCH  28  29
ATOM     29  O   UNL     1       1.258   0.862   4.818  0.00  0.00    -0.387 OA
ATOM     30  H   UNL     1       2.059   0.322   4.869  0.00  0.00    +0.210 HD
ENDBRANCH  28  29
BRANCH  28  31
ATOM     31  C   UNL     1       0.048  -0.820   3.574  0.00  0.00    +0.261 C 
BRANCH  31  32
ATOM     32  O   UNL     1       0.025  -0.033   2.381  0.00  0.00    -0.489 OA
BRANCH  32  39
ATOM     33  C   UNL     1      -0.018   1.503   0.010  0.00  0.00    +0.047 C 
ATOM     34  C   UNL     1       0.002  -0.004   0.002  0.00  0.00    -0.009 A 
ATOM     35  C   UNL     1       0.006  -0.689  -1.198  0.00  0.00    +0.007 A 
ATOM     36  C   UNL     1       0.024  -2.071  -1.206  0.00  0.00    +0.000 A 
ATOM     37  C   UNL     1       0.039  -2.772  -0.014  0.00  0.00    +0.004 A 
ATOM     38  C   UNL     1       0.036  -2.092   1.188  0.00  0.00    +0.046 A 
ATOM     39  C   UNL     1       0.023  -0.705   1.199  0.00  0.00    +0.124 A 
ENDBRANCH  32  39
ENDBRANCH  31  32
ENDBRANCH  28  31
ENDBRANCH  27  28
ENDBRANCH  25  27
ENDBRANCH   1  25
TORSDOF 10
