REMARK  Name = ZINC37844626
REMARK  5 active torsions:
REMARK  status: ('A' for Active; 'I' for Inactive)
REMARK    1  A    between atoms: C_1  and  C_2
REMARK    2  A    between atoms: C_2  and  C_4
REMARK    3  A    between atoms: C_2  and  N_10
REMARK    4  A    between atoms: N_8  and  C_9
REMARK    5  A    between atoms: C_11  and  C_13
REMARK                            x       y       z     vdW  Elec       q    Type
REMARK                         _______ _______ _______ _____ _____    ______ ____
ROOT
ATOM      1  N   UNL     1      -1.372  -0.511   0.012  0.00  0.00    -0.301 N 
ATOM      2  C   UNL     1      -2.029  -0.655   1.181  0.00  0.00    +0.261 C 
ATOM      3  O   UNL     1      -1.480  -0.364   2.227  0.00  0.00    -0.269 OA
ATOM      4  H   UNL     1      -1.810  -0.743  -0.822  0.00  0.00    +0.150 HD
ENDROOT
BRANCH   2   5
ATOM      5  C   UNL     1      -3.405  -1.163   1.191  0.00  0.00    +0.103 A 
ATOM      6  C   UNL     1      -4.194  -1.354   2.305  0.00  0.00    +0.047 A 
ATOM      7  C   UNL     1      -5.424  -1.849   1.858  0.00  0.00    +0.036 A 
ATOM      8  C   UNL     1      -5.365  -1.948   0.508  0.00  0.00    +0.098 A 
ATOM      9  N   UNL     1      -4.145  -1.529   0.090  0.00  0.00    -0.356 N 
ATOM     10  H   UNL     1      -3.843  -1.495  -0.831  0.00  0.00    +0.165 HD
ATOM     11 BR   UNL     1      -6.905  -2.298   2.944  0.00  0.00    -0.049 Br
ENDBRANCH   2   5
BRANCH   1  13
ATOM     12  C   UNL     1      -0.019   1.526   0.010  0.00  0.00    +0.036 C 
ATOM     13  C   UNL     1       0.002  -0.004   0.002  0.00  0.00    +0.138 C 
BRANCH  13  14
ATOM     14  C   UNL     1       0.707  -0.490  -1.238  0.00  0.00    +0.153 A 
ATOM     15  N   UNL     1       0.229  -0.486  -2.452  0.00  0.00    -0.133 NA
ATOM     16  N   UNL     1       1.101  -0.972  -3.263  0.00  0.00    -0.138 NA
ATOM     17  C   UNL     1       2.175  -1.307  -2.603  0.00  0.00    +0.224 A 
ATOM     18  N   UNL     1       1.958  -1.007  -1.300  0.00  0.00    -0.319 N 
ATOM     19  C   UNL     1       2.887  -1.203  -0.183  0.00  0.00    +0.151 C 
ENDBRANCH  13  14
ENDBRANCH   1  13
TORSDOF 3
