REMARK  Name = ZINC63279952
REMARK  2 active torsions:
REMARK  status: ('A' for Active; 'I' for Inactive)
REMARK    1  A    between atoms: C_6  and  C_11
REMARK    2  A    between atoms: C_19  and  C_21
REMARK                            x       y       z     vdW  Elec       q    Type
REMARK                         _______ _______ _______ _____ _____    ______ ____
ROOT
ATOM      1  C   UNL     1       3.664  -2.775   1.204  0.00  0.00    +0.202 C 
ATOM      2  N   UNL     1       3.011  -2.234   2.420  0.00  0.00    -0.231 NA
ATOM      3  N   UNL     1       2.377  -3.377   3.099  0.00  0.00    -0.224 NA
ATOM      4  C   UNL     1       3.166  -4.529   2.616  0.00  0.00    +0.240 C 
ATOM      5  N   UNL     1       3.295  -4.208   1.156  0.00  0.00    -0.206 N 
ATOM      6  N   UNL     1       2.965  -5.258   0.328  0.00  0.00    -0.173 NA
ATOM      7  C   UNL     1       2.304  -6.302   0.737  0.00  0.00    +0.125 C 
ATOM      8  S   UNL     1       2.151  -6.050   2.533  0.00  0.00    -0.063 S 
ATOM      9  H   UNL     1       3.685  -1.784   3.022  0.00  0.00    +0.143 HD
ATOM     10  H   UNL     1       2.446  -3.286   4.101  0.00  0.00    +0.144 HD
ENDROOT
BRANCH   1  16
ATOM     11  C   UNL     1      -0.016   1.348   0.009  0.00  0.00    +0.001 A 
ATOM     12  C   UNL     1       1.166   2.101   0.002  0.00  0.00    +0.002 A 
ATOM     13  C   UNL     1       2.391   1.535  -0.013  0.00  0.00    +0.026 A 
ATOM     14  C   UNL     1       2.529   0.120  -0.022  0.00  0.00    +0.043 A 
ATOM     15  N   UNL     1       3.587  -0.654  -0.037  0.00  0.00    -0.375 N 
ATOM     16  C   UNL     1       3.143  -2.053  -0.041  0.00  0.00    +0.141 C 
ATOM     17  C   UNL     1       1.631  -2.008  -0.025  0.00  0.00    +0.010 C 
ATOM     18  C   UNL     1       1.295  -0.698  -0.014  0.00  0.00    -0.004 A 
ATOM     19  C   UNL     1       0.002  -0.004   0.002  0.00  0.00    +0.010 A 
ATOM     20  H   UNL     1       4.509  -0.353  -0.045  0.00  0.00    +0.160 HD
ENDBRANCH   1  16
BRANCH   7  21
ATOM     21  C   UNL     1       1.802  -7.436  -0.068  0.00  0.00    +0.011 A 
ATOM     22  C   UNL     1       2.025  -7.471  -1.445  0.00  0.00    +0.011 A 
ATOM     23  C   UNL     1       1.554  -8.531  -2.192  0.00  0.00    +0.003 A 
ATOM     24  C   UNL     1       0.860  -9.559  -1.579  0.00  0.00    +0.038 A 
ATOM     25  C   UNL     1       0.634  -9.531  -0.212  0.00  0.00    +0.124 A 
ATOM     26  C   UNL     1       1.106  -8.477   0.547  0.00  0.00    +0.049 A 
ATOM     27  F   UNL     1      -0.045 -10.538   0.380  0.00  0.00    -0.205 F 
ENDBRANCH   7  21
TORSDOF 2
