REMARK  Name = ZINC62354566
REMARK  3 active torsions:
REMARK  status: ('A' for Active; 'I' for Inactive)
REMARK    1  A    between atoms: C_1  and  C_2
REMARK    2  A    between atoms: C_9  and  C_14
REMARK    3  A    between atoms: C_14  and  C_16
REMARK                            x       y       z     vdW  Elec       q    Type
REMARK                         _______ _______ _______ _____ _____    ______ ____
ROOT
ATOM      1  C   UNL     1       0.494   0.992  -1.262  0.00  0.00    +0.062 C 
ATOM      2  C   UNL     1       0.485  -0.515  -0.997  0.00  0.00    +0.256 C 
ATOM      3  C   UNL     1      -0.925  -1.037  -1.116  0.00  0.00    +0.258 C 
ATOM      4  O   UNL     1      -1.719  -0.484  -1.847  0.00  0.00    -0.271 OA
ATOM      5  N   UNL     1      -1.299  -2.123  -0.405  0.00  0.00    -0.280 N 
ATOM      6  C   UNL     1      -0.370  -2.722   0.459  0.00  0.00    +0.076 A 
ATOM      7  C   UNL     1      -0.588  -3.993   0.954  0.00  0.00    +0.038 A 
ATOM      8  C   UNL     1       0.350  -4.571   1.815  0.00  0.00    +0.026 A 
ATOM      9  C   UNL     1       1.500  -3.861   2.170  0.00  0.00    +0.015 A 
ATOM     10  C   UNL     1       1.711  -2.593   1.672  0.00  0.00    +0.048 A 
ATOM     11  C   UNL     1       0.782  -2.018   0.817  0.00  0.00    +0.143 A 
ATOM     12  O   UNL     1       0.982  -0.770   0.319  0.00  0.00    -0.478 OA
ATOM     13  H   UNL     1      -2.195  -2.483  -0.491  0.00  0.00    +0.155 HD
ENDROOT
BRANCH   8  14
ATOM     14  C   UNL     1       0.126  -5.929   2.347  0.00  0.00    +0.212 C 
ATOM     15  O   UNL     1       1.012  -6.497   2.958  0.00  0.00    -0.285 OA
BRANCH  14  16
ATOM     16  C   UNL     1      -1.169  -6.597   2.139  0.00  0.00    +0.118 A 
ATOM     17  C   UNL     1      -1.384  -7.898   2.513  0.00  0.00    +0.078 A 
ATOM     18  S   UNL     1      -2.982  -8.146   2.059  0.00  0.00    -0.083 S 
ATOM     19  C   UNL     1      -3.323  -6.629   1.425  0.00  0.00    +0.156 A 
ATOM     20  N   UNL     1      -2.208  -5.968   1.580  0.00  0.00    -0.244 NA
ENDBRANCH  14  16
ENDBRANCH   8  14
TORSDOF 2
