REMARK  Name = ZINC13064879
REMARK  12 active torsions:
REMARK  status: ('A' for Active; 'I' for Inactive)
REMARK    1  A    between atoms: C_1  and  C_2
REMARK    2  A    between atoms: C_2  and  C_3
REMARK    3  A    between atoms: C_3  and  C_5
REMARK    4  A    between atoms: C_3  and  N_66
REMARK    5  A    between atoms: N_9  and  C_10
REMARK    6  A    between atoms: C_10  and  C_11
REMARK    7  A    between atoms: C_17  and  C_18
REMARK    8  A    between atoms: C_17  and  N_66
REMARK    9  A    between atoms: C_23  and  C_24
REMARK   10  A    between atoms: C_23  and  N_66
REMARK   11  A    between atoms: C_27  and  C_37
REMARK   12  A    between atoms: C_29  and  C_36
REMARK                            x       y       z     vdW  Elec       q    Type
REMARK                         _______ _______ _______ _____ _____    ______ ____
ROOT
ATOM      1  N   UNL     1       3.832   0.487  -2.317  0.00  0.00    +0.392 N 
ATOM      2  H   UNL     1       2.919   0.467  -2.786  0.00  0.00    -0.080 HD
ENDROOT
BRANCH   1   3
ATOM      3  C   UNL     1       3.923   1.711  -1.494  0.00  0.00    +0.003 C 
BRANCH   3   4
ATOM      4  C   UNL     1       3.681   2.910  -2.376  0.00  0.00    +0.138 A 
ATOM      5  N   UNL     1       4.206   3.131  -3.556  0.00  0.00    -0.115 NA
ATOM      6  N   UNL     1       3.759   4.262  -3.984  0.00  0.00    -0.023 NA
ATOM      7  N   UNL     1       2.959   4.764  -3.110  0.00  0.00    -0.044 NA
ATOM      8  N   UNL     1       2.882   3.958  -2.105  0.00  0.00    -0.226 N 
BRANCH   8   9
ATOM      9  C   UNL     1       2.080   4.152  -0.894  0.00  0.00    +0.182 C 
BRANCH   9  10
ATOM     10  C   UNL     1       0.713   3.552  -1.096  0.00  0.00    -0.026 A 
ATOM     11  C   UNL     1       0.480   2.231  -0.760  0.00  0.00    +0.005 A 
ATOM     12  C   UNL     1      -0.774   1.681  -0.945  0.00  0.00    +0.000 A 
ATOM     13  C   UNL     1      -1.795   2.450  -1.472  0.00  0.00    +0.000 A 
ATOM     14  C   UNL     1      -1.565   3.772  -1.803  0.00  0.00    +0.000 A 
ATOM     15  C   UNL     1      -0.310   4.322  -1.617  0.00  0.00    +0.005 A 
ENDBRANCH   9  10
ENDBRANCH   8   9
ENDBRANCH   3   4
BRANCH   3  17
ATOM     16  C   UNL     1       5.333   3.030   0.092  0.00  0.00    +0.002 C 
ATOM     17  C   UNL     1       5.305   1.823  -0.849  0.00  0.00    -0.011 C 
ENDBRANCH   3  17
ENDBRANCH   1   3
BRANCH   1  18
ATOM     18  C   UNL     1       4.898   0.486  -3.341  0.00  0.00    -0.034 C 
BRANCH  18  19
ATOM     19  C   UNL     1       4.690  -0.691  -4.259  0.00  0.00    -0.027 A 
ATOM     20  C   UNL     1       3.900  -0.788  -5.356  0.00  0.00    +0.009 A 
ATOM     21  C   UNL     1       3.866  -1.980  -6.054  0.00  0.00    +0.008 A 
ATOM     22  C   UNL     1       4.625  -3.017  -5.622  0.00  0.00    +0.045 A 
ATOM     23  S   UNL     1       5.427  -2.315  -4.190  0.00  0.00    -0.103 S 
ENDBRANCH  18  19
ENDBRANCH   1  18
BRANCH   1  24
ATOM     24  C   UNL     1       3.956  -0.709  -1.457  0.00  0.00    -0.036 C 
BRANCH  24  25
ATOM     25  C   UNL     1       2.637  -0.948  -0.769  0.00  0.00    +0.001 A 
ATOM     26  C   UNL     1       1.725  -1.782  -1.327  0.00  0.00    +0.017 A 
ATOM     27  C   UNL     1       0.453  -1.992  -0.633  0.00  0.00    +0.002 A 
ATOM     28  C   UNL     1      -0.527  -2.841  -1.159  0.00  0.00    -0.041 A 
ATOM     29  C   UNL     1      -1.703  -3.016  -0.487  0.00  0.00    +0.007 A 
ATOM     30  C   UNL     1      -1.935  -2.360   0.714  0.00  0.00    -0.048 A 
ATOM     31  C   UNL     1      -0.984  -1.519   1.251  0.00  0.00    +0.029 A 
ATOM     32  C   UNL     1       0.222  -1.325   0.585  0.00  0.00    +0.050 A 
ATOM     33  N   UNL     1       1.191  -0.490   1.099  0.00  0.00    -0.322 N 
ATOM     34  H   UNL     1       1.030  -0.031   1.938  0.00  0.00    +0.169 HD
ATOM     35  C   UNL     1       2.358  -0.307   0.458  0.00  0.00    +0.251 A 
ATOM     36  O   UNL     1       3.194   0.434   0.944  0.00  0.00    -0.268 OA
ATOM     37  C   UNL     1      -3.240  -2.568   1.438  0.00  0.00    +0.044 C 
ATOM     38  C   UNL     1      -0.286  -3.558  -2.463  0.00  0.00    +0.044 C 
ENDBRANCH  24  25
ENDBRANCH   1  24
TORSDOF 9
