REMARK  Name = ZINC20080864
REMARK  6 active torsions:
REMARK  status: ('A' for Active; 'I' for Inactive)
REMARK    1  A    between atoms: C_4  and  C_7
REMARK    2  A    between atoms: C_7  and  N_8
REMARK    3  A    between atoms: C_9  and  C_13
REMARK    4  A    between atoms: C_13  and  C_15
REMARK    5  A    between atoms: C_13  and  N_30
REMARK    6  A    between atoms: N_33  and  C_36
REMARK                            x       y       z     vdW  Elec       q    Type
REMARK                         _______ _______ _______ _____ _____    ______ ____
ROOT
ATOM      1  C   UNL     1       1.926   6.393  -1.845  0.00  0.00    +0.162 C 
ENDROOT
BRANCH   1   2
ATOM      2  C   UNL     1       0.532   6.285  -2.408  0.00  0.00    +0.042 A 
ATOM      3  C   UNL     1       0.167   5.178  -3.103  0.00  0.00    +0.021 A 
ATOM      4  C   UNL     1      -1.195   5.102  -3.632  0.00  0.00    +0.003 A 
ATOM      5  C   UNL     1      -1.628   3.981  -4.351  0.00  0.00    +0.059 A 
ATOM      6  C   UNL     1      -2.914   3.941  -4.843  0.00  0.00    +0.167 A 
ATOM      7  C   UNL     1      -3.787   5.014  -4.625  0.00  0.00    +0.168 A 
ATOM      8  C   UNL     1      -3.367   6.124  -3.915  0.00  0.00    +0.075 A 
ATOM      9  C   UNL     1      -2.074   6.180  -3.413  0.00  0.00    +0.053 A 
ATOM     10  N   UNL     1      -1.638   7.280  -2.701  0.00  0.00    -0.322 N 
ATOM     11  H   UNL     1      -2.319   8.126  -2.525  0.00  0.00    +0.169 HD
ATOM     12  C   UNL     1      -0.386   7.337  -2.214  0.00  0.00    +0.254 A 
ATOM     13  O   UNL     1      -0.036   8.324  -1.590  0.00  0.00    -0.268 OA
ATOM     14  O   UNL     1      -4.984   4.723  -5.211  0.00  0.00    -0.453 OA
ATOM     15  C   UNL     1      -4.713   3.654  -6.135  0.00  0.00    +0.466 C 
ATOM     16  O   UNL     1      -3.573   2.985  -5.563  0.00  0.00    -0.453 OA
ENDBRANCH   1   2
BRANCH   1  17
ATOM     17  N   UNL     1       2.584   7.586  -2.393  0.00  0.00    -0.292 NA
ATOM     18  C   UNL     1       2.597   7.552  -3.862  0.00  0.00    +0.067 C 
ATOM     19  C   UNL     1       3.219   8.846  -4.394  0.00  0.00    -0.063 C 
ATOM     20  N   UNL     1       4.581   8.987  -3.861  0.00  0.00    +0.383 N 
ATOM     21  C   UNL     1       4.568   9.020  -2.392  0.00  0.00    -0.063 C 
ATOM     22  C   UNL     1       3.947   7.727  -1.861  0.00  0.00    +0.067 C 
ATOM     23  H   UNL     1       5.162   8.107  -4.176  0.00  0.00    -0.081 HD
BRANCH  20  24
ATOM     24  C   UNL     1       5.240  10.180  -4.410  0.00  0.00    -0.068 C 
ATOM     25  C   UNL     1       4.419  11.422  -4.059  0.00  0.00    -0.015 C 
ATOM     26  C   UNL     1       5.105  12.665  -4.630  0.00  0.00    -0.002 C 
ATOM     27  C   UNL     1       5.210  12.536  -6.151  0.00  0.00    -0.000 C 
ATOM     28  C   UNL     1       6.031  11.293  -6.502  0.00  0.00    -0.002 C 
ATOM     29  C   UNL     1       5.345  10.051  -5.931  0.00  0.00    -0.015 C 
ENDBRANCH  20  24
ENDBRANCH   1  17
BRANCH   1  31
ATOM     30  N   UNL     1       3.129   4.190  -1.391  0.00  0.00    -0.223 N 
ATOM     31  C   UNL     1       2.715   5.165  -2.221  0.00  0.00    +0.173 A 
ATOM     32  N   UNL     1       3.131   4.840  -3.421  0.00  0.00    -0.111 NA
ATOM     33  N   UNL     1       3.768   3.723  -3.332  0.00  0.00    -0.023 NA
ATOM     34  N   UNL     1       3.773   3.330  -2.106  0.00  0.00    -0.044 NA
BRANCH  30  35
ATOM     35  C   UNL     1       2.897   4.121   0.054  0.00  0.00    +0.182 C 
BRANCH  35  39
ATOM     36  C   UNL     1      -0.544   1.710   0.825  0.00  0.00    +0.000 A 
ATOM     37  C   UNL     1       0.693   1.116   0.660  0.00  0.00    +0.000 A 
ATOM     38  C   UNL     1       1.807   1.896   0.409  0.00  0.00    +0.005 A 
ATOM     39  C   UNL     1       1.684   3.271   0.328  0.00  0.00    -0.026 A 
ATOM     40  C   UNL     1       0.447   3.865   0.498  0.00  0.00    +0.005 A 
ATOM     41  C   UNL     1      -0.666   3.085   0.749  0.00  0.00    +0.000 A 
ENDBRANCH  35  39
ENDBRANCH  30  35
ENDBRANCH   1  31
TORSDOF 6
