REMARK  Name = ZINC22070561
REMARK  7 active torsions:
REMARK  status: ('A' for Active; 'I' for Inactive)
REMARK    1  A    between atoms: C_1  and  C_2
REMARK    2  A    between atoms: C_2  and  C_4
REMARK    3  A    between atoms: C_2  and  S_17
REMARK    4  A    between atoms: N_6  and  C_7
REMARK    5  A    between atoms: C_12  and  N_13
REMARK    6  A    between atoms: S_17  and  C_18
REMARK    7  A    between atoms: N_30  and  C_31
REMARK                            x       y       z     vdW  Elec       q    Type
REMARK                         _______ _______ _______ _____ _____    ______ ____
ROOT
ATOM      1  C   UNL     1      -0.738   1.603   1.266  0.00  0.00    +0.029 C 
ATOM      2  C   UNL     1      -0.020   1.092   0.015  0.00  0.00    +0.137 C 
ENDROOT
BRANCH   2   3
ATOM      3  C   UNL     1      -0.741   1.583  -1.214  0.00  0.00    +0.230 C 
ATOM      4  O   UNL     1      -0.319   2.544  -1.821  0.00  0.00    -0.274 OA
ATOM      5  N   UNL     1      -1.856   0.954  -1.637  0.00  0.00    -0.283 N 
ATOM      6  H   UNL     1      -2.188   0.030  -1.142  0.00  0.00    +0.155 HD
BRANCH   5   7
ATOM      7  C   UNL     1      -2.590   1.478  -2.708  0.00  0.00    +0.064 A 
ATOM      8  C   UNL     1      -2.528   2.835  -2.997  0.00  0.00    +0.027 A 
ATOM      9  C   UNL     1      -3.253   3.348  -4.053  0.00  0.00    +0.022 A 
ATOM     10  C   UNL     1      -4.043   2.512  -4.824  0.00  0.00    +0.043 A 
ATOM     11  C   UNL     1      -4.106   1.160  -4.538  0.00  0.00    +0.054 A 
ATOM     12  C   UNL     1      -3.378   0.640  -3.486  0.00  0.00    +0.149 A 
ATOM     13 CL   UNL     1      -4.954   3.161  -6.151  0.00  0.00    -0.083 Cl
BRANCH  12  14
ATOM     14  N   UNL     1      -3.442  -0.808  -3.184  0.00  0.00    +0.058 N 
ATOM     15  O   UNL     1      -4.061  -1.556  -3.920  0.00  0.00    -0.126 OA
ATOM     16  O   UNL     1      -2.876  -1.251  -2.201  0.00  0.00    -0.126 OA
ENDBRANCH  12  14
ENDBRANCH   5   7
ENDBRANCH   2   3
BRANCH   2  17
ATOM     17  S   UNL     1       1.682   1.707   0.002  0.00  0.00    -0.075 S 
BRANCH  17  18
ATOM     18  C   UNL     1       2.316   0.882   1.424  0.00  0.00    +0.173 A 
ATOM     19  N   UNL     1       1.526   0.092   2.123  0.00  0.00    -0.216 NA
ATOM     20  C   UNL     1       1.981  -0.545   3.196  0.00  0.00    +0.117 A 
ATOM     21  C   UNL     1       3.303  -0.404   3.642  0.00  0.00    +0.076 A 
ATOM     22  C   UNL     1       3.663  -1.168   4.848  0.00  0.00    -0.023 A 
ATOM     23  C   UNL     1       2.697  -1.917   5.403  0.00  0.00    -0.004 A 
ATOM     24  S   UNL     1       1.270  -1.665   4.372  0.00  0.00    -0.073 S 
ATOM     25  C   UNL     1       3.176  -2.647   6.628  0.00  0.00    +0.043 C 
ATOM     26  C   UNL     1       4.478  -1.919   7.029  0.00  0.00    +0.010 C 
ATOM     27  C   UNL     1       4.939  -1.337   5.678  0.00  0.00    +0.037 C 
ATOM     28  C   UNL     1       4.138   0.463   2.869  0.00  0.00    +0.263 A 
ATOM     29  O   UNL     1       5.301   0.644   3.183  0.00  0.00    -0.267 OA
ATOM     30  N   UNL     1       3.617   1.076   1.789  0.00  0.00    -0.290 N 
ATOM     31  C   UNL     1       4.463   1.967   0.991  0.00  0.00    +0.154 C 
ENDBRANCH  17  18
ENDBRANCH   2  17
TORSDOF 5
