REMARK  Name = ZINC19898625
REMARK  14 active torsions:
REMARK  status: ('A' for Active; 'I' for Inactive)
REMARK    1  A    between atoms: C_1  and  C_2
REMARK    2  A    between atoms: C_2  and  C_3
REMARK    3  A    between atoms: C_3  and  C_4
REMARK    4  A    between atoms: C_4  and  O_5
REMARK    5  A    between atoms: O_5  and  C_6
REMARK    6  A    between atoms: C_6  and  C_8
REMARK    7  A    between atoms: C_9  and  C_38
REMARK    8  A    between atoms: C_13  and  C_15
REMARK    9  A    between atoms: C_19  and  O_21
REMARK   10  A    between atoms: C_25  and  C_28
REMARK   11  A    between atoms: C_31  and  O_36
REMARK   12  A    between atoms: C_32  and  O_34
REMARK   13  A    between atoms: O_34  and  C_35
REMARK   14  A    between atoms: O_36  and  C_37
REMARK                            x       y       z     vdW  Elec       q    Type
REMARK                         _______ _______ _______ _____ _____    ______ ____
ROOT
ATOM      1  C   UNL     1       2.360  -4.405   3.586  0.00  0.00    +0.065 C 
ATOM      2  C   UNL     1       2.251  -5.721   3.841  0.00  0.00    +0.016 C 
ATOM      3  N   UNL     1       2.759  -6.247   4.996  0.00  0.00    -0.321 N 
ATOM      4  C   UNL     1       3.019  -5.443   6.073  0.00  0.00    +0.016 C 
ATOM      5  C   UNL     1       3.164  -4.110   5.913  0.00  0.00    +0.024 C 
ATOM      6  C   UNL     1       3.048  -3.481   4.546  0.00  0.00    +0.092 C 
ATOM      7  C   UNL     1       3.435  -3.274   7.011  0.00  0.00    +0.162 C 
ATOM      8  O   UNL     1       3.543  -2.076   6.835  0.00  0.00    -0.292 OA
ATOM      9  C   UNL     1       3.592  -3.834   8.398  0.00  0.00    +0.088 C 
ATOM     10  C   UNL     1       4.108  -5.274   8.298  0.00  0.00    +0.032 C 
ATOM     11  C   UNL     1       3.135  -6.080   7.436  0.00  0.00    +0.059 C 
ATOM     12  C   UNL     1       1.565  -6.622   2.846  0.00  0.00    +0.061 C 
ATOM     13  H   UNL     1       2.936  -7.199   5.053  0.00  0.00    +0.152 HD
ENDROOT
BRANCH   6  14
ATOM     14  C   UNL     1       4.426  -3.163   4.025  0.00  0.00    -0.032 A 
ATOM     15  C   UNL     1       5.338  -4.182   3.815  0.00  0.00    +0.005 A 
ATOM     16  C   UNL     1       6.602  -3.893   3.337  0.00  0.00    +0.004 A 
ATOM     17  C   UNL     1       6.959  -2.586   3.068  0.00  0.00    +0.045 A 
ATOM     18  C   UNL     1       6.046  -1.562   3.277  0.00  0.00    +0.117 A 
ATOM     19  C   UNL     1       4.776  -1.855   3.752  0.00  0.00    +0.050 A 
BRANCH  18  20
ATOM     20  O   UNL     1       6.395  -0.276   3.013  0.00  0.00    -0.507 OA
ATOM     21  H   UNL     1       6.203   0.006   2.108  0.00  0.00    +0.292 HD
ENDBRANCH  18  20
ENDBRANCH   6  14
BRANCH  10  22
ATOM     22  C   UNL     1       4.190  -5.878   9.676  0.00  0.00    -0.040 A 
ATOM     23  C   UNL     1       3.049  -5.992  10.449  0.00  0.00    +0.008 A 
ATOM     24  C   UNL     1       3.119  -6.546  11.713  0.00  0.00    +0.049 A 
ATOM     25  C   UNL     1       4.335  -6.990  12.209  0.00  0.00    +0.161 A 
ATOM     26  C   UNL     1       5.483  -6.876  11.431  0.00  0.00    +0.162 A 
ATOM     27  C   UNL     1       5.405  -6.324  10.163  0.00  0.00    +0.053 A 
BRANCH  26  28
ATOM     28  O   UNL     1       6.679  -7.309  11.913  0.00  0.00    -0.491 OA
ATOM     29  C   UNL     1       7.815  -7.161  11.059  0.00  0.00    +0.277 C 
ENDBRANCH  26  28
BRANCH  25  30
ATOM     30  O   UNL     1       4.406  -7.535  13.453  0.00  0.00    -0.491 OA
ATOM     31  C   UNL     1       3.187  -7.619  14.194  0.00  0.00    +0.277 C 
ENDBRANCH  25  30
ENDBRANCH  10  22
BRANCH   1  32
ATOM     32  C   UNL     1       1.819  -3.884   2.388  0.00  0.00    +0.338 C 
ATOM     33  O   UNL     1       0.790  -3.235   2.416  0.00  0.00    -0.245 OA
BRANCH  32  34
ATOM     34  O   UNL     1       2.444  -4.106   1.213  0.00  0.00    -0.461 OA
BRANCH  34  35
ATOM     35  C   UNL     1       1.842  -3.550   0.042  0.00  0.00    +0.232 C 
BRANCH  35  36
ATOM     36  C   UNL     1       2.687  -3.904  -1.183  0.00  0.00    +0.041 C 
BRANCH  36  38
ATOM     37  C   UNL     1       2.888  -3.662  -3.662  0.00  0.00    +0.004 C 
ATOM     38  C   UNL     1       2.043  -3.308  -2.437  0.00  0.00    -0.000 C 
ENDBRANCH  36  38
ENDBRANCH  35  36
ENDBRANCH  34  35
ENDBRANCH  32  34
ENDBRANCH   1  32
TORSDOF 10
