REMARK  Name = ZINC39993897
REMARK  6 active torsions:
REMARK  status: ('A' for Active; 'I' for Inactive)
REMARK    1  A    between atoms: C_1  and  C_2
REMARK    2  A    between atoms: N_7  and  C_9
REMARK    3  A    between atoms: C_10  and  C_20
REMARK    4  A    between atoms: C_21  and  C_22
REMARK    5  A    between atoms: C_21  and  C_24
REMARK    6  A    between atoms: N_26  and  C_27
REMARK                            x       y       z     vdW  Elec       q    Type
REMARK                         _______ _______ _______ _____ _____    ______ ____
ROOT
ATOM      1  C   UNL     1       1.809  -2.809   1.347  0.00  0.00    +0.136 A 
ATOM      2  C   UNL     1       1.681  -4.212   1.520  0.00  0.00    +0.081 A 
ATOM      3  C   UNL     1       2.865  -4.983   1.653  0.00  0.00    +0.267 A 
ATOM      4  O   UNL     1       2.804  -6.190   1.803  0.00  0.00    -0.267 OA
ATOM      5  N   UNL     1       4.060  -4.355   1.610  0.00  0.00    -0.268 N 
ATOM      6  C   UNL     1       5.202  -5.088   1.736  0.00  0.00    +0.096 A 
ATOM      7  C   UNL     1       6.415  -4.491   1.698  0.00  0.00    +0.018 A 
ATOM      8  C   UNL     1       6.511  -3.104   1.526  0.00  0.00    +0.005 A 
ATOM      9  C   UNL     1       5.373  -2.362   1.397  0.00  0.00    +0.047 A 
ATOM     10  C   UNL     1       4.121  -3.000   1.440  0.00  0.00    +0.142 A 
ATOM     11  N   UNL     1       3.015  -2.265   1.309  0.00  0.00    -0.214 NA
ENDROOT
BRANCH   1  17
ATOM     12  C   UNL     1      -2.210  -1.177   3.499  0.00  0.00    +0.009 C 
ATOM     13  C   UNL     1      -0.894  -0.972   2.746  0.00  0.00    +0.003 C 
ATOM     14  C   UNL     1      -1.066   0.140   1.709  0.00  0.00    +0.006 C 
ATOM     15  C   UNL     1       0.259   0.368   0.978  0.00  0.00    +0.019 C 
ATOM     16  C   UNL     1       0.661  -0.916   0.247  0.00  0.00    +0.106 C 
ATOM     17  N   UNL     1       0.688  -2.022   1.214  0.00  0.00    -0.314 N 
ATOM     18  C   UNL     1      -0.504  -2.272   2.036  0.00  0.00    +0.109 C 
ENDBRANCH   1  17
BRANCH   2  19
ATOM     19  C   UNL     1       0.415  -4.821   1.560  0.00  0.00    +0.040 C 
ATOM     20  C   UNL     1      -0.015  -5.454   2.719  0.00  0.00    +0.114 C 
BRANCH  20  21
ATOM     21  C   UNL     1      -1.282  -6.192   2.724  0.00  0.00    +0.259 C 
ATOM     22  O   UNL     1      -1.956  -6.251   1.712  0.00  0.00    -0.269 OA
ATOM     23  N   UNL     1      -1.699  -6.806   3.849  0.00  0.00    -0.280 N 
ATOM     24  H   UNL     1      -1.131  -6.818   4.635  0.00  0.00    +0.155 HD
BRANCH  23  25
ATOM     25  C   UNL     1      -2.953  -7.427   3.883  0.00  0.00    +0.052 A 
ATOM     26  C   UNL     1      -3.455  -8.043   2.744  0.00  0.00    +0.025 A 
ATOM     27  C   UNL     1      -4.693  -8.655   2.781  0.00  0.00    +0.002 A 
ATOM     28  C   UNL     1      -5.433  -8.654   3.950  0.00  0.00    +0.002 A 
ATOM     29  C   UNL     1      -4.936  -8.041   5.085  0.00  0.00    +0.022 A 
ATOM     30  C   UNL     1      -3.695  -7.433   5.058  0.00  0.00    +0.062 A 
ATOM     31 CL   UNL     1      -3.068  -6.670   6.486  0.00  0.00    -0.082 Cl
ENDBRANCH  23  25
ENDBRANCH  20  21
BRANCH  20  32
ATOM     32  C   UNL     1       0.778  -5.384   3.909  0.00  0.00    +0.104 C 
ATOM     33  N   UNL     1       1.407  -5.329   4.853  0.00  0.00    -0.191 NA
ENDBRANCH  20  32
ENDBRANCH   2  19
TORSDOF 5
