REMARK  Name = ZINC20634243
REMARK  6 active torsions:
REMARK  status: ('A' for Active; 'I' for Inactive)
REMARK    1  A    between atoms: C_1  and  C_2
REMARK    2  A    between atoms: C_5  and  C_8
REMARK    3  A    between atoms: C_8  and  N_9
REMARK    4  A    between atoms: C_18  and  C_28
REMARK    5  A    between atoms: C_23  and  O_26
REMARK    6  A    between atoms: O_26  and  C_27
REMARK                            x       y       z     vdW  Elec       q    Type
REMARK                         _______ _______ _______ _____ _____    ______ ____
ROOT
ATOM      1  N   UNL     1       1.451  -4.747  -0.032  0.00  0.00    -0.264 NA
ATOM      2  C   UNL     1       1.513  -6.203  -0.256  0.00  0.00    +0.193 C 
ATOM      3  N   UNL     1       2.934  -6.574  -0.351  0.00  0.00    -0.304 N 
ATOM      4  C   UNL     1       3.818  -5.995   0.532  0.00  0.00    +0.184 C 
ATOM      5  N   UNL     1       3.470  -4.982   1.261  0.00  0.00    -0.240 NA
ATOM      6  C   UNL     1       2.135  -4.396   1.219  0.00  0.00    +0.233 C 
ATOM      7  N   UNL     1       5.095  -6.503   0.643  0.00  0.00    -0.256 N 
ATOM      8  C   UNL     1       5.995  -5.929   1.530  0.00  0.00    +0.222 A 
ATOM      9  N   UNL     1       5.596  -4.892   2.264  0.00  0.00    -0.219 NA
ATOM     10  C   UNL     1       6.403  -4.305   3.123  0.00  0.00    +0.051 A 
ATOM     11  C   UNL     1       7.715  -4.797   3.255  0.00  0.00    +0.025 A 
ATOM     12  C   UNL     1       8.636  -4.229   4.147  0.00  0.00    +0.012 A 
ATOM     13  C   UNL     1       9.894  -4.745   4.236  0.00  0.00    +0.004 A 
ATOM     14  C   UNL     1      10.281  -5.830   3.453  0.00  0.00    +0.048 A 
ATOM     15  C   UNL     1       9.411  -6.410   2.573  0.00  0.00    +0.146 A 
ATOM     16  C   UNL     1       8.103  -5.902   2.456  0.00  0.00    +0.118 A 
ATOM     17  N   UNL     1       7.209  -6.435   1.615  0.00  0.00    -0.210 NA
ATOM     18  C   UNL     1       5.932  -3.133   3.945  0.00  0.00    +0.066 C 
ATOM     19  H   UNL     1       3.240  -7.208  -1.018  0.00  0.00    +0.150 HD
ATOM     20  H   UNL     1       5.364  -7.261   0.101  0.00  0.00    +0.158 HD
ENDROOT
BRANCH  15  21
ATOM     21  O   UNL     1       9.805  -7.468   1.817  0.00  0.00    -0.493 OA
ATOM     22  C   UNL     1      11.147  -7.926   1.992  0.00  0.00    +0.277 C 
ENDBRANCH  15  21
BRANCH   1  23
ATOM     23  C   UNL     1       0.059  -4.275  -0.021  0.00  0.00    +0.122 C 
BRANCH  23  28
ATOM     24  C   UNL     1      -0.018   1.503   0.010  0.00  0.00    +0.044 C 
ATOM     25  C   UNL     1       0.002  -0.004   0.002  0.00  0.00    -0.050 A 
ATOM     26  C   UNL     1       0.006  -0.689  -1.199  0.00  0.00    +0.003 A 
ATOM     27  C   UNL     1       0.025  -2.071  -1.206  0.00  0.00    +0.005 A 
ATOM     28  C   UNL     1       0.040  -2.768  -0.013  0.00  0.00    -0.033 A 
ATOM     29  C   UNL     1       0.037  -2.084   1.188  0.00  0.00    +0.005 A 
ATOM     30  C   UNL     1       0.023  -0.702   1.195  0.00  0.00    +0.003 A 
ENDBRANCH  23  28
ENDBRANCH   1  23
TORSDOF 3
