REMARK  Name = ZINC01584151
REMARK  9 active torsions:
REMARK  status: ('A' for Active; 'I' for Inactive)
REMARK    1  A    between atoms: C_1  and  C_2
REMARK    2  A    between atoms: C_4  and  C_11
REMARK    3  A    between atoms: C_6  and  C_10
REMARK    4  A    between atoms: C_7  and  O_8
REMARK    5  A    between atoms: O_8  and  C_9
REMARK    6  A    between atoms: C_11  and  C_13
REMARK    7  A    between atoms: C_11  and  C_14
REMARK    8  A    between atoms: C_19  and  O_20
REMARK    9  A    between atoms: O_20  and  C_21
REMARK                            x       y       z     vdW  Elec       q    Type
REMARK                         _______ _______ _______ _____ _____    ______ ____
ROOT
ATOM      1  C   UNL     1      -2.010   2.475   3.494  0.00  0.00    +0.050 C 
ATOM      2  C   UNL     1      -3.476   2.141   3.777  0.00  0.00    +0.017 C 
ENDROOT
BRANCH   1   3
ATOM      3  C   UNL     1      -1.930   3.753   2.700  0.00  0.00    +0.005 A 
ATOM      4  C   UNL     1      -2.558   4.894   3.163  0.00  0.00    +0.057 A 
ATOM      5  C   UNL     1      -2.491   6.069   2.433  0.00  0.00    +0.167 A 
ATOM      6  C   UNL     1      -1.786   6.101   1.232  0.00  0.00    +0.170 A 
ATOM      7  C   UNL     1      -1.154   4.958   0.772  0.00  0.00    +0.095 A 
ATOM      8  C   UNL     1      -1.223   3.784   1.507  0.00  0.00    +0.128 A 
ATOM      9  O   UNL     1      -1.870   7.360   0.710  0.00  0.00    -0.452 OA
ATOM     10  C   UNL     1      -2.287   8.202   1.802  0.00  0.00    +0.466 C 
ATOM     11  O   UNL     1      -3.017   7.308   2.663  0.00  0.00    -0.453 OA
BRANCH   8  12
ATOM     12  O   UNL     1      -0.603   2.662   1.055  0.00  0.00    -0.495 OA
ATOM     13  C   UNL     1       0.102   2.764  -0.184  0.00  0.00    +0.277 C 
ENDBRANCH   8  12
ENDBRANCH   1   3
BRANCH   1  17
ATOM     14  C   UNL     1       1.860   1.352   6.460  0.00  0.00    +0.047 C 
ATOM     15  C   UNL     1       0.580   2.108   6.216  0.00  0.00    -0.008 A 
ATOM     16  C   UNL     1      -0.098   1.952   5.022  0.00  0.00    +0.011 A 
ATOM     17  C   UNL     1      -1.273   2.646   4.797  0.00  0.00    -0.039 A 
ATOM     18  C   UNL     1      -1.769   3.502   5.763  0.00  0.00    +0.011 A 
ATOM     19  C   UNL     1      -1.099   3.656   6.961  0.00  0.00    -0.008 A 
ATOM     20  C   UNL     1       0.080   2.962   7.189  0.00  0.00    +0.126 A 
ATOM     21  C   UNL     1      -1.643   4.584   8.016  0.00  0.00    +0.047 C 
BRANCH  20  22
ATOM     22  O   UNL     1       0.746   3.117   8.364  0.00  0.00    -0.495 OA
ATOM     23  C   UNL     1       1.727   4.154   8.422  0.00  0.00    +0.277 C 
ENDBRANCH  20  22
ENDBRANCH   1  17
TORSDOF 4
