REMARK  Name = ZINC08922879
REMARK  6 active torsions:
REMARK  status: ('A' for Active; 'I' for Inactive)
REMARK    1  A    between atoms: C_1  and  C_2
REMARK    2  A    between atoms: C_2  and  C_3
REMARK    3  A    between atoms: C_2  and  N_51
REMARK    4  A    between atoms: C_11  and  O_29
REMARK    5  A    between atoms: C_13  and  C_16
REMARK    6  A    between atoms: C_19  and  C_21
REMARK                            x       y       z     vdW  Elec       q    Type
REMARK                         _______ _______ _______ _____ _____    ______ ____
ROOT
ATOM      1  C   UNL     1      -1.422   5.596  -6.478  0.00  0.00    -0.073 C 
ATOM      2  C   UNL     1      -1.338   6.187  -5.068  0.00  0.00    +0.018 C 
ATOM      3  C   UNL     1      -2.186   5.325  -4.139  0.00  0.00    -0.027 A 
ATOM      4  C   UNL     1      -3.114   4.484  -4.657  0.00  0.00    -0.021 A 
ATOM      5  S   UNL     1      -3.846   3.693  -3.251  0.00  0.00    -0.080 S 
ATOM      6  C   UNL     1      -2.942   4.457  -2.015  0.00  0.00    +0.080 A 
ATOM      7  C   UNL     1      -2.079   5.329  -2.693  0.00  0.00    +0.067 A 
ATOM      8  C   UNL     1      -1.165   6.159  -1.866  0.00  0.00    +0.220 C 
ATOM      9  N   UNL     1      -1.046   5.854  -0.603  0.00  0.00    -0.220 NA
ATOM     10  C   UNL     1      -1.695   4.720   0.042  0.00  0.00    +0.260 C 
ATOM     11  N   UNL     1      -2.945   4.346  -0.646  0.00  0.00    -0.311 N 
ATOM     12  C   UNL     1      -3.428   4.291  -6.107  0.00  0.00    -0.035 C 
ATOM     13  H   UNL     1      -3.726   4.040  -0.159  0.00  0.00    +0.149 HD
ATOM     14  N   UNL     1      -2.840   5.428  -6.856  0.00  0.00    +0.384 N 
ATOM     15  H   UNL     1      -3.353   6.285  -6.619  0.00  0.00    -0.081 HD
ENDROOT
BRANCH  10  16
ATOM     16  C   UNL     1      -0.755   3.542   0.027  0.00  0.00    +0.148 A 
ATOM     17  C   UNL     1       0.591   3.611   0.015  0.00  0.00    +0.049 A 
ATOM     18  C   UNL     1       1.072   2.286   0.004  0.00  0.00    +0.050 A 
ATOM     19  C   UNL     1      -0.018   1.474   0.010  0.00  0.00    +0.137 A 
ATOM     20  O   UNL     1      -1.119   2.249   0.019  0.00  0.00    -0.456 OA
BRANCH  19  21
ATOM     21  C   UNL     1       0.002  -0.004   0.002  0.00  0.00    +0.037 A 
ATOM     22  C   UNL     1      -0.755  -0.721   0.930  0.00  0.00    +0.013 A 
ATOM     23  C   UNL     1      -0.733  -2.100   0.918  0.00  0.00    +0.002 A 
ATOM     24  C   UNL     1       0.039  -2.775  -0.011  0.00  0.00    +0.021 A 
ATOM     25  C   UNL     1       0.793  -2.072  -0.936  0.00  0.00    +0.060 A 
ATOM     26  C   UNL     1       0.774  -0.690  -0.938  0.00  0.00    +0.070 A 
ATOM     27 CL   UNL     1       1.714   0.191  -2.102  0.00  0.00    -0.081 Cl
ATOM     28 CL   UNL     1       1.758  -2.928  -2.098  0.00  0.00    -0.082 Cl
ENDBRANCH  19  21
ENDBRANCH  10  16
BRANCH  14  30
ATOM     29  C   UNL     1      -4.425   4.993  -8.672  0.00  0.00    -0.014 C 
ATOM     30  C   UNL     1      -2.951   5.187  -8.310  0.00  0.00    -0.074 C 
ATOM     31  C   UNL     1      -2.398   6.402  -9.059  0.00  0.00    -0.014 C 
ENDBRANCH  14  30
BRANCH   8  32
ATOM     32  O   UNL     1      -0.479   7.194  -2.405  0.00  0.00    -0.492 OA
ATOM     33  H   UNL     1       0.084   7.663  -1.774  0.00  0.00    +0.294 HD
ENDBRANCH   8  32
TORSDOF 4
