REMARK  Name = ZINC27100675
REMARK  6 active torsions:
REMARK  status: ('A' for Active; 'I' for Inactive)
REMARK    1  A    between atoms: C_4  and  C_7
REMARK    2  A    between atoms: C_16  and  O_37
REMARK    3  A    between atoms: C_17  and  C_18
REMARK    4  A    between atoms: C_18  and  N_19
REMARK    5  A    between atoms: N_22  and  C_25
REMARK    6  A    between atoms: C_28  and  C_31
REMARK                            x       y       z     vdW  Elec       q    Type
REMARK                         _______ _______ _______ _____ _____    ______ ____
ROOT
ATOM      1  C   UNL     1      -0.013   1.086   0.008  0.00  0.00    -0.035 C 
ENDROOT
BRANCH   1  12
ATOM      2  C   UNL     1      -3.742  -0.819   2.898  0.00  0.00    +0.064 A 
ATOM      3  C   UNL     1      -3.040  -1.154   1.785  0.00  0.00    +0.208 A 
ATOM      4  O   UNL     1      -2.081  -0.375   1.279  0.00  0.00    -0.462 OA
ATOM      5  C   UNL     1      -1.724   0.806   1.822  0.00  0.00    +0.143 A 
ATOM      6  C   UNL     1      -2.368   1.279   2.979  0.00  0.00    +0.065 A 
ATOM      7  C   UNL     1      -3.434   0.453   3.574  0.00  0.00    +0.200 A 
ATOM      8  O   UNL     1      -4.032   0.805   4.576  0.00  0.00    -0.286 OA
ATOM      9  C   UNL     1      -2.001   2.502   3.541  0.00  0.00    +0.019 A 
ATOM     10  C   UNL     1      -1.010   3.243   2.964  0.00  0.00    +0.046 A 
ATOM     11  C   UNL     1      -0.361   2.781   1.821  0.00  0.00    +0.122 A 
ATOM     12  C   UNL     1      -0.718   1.572   1.248  0.00  0.00    +0.020 A 
BRANCH   2  16
ATOM     13  C   UNL     1      -6.771  -3.395   4.405  0.00  0.00    +0.000 A 
ATOM     14  C   UNL     1      -6.766  -3.047   3.066  0.00  0.00    +0.001 A 
ATOM     15  C   UNL     1      -5.785  -2.211   2.572  0.00  0.00    +0.009 A 
ATOM     16  C   UNL     1      -4.799  -1.718   3.424  0.00  0.00    -0.011 A 
ATOM     17  C   UNL     1      -4.806  -2.076   4.771  0.00  0.00    +0.009 A 
ATOM     18  C   UNL     1      -5.795  -2.908   5.255  0.00  0.00    +0.001 A 
ENDBRANCH   2  16
BRANCH  11  19
ATOM     19  O   UNL     1       0.627   3.525   1.261  0.00  0.00    -0.506 OA
ATOM     20  H   UNL     1       1.143   3.164   0.359  0.00  0.00    +0.292 HD
ENDBRANCH  11  19
ENDBRANCH   1  12
BRANCH   1  21
ATOM     21  N   UNL     1      -0.723   1.572  -1.182  0.00  0.00    +0.385 N 
ATOM     22  C   UNL     1      -2.058   0.966  -1.283  0.00  0.00    -0.059 C 
ATOM     23  C   UNL     1      -2.794   1.557  -2.488  0.00  0.00    +0.086 C 
ATOM     24  N   UNL     1      -2.012   1.308  -3.707  0.00  0.00    -0.333 N 
ATOM     25  C   UNL     1      -0.677   1.914  -3.606  0.00  0.00    +0.086 C 
ATOM     26  C   UNL     1       0.059   1.323  -2.401  0.00  0.00    -0.059 C 
ATOM     27  H   UNL     1      -0.851   2.660  -1.077  0.00  0.00    -0.081 HD
BRANCH  24  28
ATOM     28  C   UNL     1      -2.688   1.770  -4.838  0.00  0.00    +0.030 A 
ATOM     29  C   UNL     1      -2.080   2.689  -5.685  0.00  0.00    +0.023 A 
ATOM     30  C   UNL     1      -2.749   3.141  -6.805  0.00  0.00    +0.006 A 
ATOM     31  C   UNL     1      -4.026   2.688  -7.080  0.00  0.00    -0.044 A 
ATOM     32  C   UNL     1      -4.636   1.777  -6.236  0.00  0.00    +0.006 A 
ATOM     33  C   UNL     1      -3.971   1.317  -5.117  0.00  0.00    +0.023 A 
BRANCH  31  34
ATOM     34  C   UNL     1      -4.755   3.187  -8.300  0.00  0.00    +0.019 C 
ATOM     35  C   UNL     1      -3.956   2.826  -9.554  0.00  0.00    +0.008 C 
ATOM     36  C   UNL     1      -4.696   3.333 -10.794  0.00  0.00    +0.001 C 
ATOM     37  C   UNL     1      -4.853   4.853 -10.709  0.00  0.00    +0.000 C 
ATOM     38  C   UNL     1      -5.652   5.213  -9.454  0.00  0.00    +0.001 C 
ATOM     39  C   UNL     1      -4.912   4.707  -8.215  0.00  0.00    +0.008 C 
ENDBRANCH  31  34
ENDBRANCH  24  28
ENDBRANCH   1  21
TORSDOF 6
