REMARK  Name = ZINC08426320
REMARK  10 active torsions:
REMARK  status: ('A' for Active; 'I' for Inactive)
REMARK    1  A    between atoms: C_1  and  C_2
REMARK    2  A    between atoms: C_2  and  C_3
REMARK    3  A    between atoms: C_2  and  C_4
REMARK    4  A    between atoms: C_2  and  C_5
REMARK    5  A    between atoms: C_9  and  N_31
REMARK    6  A    between atoms: C_13  and  N_22
REMARK    7  A    between atoms: C_23  and  C_24
REMARK    8  A    between atoms: C_29  and  O_30
REMARK    9  A    between atoms: C_32  and  C_33
REMARK   10  A    between atoms: C_38  and  O_39
REMARK                            x       y       z     vdW  Elec       q    Type
REMARK                         _______ _______ _______ _____ _____    ______ ____
ROOT
ATOM      1  C   UNL     1       5.266   5.198  -2.260  0.00  0.00    -0.005 C 
ATOM      2  C   UNL     1       6.434   6.167  -2.072  0.00  0.00    +0.010 C 
ATOM      3  C   UNL     1       6.168   7.065  -0.861  0.00  0.00    +0.074 C 
ATOM      4  C   UNL     1       4.876   7.850  -1.090  0.00  0.00    +0.207 C 
ATOM      5  C   UNL     1       3.709   6.867  -1.250  0.00  0.00    +0.085 C 
ATOM      6  C   UNL     1       3.972   5.986  -2.476  0.00  0.00    +0.016 C 
ATOM      7  C   UNL     1       3.656   5.979  -0.003  0.00  0.00    +0.147 C 
ATOM      8  C   UNL     1       3.736   6.833   1.236  0.00  0.00    +0.019 A 
ATOM      9  C   UNL     1       3.326   6.296   2.445  0.00  0.00    +0.009 A 
ATOM     10  C   UNL     1       3.391   7.048   3.601  0.00  0.00    +0.001 A 
ATOM     11  C   UNL     1       3.866   8.346   3.555  0.00  0.00    +0.004 A 
ATOM     12  C   UNL     1       4.274   8.889   2.353  0.00  0.00    +0.046 A 
ATOM     13  C   UNL     1       4.209   8.133   1.187  0.00  0.00    +0.129 A 
ATOM     14  O   UNL     1       4.614   8.702   0.022  0.00  0.00    -0.464 OA
ENDROOT
BRANCH   1  16
ATOM     15  C   UNL     1       6.822   3.519  -3.262  0.00  0.00    +0.011 C 
ATOM     16  C   UNL     1       5.531   4.311  -3.479  0.00  0.00    -0.035 C 
ATOM     17  C   UNL     1       4.363   3.341  -3.668  0.00  0.00    +0.011 C 
ATOM     18  C   UNL     1       5.674   5.187  -4.725  0.00  0.00    +0.011 C 
ENDBRANCH   1  16
BRANCH   7  19
ATOM     19  N   UNL     1       2.399   5.226   0.006  0.00  0.00    -0.282 NA
ATOM     20  C   UNL     1       2.420   3.932  -0.001  0.00  0.00    +0.117 C 
BRANCH  20  21
ATOM     21  C   UNL     1       1.156   3.175   0.008  0.00  0.00    +0.034 A 
ATOM     22  C   UNL     1       1.173   1.778   0.000  0.00  0.00    +0.013 A 
ATOM     23  C   UNL     1      -0.013   1.076   0.008  0.00  0.00    +0.001 A 
ATOM     24  C   UNL     1      -1.223   1.749   0.017  0.00  0.00    +0.004 A 
ATOM     25  C   UNL     1      -1.255   3.130   0.030  0.00  0.00    +0.046 A 
ATOM     26  C   UNL     1      -0.072   3.852   0.022  0.00  0.00    +0.125 A 
BRANCH  26  27
ATOM     27  O   UNL     1      -0.101   5.209   0.029  0.00  0.00    -0.506 OA
ATOM     28  H   UNL     1      -0.118   5.606  -0.852  0.00  0.00    +0.292 HD
ENDBRANCH  26  27
ENDBRANCH  20  21
ENDBRANCH   7  19
BRANCH   4  29
ATOM     29  N   UNL     1       5.005   8.658  -2.306  0.00  0.00    -0.246 NA
ATOM     30  C   UNL     1       5.931   9.558  -2.390  0.00  0.00    +0.120 C 
BRANCH  30  31
ATOM     31  C   UNL     1       6.060  10.371  -3.612  0.00  0.00    +0.034 A 
ATOM     32  C   UNL     1       7.058  11.344  -3.708  0.00  0.00    +0.013 A 
ATOM     33  C   UNL     1       7.174  12.100  -4.854  0.00  0.00    +0.001 A 
ATOM     34  C   UNL     1       6.304  11.900  -5.913  0.00  0.00    +0.004 A 
ATOM     35  C   UNL     1       5.313  10.942  -5.832  0.00  0.00    +0.046 A 
ATOM     36  C   UNL     1       5.186  10.168  -4.689  0.00  0.00    +0.125 A 
BRANCH  36  37
ATOM     37  O   UNL     1       4.216   9.222  -4.611  0.00  0.00    -0.506 OA
ATOM     38  H   UNL     1       3.379   9.546  -4.249  0.00  0.00    +0.292 HD
ENDBRANCH  36  37
ENDBRANCH  30  31
ENDBRANCH   4  29
TORSDOF 7
