REMARK  Name = ZINC33253448
REMARK  7 active torsions:
REMARK  status: ('A' for Active; 'I' for Inactive)
REMARK    1  A    between atoms: C_4  and  S_7
REMARK    2  A    between atoms: S_7  and  N_10
REMARK    3  A    between atoms: N_10  and  C_11
REMARK    4  A    between atoms: C_14  and  N_20
REMARK    5  A    between atoms: C_15  and  C_17
REMARK    6  A    between atoms: C_23  and  C_26
REMARK    7  A    between atoms: C_23  and  N_29
REMARK                            x       y       z     vdW  Elec       q    Type
REMARK                         _______ _______ _______ _____ _____    ______ ____
ROOT
ATOM      1  C   UNL     1       7.091  -1.305   7.715  0.00  0.00    +0.049 A 
ATOM      2  C   UNL     1       6.362  -2.257   7.008  0.00  0.00    +0.026 A 
ATOM      3  C   UNL     1       5.567  -1.879   5.946  0.00  0.00    +0.026 A 
ATOM      4  C   UNL     1       5.489  -0.543   5.573  0.00  0.00    +0.044 A 
ATOM      5  C   UNL     1       6.226   0.421   6.277  0.00  0.00    +0.086 A 
ATOM      6  C   UNL     1       7.024   0.029   7.356  0.00  0.00    +0.041 A 
ENDROOT
BRANCH   4   7
ATOM      7  N   UNL     1       4.688  -0.164   4.501  0.00  0.00    -0.329 N 
ATOM      8  C   UNL     1       5.180  -0.744   3.245  0.00  0.00    +0.104 C 
ATOM      9  C   UNL     1       4.366  -0.191   2.073  0.00  0.00    +0.016 C 
ATOM     10  C   UNL     1       2.889  -0.540   2.274  0.00  0.00    +0.015 C 
ATOM     11  C   UNL     1       2.413   0.034   3.612  0.00  0.00    +0.016 C 
ATOM     12  C   UNL     1       3.285  -0.525   4.739  0.00  0.00    +0.104 C 
BRANCH  10  13
ATOM     13  N   UNL     1       2.095   0.039   1.182  0.00  0.00    +0.389 N 
ATOM     14  C   UNL     1       0.683  -0.351   1.293  0.00  0.00    -0.077 C 
ATOM     15  C   UNL     1      -0.083   0.146   0.066  0.00  0.00    -0.019 C 
ATOM     16  C   UNL     1       0.038   1.669  -0.024  0.00  0.00    -0.004 C 
ATOM     17  C   UNL     1       1.520   2.052  -0.090  0.00  0.00    -0.019 C 
ATOM     18  C   UNL     1       2.240   1.500   1.142  0.00  0.00    -0.077 C 
ATOM     19  H   UNL     1       2.479  -0.362   0.233  0.00  0.00    -0.080 HD
ENDBRANCH  10  13
BRANCH  10  20
ATOM     20  C   UNL     1       2.721  -2.037   2.280  0.00  0.00    +0.200 C 
ATOM     21  O   UNL     1       2.632  -2.633   3.332  0.00  0.00    -0.278 OA
ATOM     22  N   UNL     1       2.671  -2.714   1.115  0.00  0.00    -0.330 N 
ATOM     23  H   UNL     1       2.549  -3.808   1.119  0.00  0.00    +0.145 HD
ATOM     24  H   UNL     1       2.753  -2.174   0.161  0.00  0.00    +0.145 HD
ENDBRANCH  10  20
ENDBRANCH   4   7
BRANCH   5  25
ATOM     25  C   UNL     1       6.155   1.839   5.885  0.00  0.00    +0.388 C 
ATOM     26  O   UNL     1       5.389   2.190   5.010  0.00  0.00    -0.241 OA
ATOM     27  O   UNL     1       6.940   2.748   6.497  0.00  0.00    -0.241 OA
ENDBRANCH   5  25
BRANCH   1  28
ATOM     28  N   UNL     1       7.894  -1.699   8.791  0.00  0.00    -0.216 N 
ATOM     29  H   UNL     1       7.875  -1.127   9.730  0.00  0.00    +0.174 HD
BRANCH  28  30
ATOM     30  S   UNL     1       8.874  -3.027   8.650  0.00  0.00    +0.072 S 
ATOM     31  O   UNL     1       9.572  -3.149   9.882  0.00  0.00    -0.150 OA
ATOM     32  O   UNL     1       8.068  -4.072   8.124  0.00  0.00    -0.150 OA
BRANCH  30  36
ATOM     33  C   UNL     1      11.977  -2.073   5.495  0.00  0.00    +0.000 A 
ATOM     34  C   UNL     1      12.226  -1.775   6.822  0.00  0.00    +0.002 A 
ATOM     35  C   UNL     1      11.278  -2.066   7.785  0.00  0.00    +0.029 A 
ATOM     36  C   UNL     1      10.082  -2.656   7.422  0.00  0.00    +0.108 A 
ATOM     37  C   UNL     1       9.835  -2.959   6.096  0.00  0.00    +0.029 A 
ATOM     38  C   UNL     1      10.780  -2.663   5.132  0.00  0.00    +0.002 A 
ENDBRANCH  30  36
ENDBRANCH  28  30
ENDBRANCH   1  28
TORSDOF 7
