REMARK  Name = ZINC38926088
REMARK  4 active torsions:
REMARK  status: ('A' for Active; 'I' for Inactive)
REMARK    1  A    between atoms: C_3  and  O_23
REMARK    2  A    between atoms: C_4  and  C_8
REMARK    3  A    between atoms: N_9  and  N_10
REMARK    4  A    between atoms: C_11  and  C_13
REMARK                            x       y       z     vdW  Elec       q    Type
REMARK                         _______ _______ _______ _____ _____    ______ ____
ROOT
ATOM      1  N   UNL     1       6.029  -0.708  -0.061  0.00  0.00    -0.205 N 
ATOM      2  C   UNL     1       7.187  -0.018  -0.069  0.00  0.00    +0.263 C 
ATOM      3  O   UNL     1       7.170   1.195  -0.062  0.00  0.00    -0.271 OA
ATOM      4  H   UNL     1       6.043  -1.678  -0.066  0.00  0.00    +0.177 HD
ENDROOT
BRANCH   2   5
ATOM      5  C   UNL     1       8.502  -0.753  -0.086  0.00  0.00    +0.243 C 
ATOM      6  C   UNL     1       8.867  -1.164  -1.489  0.00  0.00    -0.012 C 
ATOM      7  C   UNL     1      10.015  -0.529  -1.747  0.00  0.00    +0.065 C 
ATOM      8  C   UNL     1      10.750  -0.658  -3.063  0.00  0.00    +0.057 C 
ATOM      9  C   UNL     1      10.225  -1.899  -3.794  0.00  0.00    +0.006 C 
ATOM     10  C   UNL     1       8.694  -1.859  -3.843  0.00  0.00    +0.005 C 
ATOM     11  C   UNL     1       8.138  -2.078  -2.429  0.00  0.00    +0.035 C 
ATOM     12  N   UNL     1      10.384   0.211  -0.678  0.00  0.00    -0.158 NA
ATOM     13  N   UNL     1       9.610   0.148   0.289  0.00  0.00    -0.170 NA
ENDBRANCH   2   5
BRANCH   1  15
ATOM     14  C   UNL     1       3.692  -0.690  -0.037  0.00  0.00    +0.142 C 
ATOM     15  N   UNL     1       4.806  -0.025  -0.045  0.00  0.00    -0.188 NA
BRANCH  14  19
ATOM     16  C   UNL     1      -0.017   1.381   0.010  0.00  0.00    +0.019 A 
ATOM     17  C   UNL     1       1.166   2.096   0.002  0.00  0.00    +0.047 A 
ATOM     18  C   UNL     1       2.381   1.430  -0.013  0.00  0.00    +0.126 A 
ATOM     19  C   UNL     1       2.405   0.028  -0.021  0.00  0.00    +0.037 A 
ATOM     20  C   UNL     1       1.204  -0.683  -0.013  0.00  0.00    +0.028 A 
ATOM     21  C   UNL     1       0.002  -0.004   0.002  0.00  0.00    +0.019 A 
ATOM     22 BR   UNL     1      -1.625  -0.968   0.012  0.00  0.00    -0.050 Br
BRANCH  18  23
ATOM     23  O   UNL     1       3.543   2.132  -0.021  0.00  0.00    -0.506 OA
ATOM     24  H   UNL     1       3.888   2.331   0.860  0.00  0.00    +0.292 HD
ENDBRANCH  18  23
ENDBRANCH  14  19
ENDBRANCH   1  15
TORSDOF 4
