REMARK  Name = ZINC60162300
REMARK  6 active torsions:
REMARK  status: ('A' for Active; 'I' for Inactive)
REMARK    1  A    between atoms: C_1  and  C_2
REMARK    2  A    between atoms: C_3  and  C_9
REMARK    3  A    between atoms: C_4  and  C_8
REMARK    4  A    between atoms: N_5  and  C_7
REMARK    5  A    between atoms: C_9  and  C_11
REMARK    6  A    between atoms: C_9  and  N_12
REMARK                            x       y       z     vdW  Elec       q    Type
REMARK                         _______ _______ _______ _____ _____    ______ ____
ROOT
ATOM      1  N   UNL     1      -0.611   0.848  -2.746  0.00  0.00    -0.292 N 
ATOM      2  C   UNL     1      -1.168   1.100  -3.947  0.00  0.00    +0.307 C 
ATOM      3  O   UNL     1      -0.907   0.390  -4.899  0.00  0.00    -0.252 OA
ATOM      4  N   UNL     1      -2.015   2.138  -4.093  0.00  0.00    -0.255 N 
ATOM      5  C   UNL     1      -2.325   3.122  -3.052  0.00  0.00    +0.120 C 
ATOM      6  C   UNL     1      -3.328   4.091  -3.699  0.00  0.00    +0.056 C 
ATOM      7  C   UNL     1      -3.515   3.564  -5.104  0.00  0.00    -0.024 A 
ATOM      8  C   UNL     1      -2.722   2.438  -5.261  0.00  0.00    +0.041 A 
ATOM      9  C   UNL     1      -2.725   1.774  -6.489  0.00  0.00    +0.024 A 
ATOM     10  C   UNL     1      -3.503   2.237  -7.529  0.00  0.00    +0.002 A 
ATOM     11  C   UNL     1      -4.288   3.363  -7.362  0.00  0.00    +0.000 A 
ATOM     12  C   UNL     1      -4.296   4.022  -6.147  0.00  0.00    +0.005 A 
ATOM     13  H   UNL     1      -0.763   1.455  -2.004  0.00  0.00    +0.151 HD
ENDROOT
BRANCH   1  14
ATOM     14  C   UNL     1       0.224  -0.341  -2.560  0.00  0.00    +0.105 C 
ATOM     15  C   UNL     1       1.674  -0.007  -2.915  0.00  0.00    +0.033 C 
BRANCH  14  18
ATOM     16  C   UNL     1      -0.213  -3.315  -1.556  0.00  0.00    +0.068 C 
ATOM     17  C   UNL     1      -0.044  -2.101  -0.679  0.00  0.00    +0.065 A 
ATOM     18  C   UNL     1       0.148  -0.789  -1.123  0.00  0.00    +0.016 A 
ATOM     19  C   UNL     1       0.255   0.008  -0.035  0.00  0.00    +0.041 A 
ATOM     20  N   UNL     1       0.135  -0.773   1.060  0.00  0.00    -0.271 N 
ATOM     21  N   UNL     1      -0.057  -2.092   0.629  0.00  0.00    -0.176 NA
ATOM     22  C   UNL     1       0.190  -0.320   2.452  0.00  0.00    +0.172 C 
ATOM     23  C   UNL     1       0.470   1.499  -0.043  0.00  0.00    +0.065 C 
ENDBRANCH  14  18
ENDBRANCH   1  14
TORSDOF 2
