REMARK  Name = ZINC02805841
REMARK  6 active torsions:
REMARK  status: ('A' for Active; 'I' for Inactive)
REMARK    1  A    between atoms: C_4  and  O_26
REMARK    2  A    between atoms: C_5  and  C_7
REMARK    3  A    between atoms: N_9  and  N_10
REMARK    4  A    between atoms: C_11  and  C_12
REMARK    5  A    between atoms: C_15  and  S_17
REMARK    6  A    between atoms: S_17  and  C_18
REMARK                            x       y       z     vdW  Elec       q    Type
REMARK                         _______ _______ _______ _____ _____    ______ ____
ROOT
ATOM      1  N   UNL     1      -1.119  -0.671   0.046  0.00  0.00    -0.184 NA
ATOM      2  C   UNL     1       0.000  -0.005   0.033  0.00  0.00    +0.176 C 
ENDROOT
BRANCH   2   3
ATOM      3  C   UNL     1      -0.019   1.457   0.032  0.00  0.00    +0.150 A 
ATOM      4  C   UNL     1       1.077   2.274   0.019  0.00  0.00    +0.067 A 
ATOM      5  C   UNL     1       0.602   3.594   0.022  0.00  0.00    +0.071 A 
ATOM      6  C   UNL     1      -0.757   3.529   0.037  0.00  0.00    +0.181 A 
ATOM      7  O   UNL     1      -1.124   2.235   0.036  0.00  0.00    -0.446 OA
ATOM      8 BR   UNL     1       1.652   5.167   0.010  0.00  0.00    -0.046 Br
BRANCH   6   9
ATOM      9  S   UNL     1      -1.853   4.908   0.045  0.00  0.00    -0.051 S 
BRANCH   9  10
ATOM     10  C   UNL     1      -3.398   4.073  -0.095  0.00  0.00    +0.016 A 
ATOM     11  C   UNL     1      -3.891   3.726  -1.347  0.00  0.00    +0.016 A 
ATOM     12  C   UNL     1      -5.099   3.066  -1.454  0.00  0.00    +0.021 A 
ATOM     13  C   UNL     1      -5.825   2.760  -0.316  0.00  0.00    +0.041 A 
ATOM     14  C   UNL     1      -5.339   3.109   0.932  0.00  0.00    +0.021 A 
ATOM     15  C   UNL     1      -4.129   3.764   1.046  0.00  0.00    +0.016 A 
ATOM     16 CL   UNL     1      -7.346   1.936  -0.454  0.00  0.00    -0.084 Cl
ENDBRANCH   9  10
ENDBRANCH   6   9
ENDBRANCH   2   3
BRANCH   1  19
ATOM     17  C   UNL     1      -2.259  -2.761   0.060  0.00  0.00    +0.267 C 
ATOM     18  O   UNL     1      -3.321  -2.167   0.071  0.00  0.00    -0.268 OA
ATOM     19  N   UNL     1      -1.101  -2.072   0.048  0.00  0.00    -0.203 N 
ATOM     20  H   UNL     1      -0.255  -2.546   0.039  0.00  0.00    +0.178 HD
BRANCH  17  25
ATOM     21  C   UNL     1      -1.011  -6.301   0.051  0.00  0.00    +0.001 A 
ATOM     22  C   UNL     1      -2.202  -7.009   0.064  0.00  0.00    +0.004 A 
ATOM     23  C   UNL     1      -3.411  -6.343   0.077  0.00  0.00    +0.046 A 
ATOM     24  C   UNL     1      -3.441  -4.957   0.075  0.00  0.00    +0.129 A 
ATOM     25  C   UNL     1      -2.240  -4.236   0.062  0.00  0.00    +0.080 A 
ATOM     26  C   UNL     1      -1.023  -4.923   0.045  0.00  0.00    +0.017 A 
BRANCH  24  27
ATOM     27  O   UNL     1      -4.629  -4.301   0.087  0.00  0.00    -0.506 OA
ATOM     28  H   UNL     1      -4.983  -4.112  -0.793  0.00  0.00    +0.292 HD
ENDBRANCH  24  27
ENDBRANCH  17  25
ENDBRANCH   1  19
TORSDOF 6
