REMARK  Name = ZINC22843211
REMARK  9 active torsions:
REMARK  status: ('A' for Active; 'I' for Inactive)
REMARK    1  A    between atoms: C_1  and  C_2
REMARK    2  A    between atoms: C_6  and  C_41
REMARK    3  A    between atoms: C_7  and  O_8
REMARK    4  A    between atoms: O_8  and  C_9
REMARK    5  A    between atoms: C_9  and  C_10
REMARK    6  A    between atoms: C_13  and  C_16
REMARK    7  A    between atoms: C_29  and  C_40
REMARK    8  A    between atoms: C_32  and  C_34
REMARK    9  A    between atoms: N_37  and  C_39
REMARK                            x       y       z     vdW  Elec       q    Type
REMARK                         _______ _______ _______ _____ _____    ______ ____
ROOT
ATOM      1  C   UNL     1      -0.482   3.101   7.915  0.00  0.00    +0.182 A 
ATOM      2  N   UNL     1      -0.408   4.432   8.041  0.00  0.00    -0.206 NA
ATOM      3  C   UNL     1      -0.233   4.742   9.303  0.00  0.00    +0.167 A 
ATOM      4  C   UNL     1      -0.093   5.976   9.969  0.00  0.00    +0.067 A 
ATOM      5  C   UNL     1       0.075   5.915  11.324  0.00  0.00    +0.231 A 
ATOM      6  N   UNL     1       0.109   4.736  11.966  0.00  0.00    -0.201 NA
ATOM      7  C   UNL     1      -0.018   3.576  11.370  0.00  0.00    +0.229 A 
ATOM      8  N   UNL     1      -0.192   3.564  10.024  0.00  0.00    -0.201 N 
ATOM      9  N   UNL     1      -0.360   2.537   9.106  0.00  0.00    -0.143 NA
ATOM     10  O   UNL     1       0.208   7.047  12.080  0.00  0.00    -0.421 OA
ATOM     11  C   UNL     1       0.336   8.186  11.373  0.00  0.00    +0.227 C 
ATOM     12  N   UNL     1       1.072   9.227  11.524  0.00  0.00    -0.115 NA
ATOM     13  N   UNL     1       0.938  10.121  10.461  0.00  0.00    -0.155 NA
ATOM     14  C   UNL     1       0.073   9.723   9.585  0.00  0.00    +0.051 C 
ATOM     15  C   UNL     1      -0.483   8.418  10.104  0.00  0.00    +0.135 C 
ATOM     16  C   UNL     1      -0.130   7.253   9.174  0.00  0.00    +0.078 C 
ATOM     17  C   UNL     1      -0.304  10.421   8.304  0.00  0.00    +0.063 C 
ENDROOT
BRANCH   1  21
ATOM     18  C   UNL     1      -1.046   1.011   4.254  0.00  0.00    -0.010 A 
ATOM     19  C   UNL     1      -0.929   0.307   5.439  0.00  0.00    +0.007 A 
ATOM     20  C   UNL     1      -0.746   0.980   6.630  0.00  0.00    +0.012 A 
ATOM     21  C   UNL     1      -0.679   2.372   6.637  0.00  0.00    +0.021 A 
ATOM     22  C   UNL     1      -0.796   3.076   5.441  0.00  0.00    +0.012 A 
ATOM     23  C   UNL     1      -0.974   2.392   4.255  0.00  0.00    +0.007 A 
BRANCH  18  24
ATOM     24  C   UNL     1      -1.246   0.270   2.957  0.00  0.00    +0.264 C 
BRANCH  24  25
ATOM     25  O   UNL     1       0.025  -0.033   2.381  0.00  0.00    -0.487 OA
BRANCH  25  32
ATOM     26  C   UNL     1      -0.018   1.503   0.010  0.00  0.00    +0.047 C 
ATOM     27  C   UNL     1       0.002  -0.004   0.002  0.00  0.00    -0.009 A 
ATOM     28  C   UNL     1       0.006  -0.689  -1.198  0.00  0.00    +0.007 A 
ATOM     29  C   UNL     1       0.024  -2.071  -1.206  0.00  0.00    +0.001 A 
ATOM     30  C   UNL     1       0.040  -2.772  -0.014  0.00  0.00    +0.007 A 
ATOM     31  C   UNL     1       0.036  -2.092   1.188  0.00  0.00    -0.009 A 
ATOM     32  C   UNL     1       0.023  -0.705   1.199  0.00  0.00    +0.127 A 
ATOM     33  C   UNL     1       0.052  -2.856   2.487  0.00  0.00    +0.047 C 
ENDBRANCH  25  32
ENDBRANCH  24  25
ENDBRANCH  18  24
ENDBRANCH   1  21
BRANCH  16  34
ATOM     34  C   UNL     1       1.221   7.498   8.552  0.00  0.00    -0.001 A 
ATOM     35  C   UNL     1       2.429   7.651   9.241  0.00  0.00    +0.138 A 
ATOM     36  N   UNL     1       3.378   7.846   8.362  0.00  0.00    -0.180 NA
ATOM     37  N   UNL     1       2.804   7.822   7.085  0.00  0.00    -0.274 N 
ATOM     38  C   UNL     1       1.481   7.602   7.228  0.00  0.00    +0.112 A 
ATOM     39  C   UNL     1       3.516   8.000   5.817  0.00  0.00    +0.172 C 
ENDBRANCH  16  34
TORSDOF 5
