REMARK  Name = ZINC39325182
REMARK  8 active torsions:
REMARK  status: ('A' for Active; 'I' for Inactive)
REMARK    1  A    between atoms: C_1  and  C_2
REMARK    2  A    between atoms: C_2  and  O_3
REMARK    3  A    between atoms: O_3  and  C_4
REMARK    4  A    between atoms: C_13  and  C_25
REMARK    5  A    between atoms: C_15  and  C_21
REMARK    6  A    between atoms: C_15  and  C_23
REMARK    7  A    between atoms: C_16  and  N_20
REMARK    8  A    between atoms: C_17  and  C_18
REMARK                            x       y       z     vdW  Elec       q    Type
REMARK                         _______ _______ _______ _____ _____    ______ ____
ROOT
ATOM      1  C   UNL     1      -0.167  -2.962  -0.231  0.00  0.00    +0.403 C 
ATOM      2  O   UNL     1       0.550  -3.822  -0.702  0.00  0.00    -0.226 OA
ATOM      3  N   UNL     1      -1.438  -3.257   0.109  0.00  0.00    -0.263 N 
ATOM      4  C   UNL     1      -2.289  -2.283   0.817  0.00  0.00    +0.138 C 
ATOM      5  C   UNL     1      -3.528  -2.088  -0.020  0.00  0.00    -0.003 C 
ATOM      6  C   UNL     1      -3.974  -3.044  -0.811  0.00  0.00    -0.026 C 
ATOM      7  C   UNL     1      -3.345  -4.399  -0.939  0.00  0.00    +0.044 C 
ATOM      8  C   UNL     1      -2.034  -4.557  -0.215  0.00  0.00    +0.120 C 
ATOM      9  C   UNL     1      -3.223  -4.734  -2.426  0.00  0.00    +0.041 C 
ATOM     10  C   UNL     1      -4.626  -4.819  -3.030  0.00  0.00    +0.184 C 
ATOM     11  C   UNL     1      -5.450  -3.615  -2.687  0.00  0.00    +0.054 C 
ATOM     12  C   UNL     1      -5.173  -2.783  -1.653  0.00  0.00    +0.074 C 
ENDROOT
BRANCH   9  13
ATOM     13  C   UNL     1      -2.422  -3.640  -3.134  0.00  0.00    -0.000 C 
ATOM     14  C   UNL     1      -1.806  -4.203  -4.421  0.00  0.00    +0.008 C 
ATOM     15  C   UNL     1      -1.165  -3.049  -5.195  0.00  0.00    +0.027 C 
ATOM     16  C   UNL     1      -0.284  -2.243  -4.286  0.00  0.00    -0.031 C 
ATOM     17  C   UNL     1      -0.342  -2.288  -2.993  0.00  0.00    -0.031 C 
ATOM     18  C   UNL     1      -1.292  -3.158  -2.222  0.00  0.00    +0.030 C 
ENDBRANCH   9  13
BRANCH  11  19
ATOM     19  N   UNL     1      -6.543  -3.341  -3.461  0.00  0.00    -0.358 N 
ATOM     20  H   UNL     1      -6.766  -3.919  -4.207  0.00  0.00    +0.142 HD
ATOM     21  H   UNL     1      -7.096  -2.569  -3.263  0.00  0.00    +0.142 HD
ENDBRANCH  11  19
BRANCH  12  22
ATOM     22  C   UNL     1      -6.025  -1.666  -1.373  0.00  0.00    +0.101 C 
ATOM     23  N   UNL     1      -6.700  -0.780  -1.152  0.00  0.00    -0.191 NA
ENDBRANCH  12  22
BRANCH  10  24
ATOM     24  C   UNL     1      -5.298  -6.024  -2.517  0.00  0.00    +0.091 C 
ATOM     25  N   UNL     1      -5.817  -6.953  -2.120  0.00  0.00    -0.195 NA
ENDBRANCH  10  24
BRANCH  10  26
ATOM     26  C   UNL     1      -4.512  -4.922  -4.494  0.00  0.00    +0.091 C 
ATOM     27  N   UNL     1      -4.425  -5.001  -5.624  0.00  0.00    -0.195 NA
ENDBRANCH  10  26
BRANCH   1  28
ATOM     28  O   UNL     1       0.307  -1.716  -0.047  0.00  0.00    -0.451 OA
BRANCH  28  30
ATOM     29  C   UNL     1       2.020  -0.013  -0.149  0.00  0.00    +0.048 C 
ATOM     30  C   UNL     1       1.663  -1.475  -0.430  0.00  0.00    +0.230 C 
ENDBRANCH  28  30
ENDBRANCH   1  28
TORSDOF 7
