REMARK  Name = ZINC38827755
REMARK  15 active torsions:
REMARK  status: ('A' for Active; 'I' for Inactive)
REMARK    1  A    between atoms: C_1  and  N_2
REMARK    2  A    between atoms: N_2  and  C_3
REMARK    3  A    between atoms: N_2  and  C_4
REMARK    4  A    between atoms: C_4  and  C_5
REMARK    5  A    between atoms: C_5  and  C_6
REMARK    6  A    between atoms: C_6  and  N_7
REMARK    7  A    between atoms: C_11  and  O_19
REMARK    8  A    between atoms: C_14  and  O_17
REMARK    9  A    between atoms: O_17  and  C_18
REMARK   10  A    between atoms: O_19  and  C_20
REMARK   11  A    between atoms: C_21  and  C_23
REMARK   12  A    between atoms: C_23  and  C_24
REMARK   13  A    between atoms: C_24  and  C_25
REMARK   14  A    between atoms: C_25  and  S_26
REMARK   15  A    between atoms: S_26  and  C_29
REMARK                            x       y       z     vdW  Elec       q    Type
REMARK                         _______ _______ _______ _____ _____    ______ ____
ROOT
ATOM      1  N   UNL     1      -2.777  -4.025  -0.239  0.00  0.00    -0.250 N 
ATOM      2  C   UNL     1      -2.721  -4.820   0.895  0.00  0.00    +0.168 A 
ATOM      3  N   UNL     1      -2.684  -4.456   2.155  0.00  0.00    -0.221 NA
ATOM      4  C   UNL     1      -2.631  -5.349   3.168  0.00  0.00    +0.125 A 
ATOM      5  C   UNL     1      -2.587  -5.089   4.562  0.00  0.00    +0.147 A 
ATOM      6  C   UNL     1      -2.535  -6.121   5.468  0.00  0.00    +0.051 A 
ATOM      7  C   UNL     1      -2.524  -7.446   5.056  0.00  0.00    +0.050 A 
ATOM      8  C   UNL     1      -2.566  -7.736   3.701  0.00  0.00    +0.136 A 
ATOM      9  C   UNL     1      -2.619  -6.707   2.787  0.00  0.00    +0.086 A 
ATOM     10  S   UNL     1      -2.690  -6.603   1.014  0.00  0.00    -0.048 S 
ATOM     11  C   UNL     1      -2.815  -4.595  -1.460  0.00  0.00    +0.221 C 
ATOM     12  O   UNL     1      -2.801  -5.803  -1.566  0.00  0.00    -0.275 OA
ENDROOT
BRANCH   8  13
ATOM     13  O   UNL     1      -2.556  -9.029   3.277  0.00  0.00    -0.494 OA
ATOM     14  C   UNL     1      -2.501 -10.041   4.284  0.00  0.00    +0.277 C 
ENDBRANCH   8  13
BRANCH   5  15
ATOM     15  O   UNL     1      -2.595  -3.803   5.008  0.00  0.00    -0.493 OA
ATOM     16  C   UNL     1      -2.549  -3.606   6.422  0.00  0.00    +0.277 C 
ENDBRANCH   5  15
BRANCH   1  17
ATOM     17  C   UNL     1      -2.794  -2.566  -0.111  0.00  0.00    +0.114 C 
BRANCH  17  18
ATOM     18  C   UNL     1      -1.358  -2.037  -0.122  0.00  0.00    +0.001 C 
BRANCH  18  19
ATOM     19  C   UNL     1      -1.376  -0.512   0.012  0.00  0.00    -0.078 C 
BRANCH  19  21
ATOM     20  C   UNL     1      -0.018   1.465   0.010  0.00  0.00    -0.097 C 
ATOM     21  N   UNL     1       0.002  -0.004   0.002  0.00  0.00    +0.376 N 
ATOM     22  C   UNL     1       0.713  -0.491   1.192  0.00  0.00    -0.097 C 
ATOM     23  H   UNL     1       0.474  -0.330  -0.828  0.00  0.00    -0.083 HD
ENDBRANCH  19  21
ENDBRANCH  18  19
ENDBRANCH  17  18
ENDBRANCH   1  17
BRANCH  11  24
ATOM     24  C   UNL     1      -2.876  -3.731  -2.693  0.00  0.00    +0.098 C 
BRANCH  24  25
ATOM     25  C   UNL     1      -2.911  -4.620  -3.938  0.00  0.00    +0.032 C 
BRANCH  25  26
ATOM     26  C   UNL     1      -2.972  -3.742  -5.190  0.00  0.00    +0.172 C 
BRANCH  26  27
ATOM     27  S   UNL     1      -3.013  -4.796  -6.665  0.00  0.00    -0.003 S 
ATOM     28  O   UNL     1      -1.773  -5.473  -6.818  0.00  0.00    -0.169 OA
ATOM     29  O   UNL     1      -4.240  -5.510  -6.723  0.00  0.00    -0.169 OA
BRANCH  27  30
ATOM     30  C   UNL     1      -3.082  -3.674  -8.022  0.00  0.00    +0.088 A 
ATOM     31  C   UNL     1      -4.306  -3.247  -8.504  0.00  0.00    +0.030 A 
ATOM     32  C   UNL     1      -4.361  -2.367  -9.567  0.00  0.00    +0.040 A 
ATOM     33  C   UNL     1      -3.191  -1.911 -10.150  0.00  0.00    +0.124 A 
ATOM     34  C   UNL     1      -1.966  -2.339  -9.667  0.00  0.00    +0.040 A 
ATOM     35  C   UNL     1      -1.913  -3.216  -8.600  0.00  0.00    +0.030 A 
ATOM     36  F   UNL     1      -3.244  -1.051 -11.190  0.00  0.00    -0.205 F 
ENDBRANCH  27  30
ENDBRANCH  26  27
ENDBRANCH  25  26
ENDBRANCH  24  25
ENDBRANCH  11  24
TORSDOF 11
