REMARK  Name = ZINC38710040
REMARK  2 active torsions:
REMARK  status: ('A' for Active; 'I' for Inactive)
REMARK    1  A    between atoms: C_1  and  C_2
REMARK    2  A    between atoms: C_4  and  C_17
REMARK                            x       y       z     vdW  Elec       q    Type
REMARK                         _______ _______ _______ _____ _____    ______ ____
ROOT
ATOM      1  C   UNL     1      -0.018   1.503   0.010  0.00  0.00    +0.067 C 
ATOM      2  C   UNL     1       0.002  -0.004   0.002  0.00  0.00    +0.064 C 
ATOM      3  C   UNL     1      -1.065  -0.769   0.003  0.00  0.00    +0.009 C 
ATOM      4  C   UNL     1      -2.535  -0.470   0.152  0.00  0.00    +0.089 C 
ATOM      5  C   UNL     1      -3.046  -1.528   1.120  0.00  0.00    +0.068 C 
ATOM      6  C   UNL     1      -2.308  -2.595   1.512  0.00  0.00    +0.055 C 
ATOM      7  C   UNL     1      -3.177  -3.384   2.457  0.00  0.00    +0.283 C 
ATOM      8  O   UNL     1      -4.411  -2.656   2.531  0.00  0.00    -0.455 OA
ATOM      9  C   UNL     1      -4.303  -1.572   1.737  0.00  0.00    +0.338 C 
ATOM     10  O   UNL     1      -5.181  -0.743   1.577  0.00  0.00    -0.245 OA
ATOM     11  N   UNL     1      -1.026  -2.884   1.121  0.00  0.00    -0.318 N 
ATOM     12  C   UNL     1      -0.529  -2.197  -0.084  0.00  0.00    +0.241 C 
ATOM     13  N   UNL     1       0.921  -1.985  -0.029  0.00  0.00    -0.160 NA
ATOM     14  N   UNL     1       1.126  -0.764  -0.013  0.00  0.00    -0.157 NA
ATOM     15  H   UNL     1      -0.473  -3.511   1.613  0.00  0.00    +0.148 HD
ENDROOT
BRANCH   4  16
ATOM     16  C   UNL     1      -3.233  -0.591  -1.178  0.00  0.00    -0.034 A 
ATOM     17  C   UNL     1      -3.223  -1.794  -1.858  0.00  0.00    +0.004 A 
ATOM     18  C   UNL     1      -3.862  -1.905  -3.079  0.00  0.00    +0.002 A 
ATOM     19  C   UNL     1      -4.513  -0.812  -3.620  0.00  0.00    +0.020 A 
ATOM     20  C   UNL     1      -4.524   0.393  -2.940  0.00  0.00    +0.041 A 
ATOM     21  C   UNL     1      -3.888   0.501  -1.716  0.00  0.00    +0.024 A 
ATOM     22 CL   UNL     1      -5.340   1.766  -3.619  0.00  0.00    -0.084 Cl
ENDBRANCH   4  16
TORSDOF 1
