REMARK  Name = ZINC39197235
REMARK  12 active torsions:
REMARK  status: ('A' for Active; 'I' for Inactive)
REMARK    1  A    between atoms: C_1  and  C_2
REMARK    2  A    between atoms: C_2  and  C_3
REMARK    3  A    between atoms: C_8  and  N_9
REMARK    4  A    between atoms: C_10  and  C_29
REMARK    5  A    between atoms: C_12  and  C_14
REMARK    6  A    between atoms: N_16  and  C_17
REMARK    7  A    between atoms: N_16  and  C_22
REMARK    8  A    between atoms: C_17  and  C_18
REMARK    9  A    between atoms: C_18  and  N_19
REMARK   10  A    between atoms: N_19  and  C_20
REMARK   11  A    between atoms: N_19  and  C_21
REMARK   12  A    between atoms: C_22  and  C_23
REMARK                            x       y       z     vdW  Elec       q    Type
REMARK                         _______ _______ _______ _____ _____    ______ ____
ROOT
ATOM      1  N   UNL     1      -1.067  -1.881  -3.550  0.00  0.00    -0.231 N 
ATOM      2  C   UNL     1      -1.474  -1.726  -4.845  0.00  0.00    +0.075 A 
ATOM      3  C   UNL     1      -0.617  -0.832  -5.424  0.00  0.00    +0.063 A 
ATOM      4  C   UNL     1       0.301  -0.479  -4.410  0.00  0.00    +0.148 A 
ATOM      5  N   UNL     1      -0.040  -1.143  -3.323  0.00  0.00    -0.161 NA
ENDROOT
BRANCH   2   6
ATOM      6  C   UNL     1      -2.622  -2.395  -5.496  0.00  0.00    +0.002 A 
ATOM      7  C   UNL     1      -3.657  -2.918  -4.720  0.00  0.00    +0.014 A 
ATOM      8  C   UNL     1      -4.729  -3.543  -5.325  0.00  0.00    +0.048 A 
ATOM      9  C   UNL     1      -4.779  -3.652  -6.705  0.00  0.00    +0.142 A 
ATOM     10  C   UNL     1      -3.747  -3.132  -7.487  0.00  0.00    +0.076 A 
ATOM     11  C   UNL     1      -2.673  -2.500  -6.886  0.00  0.00    +0.037 A 
ATOM     12  N   UNL     1      -3.815  -3.254  -8.882  0.00  0.00    -0.280 N 
ATOM     13  C   UNL     1      -4.996  -3.575  -9.454  0.00  0.00    +0.255 C 
ATOM     14  O   UNL     1      -5.072  -3.715 -10.657  0.00  0.00    -0.272 OA
ATOM     15  C   UNL     1      -6.218  -3.760  -8.592  0.00  0.00    +0.325 C 
ATOM     16  O   UNL     1      -5.831  -4.265  -7.311  0.00  0.00    -0.481 OA
ATOM     17  H   UNL     1      -3.027  -3.109  -9.428  0.00  0.00    +0.155 HD
ENDBRANCH   2   6
BRANCH   1  23
ATOM     18  C   UNL     1      -2.375  -2.165  -1.539  0.00  0.00    -0.022 A 
ATOM     19  C   UNL     1      -2.985  -2.991  -0.615  0.00  0.00    +0.006 A 
ATOM     20  C   UNL     1      -2.901  -4.365  -0.752  0.00  0.00    +0.000 A 
ATOM     21  C   UNL     1      -2.206  -4.916  -1.813  0.00  0.00    +0.002 A 
ATOM     22  C   UNL     1      -1.594  -4.095  -2.740  0.00  0.00    +0.028 A 
ATOM     23  C   UNL     1      -1.682  -2.715  -2.609  0.00  0.00    +0.069 A 
BRANCH  18  25
ATOM     24  C   UNL     1      -3.623  -0.141  -2.241  0.00  0.00    +0.009 C 
ATOM     25  C   UNL     1      -2.467  -0.668  -1.389  0.00  0.00    +0.034 C 
ENDBRANCH  18  25
ENDBRANCH   1  23
BRANCH   4  26
ATOM     26  C   UNL     1       1.430   0.463  -4.542  0.00  0.00    +0.267 C 
ATOM     27  O   UNL     1       1.581   1.092  -5.572  0.00  0.00    -0.268 OA
ATOM     28  N   UNL     1       2.294   0.626  -3.520  0.00  0.00    -0.294 N 
BRANCH  28  29
ATOM     29  C   UNL     1       2.164  -0.193  -2.313  0.00  0.00    +0.090 C 
BRANCH  29  30
ATOM     30  C   UNL     1       2.838  -1.547  -2.540  0.00  0.00    -0.060 C 
BRANCH  30  31
ATOM     31  N   UNL     1       2.733  -2.358  -1.320  0.00  0.00    +0.377 N 
ATOM     32  C   UNL     1       1.318  -2.628  -1.032  0.00  0.00    -0.097 C 
ATOM     33  C   UNL     1       3.444  -3.629  -1.513  0.00  0.00    -0.097 C 
ATOM     34  H   UNL     1       3.144  -1.857  -0.547  0.00  0.00    -0.083 HD
ENDBRANCH  30  31
ENDBRANCH  29  30
ENDBRANCH  28  29
BRANCH  28  35
ATOM     35  C   UNL     1       3.363   1.623  -3.617  0.00  0.00    +0.143 C 
BRANCH  35  36
ATOM     36  C   UNL     1       2.870   2.942  -3.080  0.00  0.00    -0.030 A 
ATOM     37  C   UNL     1       2.258   3.848  -3.926  0.00  0.00    +0.005 A 
ATOM     38  C   UNL     1       1.806   5.058  -3.434  0.00  0.00    +0.000 A 
ATOM     39  C   UNL     1       1.966   5.362  -2.095  0.00  0.00    +0.000 A 
ATOM     40  C   UNL     1       2.578   4.456  -1.248  0.00  0.00    +0.000 A 
ATOM     41  C   UNL     1       3.026   3.245  -1.740  0.00  0.00    +0.005 A 
ENDBRANCH  35  36
ENDBRANCH  28  35
ENDBRANCH   4  26
TORSDOF 9
