REMARK  Name = ZINC38065079
REMARK  7 active torsions:
REMARK  status: ('A' for Active; 'I' for Inactive)
REMARK    1  A    between atoms: C_1  and  C_2
REMARK    2  A    between atoms: C_2  and  C_3
REMARK    3  A    between atoms: C_3  and  C_5
REMARK    4  A    between atoms: C_3  and  N_6
REMARK    5  A    between atoms: N_6  and  C_7
REMARK    6  A    between atoms: C_7  and  C_9
REMARK    7  A    between atoms: C_7  and  C_20
REMARK                            x       y       z     vdW  Elec       q    Type
REMARK                         _______ _______ _______ _____ _____    ______ ____
ROOT
ATOM      1  C   UNL     1      -3.518  -0.551  -1.173  0.00  0.00    +0.047 C 
ENDROOT
BRANCH   1   2
ATOM      2  C   UNL     1      -4.180  -0.266  -2.497  0.00  0.00    -0.048 A 
ATOM      3  C   UNL     1      -5.089  -1.166  -3.022  0.00  0.00    +0.052 A 
ATOM      4  C   UNL     1      -5.699  -0.907  -4.240  0.00  0.00    +0.163 A 
ATOM      5  C   UNL     1      -5.397   0.261  -4.930  0.00  0.00    +0.176 A 
ATOM      6  C   UNL     1      -4.483   1.160  -4.399  0.00  0.00    +0.063 A 
ATOM      7  C   UNL     1      -3.881   0.897  -3.182  0.00  0.00    +0.021 A 
ATOM      8 BR   UNL     1      -4.065   2.748  -5.336  0.00  0.00    -0.046 Br
ATOM      9  O   UNL     1      -5.990   0.539  -6.123  0.00  0.00    -0.484 OA
ATOM     10  C   UNL     1      -6.617  -0.556  -6.801  0.00  0.00    +0.270 C 
ATOM     11  C   UNL     1      -7.459  -1.334  -5.780  0.00  0.00    +0.270 C 
ATOM     12  O   UNL     1      -6.589  -1.804  -4.745  0.00  0.00    -0.485 OA
ENDBRANCH   1   2
BRANCH   1  13
ATOM     13  C   UNL     1      -4.216   0.225  -0.086  0.00  0.00    +0.201 C 
ATOM     14  O   UNL     1      -3.599   1.034   0.574  0.00  0.00    -0.277 OA
ATOM     15  N   UNL     1      -5.527   0.019   0.154  0.00  0.00    -0.330 N 
ATOM     16  H   UNL     1      -6.020  -0.628  -0.374  0.00  0.00    +0.145 HD
ATOM     17  H   UNL     1      -5.976   0.518   0.854  0.00  0.00    +0.145 HD
ENDBRANCH   1  13
BRANCH   1  18
ATOM     18  N   UNL     1      -2.107  -0.147  -1.234  0.00  0.00    +0.391 N 
ATOM     19  H   UNL     1      -2.048   0.853  -1.352  0.00  0.00    -0.084 HD
ATOM     20  H   UNL     1      -1.660  -0.605  -2.014  0.00  0.00    -0.084 HD
BRANCH  18  21
ATOM     21  C   UNL     1      -1.433  -0.534   0.013  0.00  0.00    -0.074 C 
ATOM     22  C   UNL     1      -1.413  -2.059   0.130  0.00  0.00    -0.014 C 
BRANCH  21  24
ATOM     23  C   UNL     1      -0.019   1.526   0.010  0.00  0.00    +0.002 C 
ATOM     24  C   UNL     1       0.002  -0.004   0.002  0.00  0.00    -0.019 C 
ENDBRANCH  21  24
ENDBRANCH  18  21
ENDBRANCH   1  18
TORSDOF 5
