REMARK  Name = ZINC07985659
REMARK  8 active torsions:
REMARK  status: ('A' for Active; 'I' for Inactive)
REMARK    1  A    between atoms: C_1  and  C_2
REMARK    2  A    between atoms: C_2  and  C_4
REMARK    3  A    between atoms: C_2  and  N_14
REMARK    4  A    between atoms: C_7  and  S_10
REMARK    5  A    between atoms: S_10  and  N_13
REMARK    6  A    between atoms: N_14  and  S_15
REMARK    7  A    between atoms: S_15  and  C_18
REMARK    8  A    between atoms: C_21  and  C_24
REMARK                            x       y       z     vdW  Elec       q    Type
REMARK                         _______ _______ _______ _____ _____    ______ ____
ROOT
ATOM      1  N   UNL     1      -3.522   4.478   4.784  0.00  0.00    -0.183 NA
ATOM      2  H   UNL     1      -2.929   5.110   4.347  0.00  0.00    +0.149 HD
ENDROOT
BRANCH   1   3
ATOM      3  S   UNL     1      -4.974   4.990   5.392  0.00  0.00    +0.059 S 
ATOM      4  O   UNL     1      -5.049   6.387   5.145  0.00  0.00    -0.153 OA
ATOM      5  O   UNL     1      -5.957   4.079   4.918  0.00  0.00    -0.153 OA
BRANCH   3   6
ATOM      6  C   UNL     1      -4.906   4.790   7.141  0.00  0.00    +0.105 A 
ATOM      7  C   UNL     1      -5.321   3.605   7.719  0.00  0.00    +0.029 A 
ATOM      8  C   UNL     1      -5.262   3.446   9.091  0.00  0.00    +0.006 A 
ATOM      9  C   UNL     1      -4.799   4.478   9.886  0.00  0.00    -0.044 A 
ATOM     10  C   UNL     1      -4.389   5.665   9.309  0.00  0.00    +0.006 A 
ATOM     11  C   UNL     1      -4.443   5.822   7.937  0.00  0.00    +0.029 A 
BRANCH   9  12
ATOM     12  C   UNL     1      -4.741   4.308  11.383  0.00  0.00    +0.019 C 
ATOM     13  C   UNL     1      -3.822   3.134  11.727  0.00  0.00    +0.008 C 
ATOM     14  C   UNL     1      -3.763   2.961  13.246  0.00  0.00    +0.001 C 
ATOM     15  C   UNL     1      -5.169   2.683  13.783  0.00  0.00    +0.000 C 
ATOM     16  C   UNL     1      -6.088   3.856  13.438  0.00  0.00    +0.001 C 
ATOM     17  C   UNL     1      -6.147   4.029  11.919  0.00  0.00    +0.008 C 
ENDBRANCH   9  12
ENDBRANCH   3   6
ENDBRANCH   1   3
BRANCH   1  19
ATOM     18  C   UNL     1      -2.259   2.891   6.150  0.00  0.00    +0.031 C 
ATOM     19  C   UNL     1      -3.131   3.072   4.906  0.00  0.00    +0.103 C 
BRANCH  19  20
ATOM     20  C   UNL     1      -2.353   2.659   3.683  0.00  0.00    -0.029 A 
ATOM     21  C   UNL     1      -2.559   1.412   3.122  0.00  0.00    +0.007 A 
ATOM     22  C   UNL     1      -1.846   1.033   2.000  0.00  0.00    +0.029 A 
ATOM     23  C   UNL     1      -0.927   1.900   1.439  0.00  0.00    +0.105 A 
ATOM     24  C   UNL     1      -0.717   3.145   2.004  0.00  0.00    +0.029 A 
ATOM     25  C   UNL     1      -1.435   3.526   3.122  0.00  0.00    +0.007 A 
BRANCH  23  26
ATOM     26  S   UNL     1      -0.017   1.417   0.010  0.00  0.00    +0.056 S 
ATOM     27  O   UNL     1       0.002  -0.004   0.002  0.00  0.00    -0.153 OA
ATOM     28  O   UNL     1       1.172   2.195   0.003  0.00  0.00    -0.153 OA
BRANCH  26  29
ATOM     29  N   UNL     1      -0.897   1.885  -1.312  0.00  0.00    -0.204 NA
ATOM     30  H   UNL     1      -1.747   2.338  -1.194  0.00  0.00    +0.144 HD
ATOM     31  H   UNL     1      -0.563   1.708  -2.205  0.00  0.00    +0.144 HD
ENDBRANCH  26  29
ENDBRANCH  23  26
ENDBRANCH  19  20
ENDBRANCH   1  19
TORSDOF 7
