REMARK  Name = ZINC11069618
REMARK  8 active torsions:
REMARK  status: ('A' for Active; 'I' for Inactive)
REMARK    1  A    between atoms: C_1  and  C_2
REMARK    2  A    between atoms: C_15  and  C_17
REMARK    3  A    between atoms: C_17  and  N_55
REMARK    4  A    between atoms: C_18  and  N_55
REMARK    5  A    between atoms: C_19  and  C_21
REMARK    6  A    between atoms: C_19  and  C_22
REMARK    7  A    between atoms: C_19  and  N_55
REMARK    8  A    between atoms: N_24  and  C_25
REMARK                            x       y       z     vdW  Elec       q    Type
REMARK                         _______ _______ _______ _____ _____    ______ ____
ROOT
ATOM      1  C   UNL     1      -2.696   1.628   0.135  0.00  0.00    +0.020 C 
ENDROOT
BRANCH   1  15
ATOM      2  C   UNL     1       1.431   3.212  -1.236  0.00  0.00    +0.029 C 
ATOM      3  C   UNL     1       0.786   3.228   0.151  0.00  0.00    +0.087 C 
ATOM      4  C   UNL     1       1.838   2.879   1.205  0.00  0.00    +0.118 C 
ATOM      5  C   UNL     1       1.169   2.502   2.500  0.00  0.00    +0.219 C 
ATOM      6  O   UNL     1       1.162   3.287   3.425  0.00  0.00    -0.275 OA
ATOM      7  N   UNL     1       0.577   1.296   2.639  0.00  0.00    -0.284 N 
ATOM      8  C   UNL     1       0.493   0.418   1.553  0.00  0.00    +0.055 A 
ATOM      9  C   UNL     1       0.842  -0.916   1.689  0.00  0.00    +0.025 A 
ATOM     10  C   UNL     1       0.698  -1.777   0.617  0.00  0.00    +0.002 A 
ATOM     11  C   UNL     1       0.207  -1.312  -0.589  0.00  0.00    +0.002 A 
ATOM     12  C   UNL     1      -0.134   0.020  -0.736  0.00  0.00    +0.025 A 
ATOM     13  C   UNL     1       0.016   0.891   0.330  0.00  0.00    +0.058 A 
ATOM     14  N   UNL     1      -0.302   2.249   0.193  0.00  0.00    -0.268 N 
ATOM     15  C   UNL     1      -1.586   2.647   0.097  0.00  0.00    +0.204 C 
ATOM     16  O   UNL     1      -1.849   3.825  -0.021  0.00  0.00    -0.277 OA
ATOM     17  H   UNL     1       0.207   1.037   3.498  0.00  0.00    +0.155 HD
ENDBRANCH   1  15
BRANCH   1  19
ATOM     18  C   UNL     1      -4.135   2.933  -1.310  0.00  0.00    -0.094 C 
ATOM     19  N   UNL     1      -3.992   2.330   0.032  0.00  0.00    +0.391 N 
ATOM     20  H   UNL     1      -4.025   3.075   0.737  0.00  0.00    -0.080 HD
BRANCH  19  21
ATOM     21  C   UNL     1      -5.100   1.384   0.281  0.00  0.00    +0.017 C 
ATOM     22  C   UNL     1      -4.888   0.090  -0.507  0.00  0.00    -0.004 C 
BRANCH  21  23
ATOM     23  C   UNL     1      -5.148   1.073   1.755  0.00  0.00    +0.203 C 
ATOM     24  O   UNL     1      -4.224   1.392   2.473  0.00  0.00    -0.277 OA
ATOM     25  N   UNL     1      -6.218   0.439   2.276  0.00  0.00    -0.286 N 
ATOM     26  H   UNL     1      -6.991   0.256   1.719  0.00  0.00    +0.155 HD
BRANCH  25  27
ATOM     27  C   UNL     1      -6.213   0.046   3.619  0.00  0.00    +0.053 A 
ATOM     28  C   UNL     1      -5.011  -0.086   4.301  0.00  0.00    +0.025 A 
ATOM     29  C   UNL     1      -5.008  -0.473   5.627  0.00  0.00    +0.003 A 
ATOM     30  C   UNL     1      -6.202  -0.730   6.277  0.00  0.00    +0.021 A 
ATOM     31  C   UNL     1      -7.402  -0.600   5.601  0.00  0.00    +0.061 A 
ATOM     32  C   UNL     1      -7.412  -0.207   4.275  0.00  0.00    +0.080 A 
ATOM     33 CL   UNL     1      -8.918  -0.037   3.428  0.00  0.00    -0.080 Cl
ATOM     34 CL   UNL     1      -8.898  -0.924   6.420  0.00  0.00    -0.082 Cl
ENDBRANCH  25  27
ENDBRANCH  21  23
ENDBRANCH  19  21
ENDBRANCH   1  19
TORSDOF 5
