REMARK  Name = ZINC63393534
REMARK  12 active torsions:
REMARK  status: ('A' for Active; 'I' for Inactive)
REMARK    1  A    between atoms: C_1  and  C_2
REMARK    2  A    between atoms: C_8  and  C_11
REMARK    3  A    between atoms: C_11  and  C_12
REMARK    4  A    between atoms: C_12  and  N_13
REMARK    5  A    between atoms: C_15  and  C_20
REMARK    6  A    between atoms: N_22  and  C_23
REMARK    7  A    between atoms: C_26  and  S_29
REMARK    8  A    between atoms: S_29  and  N_32
REMARK    9  A    between atoms: N_32  and  C_33
REMARK   10  A    between atoms: C_33  and  C_34
REMARK   11  A    between atoms: C_33  and  C_35
REMARK   12  A    between atoms: C_33  and  C_36
REMARK                            x       y       z     vdW  Elec       q    Type
REMARK                         _______ _______ _______ _____ _____    ______ ____
ROOT
ATOM      1  N   UNL     1      -0.044  -6.687   5.856  0.00  0.00    -0.300 N 
ATOM      2  C   UNL     1       0.047  -6.969   7.293  0.00  0.00    +0.121 C 
ATOM      3  C   UNL     1      -0.039  -5.593   7.990  0.00  0.00    +0.101 C 
ATOM      4  C   UNL     1      -0.812  -4.758   6.943  0.00  0.00    +0.110 C 
ATOM      5  C   UNL     1      -0.523  -5.452   5.630  0.00  0.00    +0.216 C 
ATOM      6  O   UNL     1      -0.701  -4.965   4.534  0.00  0.00    -0.276 OA
ENDROOT
BRANCH   3   7
ATOM      7  C   UNL     1      -0.811  -5.689   9.281  0.00  0.00    +0.222 C 
ATOM      8  O   UNL     1      -1.265  -6.756   9.638  0.00  0.00    -0.275 OA
ATOM      9  N   UNL     1      -0.997  -4.590  10.038  0.00  0.00    -0.285 N 
ATOM     10  H   UNL     1      -0.576  -3.752   9.789  0.00  0.00    +0.155 HD
BRANCH   9  11
ATOM     11  C   UNL     1      -1.796  -4.657  11.184  0.00  0.00    +0.034 A 
ATOM     12  C   UNL     1      -2.593  -3.577  11.541  0.00  0.00    +0.025 A 
ATOM     13  C   UNL     1      -3.381  -3.647  12.673  0.00  0.00    +0.030 A 
ATOM     14  C   UNL     1      -3.378  -4.790  13.451  0.00  0.00    +0.105 A 
ATOM     15  C   UNL     1      -2.586  -5.867  13.098  0.00  0.00    +0.030 A 
ATOM     16  C   UNL     1      -1.800  -5.806  11.964  0.00  0.00    +0.025 A 
BRANCH  14  17
ATOM     17  S   UNL     1      -4.386  -4.875  14.894  0.00  0.00    +0.059 S 
ATOM     18  O   UNL     1      -3.981  -6.037  15.604  0.00  0.00    -0.153 OA
ATOM     19  O   UNL     1      -4.367  -3.580  15.479  0.00  0.00    -0.153 OA
BRANCH  17  20
ATOM     20  N   UNL     1      -5.940  -5.145  14.391  0.00  0.00    -0.185 NA
ATOM     21  H   UNL     1      -6.592  -4.427  14.424  0.00  0.00    +0.149 HD
BRANCH  20  22
ATOM     22  C   UNL     1      -6.330  -6.467  13.895  0.00  0.00    +0.032 C 
ATOM     23  C   UNL     1      -6.279  -7.477  15.043  0.00  0.00    +0.029 C 
ATOM     24  C   UNL     1      -7.753  -6.402  13.336  0.00  0.00    +0.029 C 
ATOM     25  C   UNL     1      -5.367  -6.902  12.789  0.00  0.00    +0.029 C 
ENDBRANCH  20  22
ENDBRANCH  17  20
ENDBRANCH  14  17
ENDBRANCH   9  11
ENDBRANCH   3   7
BRANCH   1  26
ATOM     26  C   UNL     1       0.344  -7.629   4.803  0.00  0.00    +0.112 C 
BRANCH  26  27
ATOM     27  C   UNL     1       1.822  -7.430   4.460  0.00  0.00    +0.052 C 
BRANCH  27  35
ATOM     28  C   UNL     1       1.746  -5.829  -0.936  0.00  0.00    +0.044 C 
ATOM     29  C   UNL     1       2.069  -7.044  -0.105  0.00  0.00    -0.050 A 
ATOM     30  C   UNL     1       2.496  -8.215  -0.746  0.00  0.00    +0.005 A 
ATOM     31  C   UNL     1       2.804  -9.344  -0.073  0.00  0.00    +0.026 A 
ATOM     32  C   UNL     1       2.703  -9.386   1.345  0.00  0.00    +0.043 A 
ATOM     33  N   UNL     1       2.939 -10.342   2.209  0.00  0.00    -0.380 N 
ATOM     34  C   UNL     1       2.666  -9.833   3.558  0.00  0.00    +0.144 C 
ATOM     35  C   UNL     1       2.221  -8.399   3.377  0.00  0.00    -0.040 C 
ATOM     36  C   UNL     1       2.253  -8.161   2.046  0.00  0.00    -0.001 A 
ATOM     37  C   UNL     1       1.944  -6.974   1.239  0.00  0.00    +0.013 A 
ATOM     38  H   UNL     1       3.243 -11.238   1.994  0.00  0.00    +0.160 HD
ENDBRANCH  27  35
ENDBRANCH  26  27
ENDBRANCH   1  26
TORSDOF 8
