REMARK  Name = ZINC63272427
REMARK  9 active torsions:
REMARK  status: ('A' for Active; 'I' for Inactive)
REMARK    1  A    between atoms: C_1  and  O_2
REMARK    2  A    between atoms: O_2  and  C_3
REMARK    3  A    between atoms: C_9  and  C_12
REMARK    4  A    between atoms: C_12  and  C_13
REMARK    5  A    between atoms: C_13  and  N_14
REMARK    6  A    between atoms: C_15  and  C_17
REMARK    7  A    between atoms: C_17  and  N_18
REMARK    8  A    between atoms: C_19  and  C_21
REMARK    9  A    between atoms: C_27  and  C_31
REMARK                            x       y       z     vdW  Elec       q    Type
REMARK                         _______ _______ _______ _____ _____    ______ ____
ROOT
ATOM      1  N   UNL     1      -3.660  -9.053  -1.503  0.00  0.00    -0.303 N 
ATOM      2  C   UNL     1      -4.257 -10.121  -0.937  0.00  0.00    +0.244 C 
ATOM      3  O   UNL     1      -3.721 -10.696  -0.009  0.00  0.00    -0.270 OA
ATOM      4  H   UNL     1      -4.088  -8.594  -2.243  0.00  0.00    +0.150 HD
ENDROOT
BRANCH   2   5
ATOM      5  C   UNL     1      -5.559 -10.593  -1.444  0.00  0.00    +0.037 A 
ATOM      6  C   UNL     1      -6.175  -9.938  -2.515  0.00  0.00    +0.015 A 
ATOM      7  C   UNL     1      -7.389 -10.380  -2.987  0.00  0.00    +0.028 A 
ATOM      8  C   UNL     1      -8.012 -11.482  -2.401  0.00  0.00    +0.067 A 
ATOM      9  C   UNL     1      -7.396 -12.133  -1.335  0.00  0.00    +0.014 A 
ATOM     10  C   UNL     1      -6.181 -11.701  -0.861  0.00  0.00    +0.021 A 
ATOM     11  C   UNL     1      -8.303 -13.268  -0.926  0.00  0.00    +0.211 C 
ATOM     12  O   UNL     1      -9.426 -13.201  -1.814  0.00  0.00    -0.261 OA
ATOM     13  N   UNL     1      -9.215 -12.111  -2.689  0.00  0.00    -0.265 N 
ATOM     14  H   UNL     1      -9.826 -11.841  -3.392  0.00  0.00    +0.194 HD
BRANCH  11  15
ATOM     15  C   UNL     1      -7.590 -14.587  -1.084  0.00  0.00    -0.012 A 
ATOM     16  C   UNL     1      -7.486 -15.171  -2.333  0.00  0.00    +0.006 A 
ATOM     17  C   UNL     1      -6.832 -16.380  -2.477  0.00  0.00    +0.000 A 
ATOM     18  C   UNL     1      -6.283 -17.006  -1.373  0.00  0.00    +0.000 A 
ATOM     19  C   UNL     1      -6.387 -16.421  -0.125  0.00  0.00    +0.000 A 
ATOM     20  C   UNL     1      -7.037 -15.210   0.019  0.00  0.00    +0.006 A 
ENDBRANCH  11  15
ENDBRANCH   2   5
BRANCH   1  21
ATOM     21  C   UNL     1      -2.367  -8.584  -0.999  0.00  0.00    +0.200 C 
BRANCH  21  23
ATOM     22  N   UNL     1      -0.752  -6.781  -1.509  0.00  0.00    -0.314 N 
ATOM     23  C   UNL     1      -1.922  -7.385  -1.796  0.00  0.00    +0.230 C 
ATOM     24  O   UNL     1      -2.617  -6.964  -2.697  0.00  0.00    -0.274 OA
ATOM     25  H   UNL     1      -0.196  -7.118  -0.789  0.00  0.00    +0.149 HD
BRANCH  22  26
ATOM     26  C   UNL     1      -0.319  -5.616  -2.284  0.00  0.00    +0.108 C 
BRANCH  26  27
ATOM     27  C   UNL     1       1.031  -5.126  -1.758  0.00  0.00    +0.052 C 
BRANCH  27  34
ATOM     28  C   UNL     1       0.606  -0.607  -1.056  0.00  0.00    +0.121 A 
ATOM     29  C   UNL     1       1.172   0.195  -2.062  0.00  0.00    +0.047 A 
ATOM     30  C   UNL     1       1.790  -0.325  -3.144  0.00  0.00    +0.029 A 
ATOM     31  C   UNL     1       1.886  -1.780  -3.299  0.00  0.00    +0.043 A 
ATOM     32  N   UNL     1       2.419  -2.528  -4.232  0.00  0.00    -0.380 N 
ATOM     33  C   UNL     1       2.222  -3.937  -3.871  0.00  0.00    +0.144 C 
ATOM     34  C   UNL     1       1.476  -3.927  -2.555  0.00  0.00    -0.040 C 
ATOM     35  C   UNL     1       1.290  -2.626  -2.239  0.00  0.00    +0.002 A 
ATOM     36  C   UNL     1       0.646  -1.960  -1.102  0.00  0.00    +0.055 A 
ATOM     37  H   UNL     1       2.869  -2.205  -5.029  0.00  0.00    +0.160 HD
BRANCH  28  39
ATOM     38  C   UNL     1      -0.017   1.425   0.010  0.00  0.00    +0.277 C 
ATOM     39  O   UNL     1       0.002  -0.004   0.002  0.00  0.00    -0.495 OA
ENDBRANCH  28  39
ENDBRANCH  27  34
ENDBRANCH  26  27
ENDBRANCH  22  26
ENDBRANCH  21  23
ENDBRANCH   1  21
TORSDOF 8
