REMARK  Name = ZINC63885812
REMARK  12 active torsions:
REMARK  status: ('A' for Active; 'I' for Inactive)
REMARK    1  A    between atoms: C_1  and  C_2
REMARK    2  A    between atoms: C_2  and  C_3
REMARK    3  A    between atoms: C_6  and  N_9
REMARK    4  A    between atoms: C_10  and  C_12
REMARK    5  A    between atoms: C_12  and  C_14
REMARK    6  A    between atoms: C_12  and  O_15
REMARK    7  A    between atoms: O_15  and  C_16
REMARK    8  A    between atoms: C_16  and  C_18
REMARK    9  A    between atoms: C_18  and  C_20
REMARK   10  A    between atoms: C_18  and  N_30
REMARK   11  A    between atoms: C_20  and  C_21
REMARK   12  A    between atoms: C_31  and  C_33
REMARK                            x       y       z     vdW  Elec       q    Type
REMARK                         _______ _______ _______ _____ _____    ______ ____
ROOT
ATOM      1  C   UNL     1      -9.899  -2.149  -3.930  0.00  0.00    +0.186 C 
ENDROOT
BRANCH   1   2
ATOM      2  N   UNL     1     -11.325  -1.834  -3.806  0.00  0.00    -0.298 N 
ATOM      3  C   UNL     1     -12.184  -2.208  -4.774  0.00  0.00    +0.246 C 
ATOM      4  O   UNL     1     -11.776  -2.808  -5.750  0.00  0.00    -0.270 OA
ATOM      5  H   UNL     1     -11.650  -1.356  -3.027  0.00  0.00    +0.150 HD
BRANCH   3   6
ATOM      6  C   UNL     1     -13.621  -1.891  -4.650  0.00  0.00    +0.055 A 
ATOM      7  C   UNL     1     -14.093  -1.198  -3.533  0.00  0.00    +0.014 A 
ATOM      8  C   UNL     1     -15.435  -0.905  -3.423  0.00  0.00    +0.001 A 
ATOM      9  C   UNL     1     -16.317  -1.296  -4.416  0.00  0.00    +0.001 A 
ATOM     10  C   UNL     1     -15.859  -1.982  -5.525  0.00  0.00    +0.021 A 
ATOM     11  C   UNL     1     -14.515  -2.278  -5.651  0.00  0.00    +0.053 A 
ATOM     12 CL   UNL     1     -13.940  -3.133  -7.048  0.00  0.00    -0.083 Cl
ENDBRANCH   3   6
ENDBRANCH   1   2
BRANCH   1  13
ATOM     13  C   UNL     1      -9.276  -2.206  -2.558  0.00  0.00    +0.329 C 
ATOM     14  O   UNL     1      -9.954  -2.004  -1.579  0.00  0.00    -0.249 OA
BRANCH  13  15
ATOM     15  O   UNL     1      -7.969  -2.480  -2.426  0.00  0.00    -0.451 OA
BRANCH  15  16
ATOM     16  C   UNL     1      -7.446  -2.518  -1.097  0.00  0.00    +0.259 C 
ATOM     17  C   UNL     1      -7.563  -3.940  -0.543  0.00  0.00    +0.062 C 
BRANCH  16  19
ATOM     18  N   UNL     1      -5.320  -1.968   0.042  0.00  0.00    -0.282 N 
ATOM     19  C   UNL     1      -5.997  -2.104  -1.115  0.00  0.00    +0.258 C 
ATOM     20  O   UNL     1      -5.440  -1.894  -2.172  0.00  0.00    -0.271 OA
ATOM     21  H   UNL     1      -5.742  -2.209   0.882  0.00  0.00    +0.155 HD
BRANCH  18  25
ATOM     22  C   UNL     1      -1.419  -0.507   0.015  0.00  0.00    -0.048 A 
ATOM     23  C   UNL     1      -2.333  -0.051  -0.916  0.00  0.00    +0.005 A 
ATOM     24  C   UNL     1      -3.627  -0.533  -0.910  0.00  0.00    +0.023 A 
ATOM     25  C   UNL     1      -4.010  -1.478   0.033  0.00  0.00    +0.034 A 
ATOM     26  C   UNL     1      -3.089  -1.935   0.967  0.00  0.00    +0.023 A 
ATOM     27  C   UNL     1      -1.795  -1.452   0.952  0.00  0.00    +0.005 A 
BRANCH  22  29
ATOM     28  C   UNL     1       0.858  -0.854  -0.904  0.00  0.00    +0.009 C 
ATOM     29  C   UNL     1      -0.007   0.021   0.005  0.00  0.00    +0.032 C 
ENDBRANCH  22  29
ENDBRANCH  18  25
ENDBRANCH  16  19
ENDBRANCH  15  16
ENDBRANCH  13  15
ENDBRANCH   1  13
BRANCH   1  30
ATOM     30  C   UNL     1      -9.208  -1.065  -4.759  0.00  0.00    +0.067 C 
BRANCH  30  31
ATOM     31  C   UNL     1      -9.745  -1.090  -6.167  0.00  0.00    -0.039 C 
ATOM     32  C   UNL     1     -10.740  -0.326  -6.671  0.00  0.00    -0.001 A 
ATOM     33  C   UNL     1     -11.589   0.717  -6.082  0.00  0.00    +0.010 A 
ATOM     34  C   UNL     1     -12.522   1.318  -6.855  0.00  0.00    +0.001 A 
ATOM     35  C   UNL     1     -12.700   0.969  -8.201  0.00  0.00    +0.002 A 
ATOM     36  C   UNL     1     -11.959   0.021  -8.812  0.00  0.00    +0.026 A 
ATOM     37  C   UNL     1     -10.947  -0.675  -8.095  0.00  0.00    +0.043 A 
ATOM     38  N   UNL     1     -10.112  -1.618  -8.456  0.00  0.00    -0.380 N 
ATOM     39  C   UNL     1      -9.276  -1.970  -7.303  0.00  0.00    +0.144 C 
ATOM     40  H   UNL     1     -10.054  -2.014  -9.340  0.00  0.00    +0.160 HD
ENDBRANCH  30  31
ENDBRANCH   1  30
TORSDOF 10
