REMARK  Name = ZINC36202896
REMARK  17 active torsions:
REMARK  status: ('A' for Active; 'I' for Inactive)
REMARK    1  A    between atoms: C_1  and  O_2
REMARK    2  A    between atoms: O_2  and  C_3
REMARK    3  A    between atoms: C_3  and  C_4
REMARK    4  A    between atoms: C_4  and  C_5
REMARK    5  A    between atoms: C_5  and  N_6
REMARK    6  A    between atoms: N_6  and  C_7
REMARK    7  A    between atoms: N_6  and  C_13
REMARK    8  A    between atoms: C_7  and  C_8
REMARK    9  A    between atoms: C_13  and  C_14
REMARK   10  A    between atoms: C_17  and  C_19
REMARK   11  A    between atoms: C_19  and  C_20
REMARK   12  A    between atoms: C_19  and  C_28
REMARK   13  A    between atoms: C_19  and  O_36
REMARK   14  A    between atoms: C_23  and  O_26
REMARK   15  A    between atoms: O_26  and  C_27
REMARK   16  A    between atoms: C_31  and  O_34
REMARK   17  A    between atoms: O_34  and  C_35
REMARK                            x       y       z     vdW  Elec       q    Type
REMARK                         _______ _______ _______ _____ _____    ______ ____
ROOT
ATOM      1  C   UNL     1       1.924  -7.925  -3.202  0.00  0.00    +0.089 A 
ATOM      2  C   UNL     1       1.117  -8.975  -3.439  0.00  0.00    +0.043 A 
ATOM      3  C   UNL     1       1.619 -10.057  -2.679  0.00  0.00    +0.048 A 
ATOM      4  C   UNL     1       2.701  -9.603  -2.022  0.00  0.00    +0.146 A 
ATOM      5  O   UNL     1       2.885  -8.313  -2.348  0.00  0.00    -0.463 OA
ENDROOT
BRANCH   1   6
ATOM      6  C   UNL     1       1.778  -6.549  -3.799  0.00  0.00    -0.003 C 
BRANCH   6   7
ATOM      7  N   UNL     1       0.933  -5.724  -2.925  0.00  0.00    +0.387 N 
ATOM      8  H   UNL     1       0.052  -6.191  -2.770  0.00  0.00    -0.081 HD
BRANCH   7   9
ATOM      9  C   UNL     1       0.693  -4.423  -3.563  0.00  0.00    -0.076 C 
BRANCH   9  10
ATOM     10  C   UNL     1      -0.305  -3.620  -2.725  0.00  0.00    +0.009 C 
BRANCH  10  11
ATOM     11  C   UNL     1      -0.508  -2.242  -3.357  0.00  0.00    +0.157 C 
BRANCH  11  13
ATOM     12  C   UNL     1      -1.702  -0.182  -3.080  0.00  0.00    +0.193 C 
ATOM     13  O   UNL     1      -1.440  -1.492  -2.574  0.00  0.00    -0.383 OA
ENDBRANCH  11  13
ENDBRANCH  10  11
ENDBRANCH   9  10
ENDBRANCH   7   9
BRANCH   7  14
ATOM     14  C   UNL     1       1.612  -5.519  -1.638  0.00  0.00    -0.042 C 
BRANCH  14  15
ATOM     15  C   UNL     1       2.863  -4.707  -1.854  0.00  0.00    -0.057 A 
ATOM     16  C   UNL     1       4.042  -5.321  -2.232  0.00  0.00    +0.009 A 
ATOM     17  C   UNL     1       5.149  -4.561  -2.417  0.00  0.00    +0.045 A 
ATOM     18  S   UNL     1       4.538  -2.924  -2.054  0.00  0.00    -0.105 S 
ATOM     19  C   UNL     1       2.847  -3.362  -1.685  0.00  0.00    +0.047 A 
ENDBRANCH  14  15
ENDBRANCH   7  14
ENDBRANCH   6   7
ENDBRANCH   1   6
BRANCH   4  20
ATOM     20  C   UNL     1       3.565 -10.408  -1.086  0.00  0.00    +0.174 C 
BRANCH  20  21
ATOM     21  C   UNL     1       4.978  -9.884  -1.130  0.00  0.00    -0.004 A 
ATOM     22  C   UNL     1       5.260  -8.618  -0.650  0.00  0.00    +0.011 A 
ATOM     23  C   UNL     1       6.554  -8.136  -0.690  0.00  0.00    +0.046 A 
ATOM     24  C   UNL     1       7.570  -8.922  -1.212  0.00  0.00    +0.120 A 
ATOM     25  C   UNL     1       7.284 -10.192  -1.693  0.00  0.00    +0.046 A 
ATOM     26  C   UNL     1       5.990 -10.672  -1.646  0.00  0.00    +0.011 A 
BRANCH  24  27
ATOM     27  O   UNL     1       8.844  -8.450  -1.253  0.00  0.00    -0.495 OA
ATOM     28  C   UNL     1       9.839  -9.314  -1.804  0.00  0.00    +0.277 C 
ENDBRANCH  24  27
ENDBRANCH  20  21
BRANCH  20  29
ATOM     29  C   UNL     1       3.029 -10.289   0.318  0.00  0.00    -0.004 A 
ATOM     30  C   UNL     1       2.480  -9.095   0.749  0.00  0.00    +0.011 A 
ATOM     31  C   UNL     1       1.989  -8.984   2.035  0.00  0.00    +0.046 A 
ATOM     32  C   UNL     1       2.046 -10.071   2.895  0.00  0.00    +0.120 A 
ATOM     33  C   UNL     1       2.598 -11.268   2.460  0.00  0.00    +0.046 A 
ATOM     34  C   UNL     1       3.083 -11.376   1.171  0.00  0.00    +0.011 A 
BRANCH  32  35
ATOM     35  O   UNL     1       1.564  -9.964   4.161  0.00  0.00    -0.495 OA
ATOM     36  C   UNL     1       1.656 -11.124   4.990  0.00  0.00    +0.277 C 
ENDBRANCH  32  35
ENDBRANCH  20  29
BRANCH  20  37
ATOM     37  O   UNL     1       3.553 -11.779  -1.486  0.00  0.00    -0.372 OA
ATOM     38  H   UNL     1       3.885 -11.931  -2.381  0.00  0.00    +0.212 HD
ENDBRANCH  20  37
ENDBRANCH   4  20
TORSDOF 14
