REMARK  Name = ZINC24416614
REMARK  4 active torsions:
REMARK  status: ('A' for Active; 'I' for Inactive)
REMARK    1  A    between atoms: C_1  and  C_2
REMARK    2  A    between atoms: C_2  and  C_18
REMARK    3  A    between atoms: N_5  and  C_9
REMARK    4  A    between atoms: C_9  and  C_10
REMARK                            x       y       z     vdW  Elec       q    Type
REMARK                         _______ _______ _______ _____ _____    ______ ____
ROOT
ATOM      1  C   UNL     1      -5.894   3.684  -3.226  0.00  0.00    +0.047 C 
ATOM      2  C   UNL     1      -4.387   3.446  -3.108  0.00  0.00    +0.135 C 
ATOM      3  C   UNL     1      -4.011   3.106  -1.680  0.00  0.00    +0.251 C 
ATOM      4  O   UNL     1      -4.389   2.154  -1.030  0.00  0.00    -0.272 OA
ATOM      5  N   UNL     1      -3.169   4.080  -1.282  0.00  0.00    -0.219 N 
ATOM      6  C   UNL     1      -2.967   4.983  -2.249  0.00  0.00    +0.310 C 
ATOM      7  O   UNL     1      -2.250   5.956  -2.125  0.00  0.00    -0.252 OA
ATOM      8  N   UNL     1      -3.644   4.690  -3.374  0.00  0.00    -0.281 N 
ATOM      9  H   UNL     1      -3.723   5.179  -4.357  0.00  0.00    +0.152 HD
ENDROOT
BRANCH   2  10
ATOM     10  C   UNL     1      -3.946   2.354  -4.048  0.00  0.00    -0.012 A 
ATOM     11  C   UNL     1      -3.882   1.046  -3.604  0.00  0.00    +0.010 A 
ATOM     12  C   UNL     1      -3.477   0.042  -4.462  0.00  0.00    +0.050 A 
ATOM     13  C   UNL     1      -3.133   0.343  -5.772  0.00  0.00    +0.162 A 
ATOM     14  C   UNL     1      -3.200   1.657  -6.219  0.00  0.00    +0.162 A 
ATOM     15  C   UNL     1      -3.611   2.660  -5.353  0.00  0.00    +0.055 A 
ATOM     16  O   UNL     1      -2.871   1.975  -7.501  0.00  0.00    -0.485 OA
ATOM     17  C   UNL     1      -2.109   1.005  -8.228  0.00  0.00    +0.270 C 
ATOM     18  C   UNL     1      -2.748  -0.373  -8.006  0.00  0.00    +0.270 C 
ATOM     19  O   UNL     1      -2.728  -0.655  -6.603  0.00  0.00    -0.485 OA
ENDBRANCH   2  10
BRANCH   5  20
ATOM     20  C   UNL     1      -2.556   4.146   0.047  0.00  0.00    +0.156 C 
BRANCH  20  21
ATOM     21  C   UNL     1      -1.242   3.408   0.031  0.00  0.00    +0.008 A 
ATOM     22  C   UNL     1      -0.053   4.114   0.024  0.00  0.00    +0.008 A 
ATOM     23  C   UNL     1       1.153   3.438   0.009  0.00  0.00    +0.003 A 
ATOM     24  C   UNL     1       1.172   2.056   0.002  0.00  0.00    +0.041 A 
ATOM     25  C   UNL     1      -0.016   1.347   0.009  0.00  0.00    +0.159 A 
ATOM     26  C   UNL     1      -1.226   2.025   0.019  0.00  0.00    +0.163 A 
ATOM     27  F   UNL     1      -2.388   1.335   0.021  0.00  0.00    -0.202 F 
ATOM     28  F   UNL     1       0.002  -0.004   0.002  0.00  0.00    -0.202 F 
ENDBRANCH  20  21
ENDBRANCH   5  20
TORSDOF 3
