REMARK  Name = ZINC29570816
REMARK  6 active torsions:
REMARK  status: ('A' for Active; 'I' for Inactive)
REMARK    1  A    between atoms: C_1  and  O_2
REMARK    2  A    between atoms: O_2  and  C_3
REMARK    3  A    between atoms: C_10  and  S_12
REMARK    4  A    between atoms: S_12  and  C_14
REMARK    5  A    between atoms: C_14  and  C_15
REMARK    6  A    between atoms: C_17  and  N_21
REMARK                            x       y       z     vdW  Elec       q    Type
REMARK                         _______ _______ _______ _____ _____    ______ ____
ROOT
ATOM      1  S   UNL     1       2.670  -5.331  -4.647  0.00  0.00    +0.095 S 
ATOM      2  O   UNL     1       2.770  -6.337  -3.648  0.00  0.00    -0.249 OA
ENDROOT
BRANCH   1  10
ATOM      3  C   UNL     1       0.606  -0.607  -1.056  0.00  0.00    +0.122 A 
ATOM      4  C   UNL     1       1.174   0.168  -2.064  0.00  0.00    +0.048 A 
ATOM      5  C   UNL     1       1.784  -0.421  -3.134  0.00  0.00    +0.033 A 
ATOM      6  C   UNL     1       1.843  -1.815  -3.224  0.00  0.00    +0.090 A 
ATOM      7  C   UNL     1       1.271  -2.600  -2.208  0.00  0.00    +0.070 A 
ATOM      8  C   UNL     1       0.658  -1.988  -1.123  0.00  0.00    +0.073 A 
ATOM      9  N   UNL     1       1.486  -3.913  -2.575  0.00  0.00    -0.331 N 
ATOM     10  C   UNL     1       2.158  -3.898  -3.759  0.00  0.00    +0.198 A 
ATOM     11  N   UNL     1       2.366  -2.672  -4.139  0.00  0.00    -0.220 NA
ATOM     12  H   UNL     1       1.210  -4.701  -2.080  0.00  0.00    +0.168 HD
BRANCH   3  14
ATOM     13  C   UNL     1      -0.017   1.425   0.010  0.00  0.00    +0.277 C 
ATOM     14  O   UNL     1       0.002  -0.004   0.002  0.00  0.00    -0.495 OA
ENDBRANCH   3  14
ENDBRANCH   1  10
BRANCH   1  15
ATOM     15  C   UNL     1       1.267  -5.698  -5.736  0.00  0.00    +0.166 C 
BRANCH  15  16
ATOM     16  C   UNL     1       1.578  -6.919  -6.563  0.00  0.00    +0.049 A 
ATOM     17  C   UNL     1       2.202  -6.773  -7.785  0.00  0.00    +0.082 A 
ATOM     18  C   UNL     1       2.486  -7.911  -8.541  0.00  0.00    +0.051 A 
ATOM     19  C   UNL     1       2.123  -9.155  -8.024  0.00  0.00    +0.042 A 
ATOM     20  C   UNL     1       1.502  -9.214  -6.794  0.00  0.00    +0.084 A 
ATOM     21  N   UNL     1       1.256  -8.115  -6.106  0.00  0.00    -0.362 N 
ATOM     22 CL   UNL     1       2.628  -5.196  -8.374  0.00  0.00    -0.080 Cl
ATOM     23  H   UNL     1       0.821  -8.188  -5.242  0.00  0.00    +0.165 HD
BRANCH  18  24
ATOM     24  N   UNL     1       3.114  -7.808  -9.780  0.00  0.00    -0.329 N 
ATOM     25  C   UNL     1       4.566  -7.840 -10.009  0.00  0.00    +0.105 C 
ATOM     26  C   UNL     1       4.794  -7.666 -11.526  0.00  0.00    +0.020 C 
ATOM     27  C   UNL     1       3.484  -6.980 -11.998  0.00  0.00    +0.020 C 
ATOM     28  C   UNL     1       2.433  -7.655 -11.078  0.00  0.00    +0.105 C 
ENDBRANCH  18  24
ENDBRANCH  15  16
ENDBRANCH   1  15
TORSDOF 5
