REMARK  Name = ZINC27527341
REMARK  4 active torsions:
REMARK  status: ('A' for Active; 'I' for Inactive)
REMARK    1  A    between atoms: C_6  and  N_7
REMARK    2  A    between atoms: C_8  and  C_28
REMARK    3  A    between atoms: C_10  and  N_14
REMARK    4  A    between atoms: C_20  and  N_25
REMARK                            x       y       z     vdW  Elec       q    Type
REMARK                         _______ _______ _______ _____ _____    ______ ____
ROOT
ATOM      1  N   UNL     1      -4.537   6.744   0.296  0.00  0.00    -0.260 N 
ATOM      2  C   UNL     1      -3.430   6.782   1.269  0.00  0.00    +0.141 C 
ATOM      3  C   UNL     1      -2.490   6.633   0.062  0.00  0.00    +0.196 C 
ATOM      4  C   UNL     1      -3.737   6.613  -0.797  0.00  0.00    +0.244 C 
ATOM      5  O   UNL     1      -3.942   6.518  -1.989  0.00  0.00    -0.273 OA
ENDROOT
BRANCH   3   6
ATOM      6  N   UNL     1      -1.745   5.371   0.048  0.00  0.00    -0.220 N 
ATOM      7  C   UNL     1      -2.313   4.152   0.047  0.00  0.00    +0.255 C 
ATOM      8  O   UNL     1      -3.507   3.926   0.057  0.00  0.00    -0.270 OA
ATOM      9  C   UNL     1      -1.242   3.133   0.031  0.00  0.00    +0.050 A 
ATOM     10  C   UNL     1      -1.225   1.748   0.017  0.00  0.00    +0.016 A 
ATOM     11  C   UNL     1      -0.013   1.076   0.008  0.00  0.00    +0.033 A 
ATOM     12  C   UNL     1       1.178   1.778   0.000  0.00  0.00    +0.127 A 
ATOM     13  C   UNL     1       1.176   3.164   0.007  0.00  0.00    +0.046 A 
ATOM     14  C   UNL     1      -0.029   3.849   0.022  0.00  0.00    +0.052 A 
ATOM     15  C   UNL     1      -0.403   5.279   0.034  0.00  0.00    +0.255 C 
ATOM     16  O   UNL     1       0.371   6.215   0.031  0.00  0.00    -0.270 OA
BRANCH  12  17
ATOM     17  N   UNL     1       2.464   1.046  -0.016  0.00  0.00    +0.056 N 
ATOM     18  O   UNL     1       2.470  -0.172  -0.022  0.00  0.00    -0.126 OA
ATOM     19  O   UNL     1       3.515   1.660  -0.023  0.00  0.00    -0.126 OA
ENDBRANCH  12  17
ENDBRANCH   3   6
BRANCH   2  20
ATOM     20  C   UNL     1      -3.295   8.102   1.983  0.00  0.00    -0.021 A 
ATOM     21  C   UNL     1      -3.909   9.229   1.470  0.00  0.00    +0.009 A 
ATOM     22  C   UNL     1      -3.793  10.441   2.124  0.00  0.00    +0.050 A 
ATOM     23  C   UNL     1      -3.050  10.532   3.290  0.00  0.00    +0.166 A 
ATOM     24  C   UNL     1      -2.427   9.397   3.804  0.00  0.00    +0.167 A 
ATOM     25  C   UNL     1      -2.553   8.184   3.146  0.00  0.00    +0.055 A 
ATOM     26  O   UNL     1      -1.764   9.743   4.946  0.00  0.00    -0.453 OA
ATOM     27  C   UNL     1      -1.649  11.177   4.904  0.00  0.00    +0.466 C 
ATOM     28  O   UNL     1      -2.778  11.588   4.111  0.00  0.00    -0.453 OA
ENDBRANCH   2  20
BRANCH   1  34
ATOM     29  C   UNL     1      -6.484   6.950   1.711  0.00  0.00    +0.025 A 
ATOM     30  C   UNL     1      -7.856   7.028   1.855  0.00  0.00    +0.022 A 
ATOM     31  C   UNL     1      -8.674   6.965   0.741  0.00  0.00    +0.041 A 
ATOM     32  C   UNL     1      -8.121   6.829  -0.520  0.00  0.00    +0.022 A 
ATOM     33  C   UNL     1      -6.750   6.756  -0.670  0.00  0.00    +0.025 A 
ATOM     34  C   UNL     1      -5.927   6.819   0.446  0.00  0.00    +0.037 A 
ATOM     35 CL   UNL     1     -10.398   7.057   0.926  0.00  0.00    -0.084 Cl
ENDBRANCH   1  34
TORSDOF 4
