REMARK  Name = ZINC39769369
REMARK  11 active torsions:
REMARK  status: ('A' for Active; 'I' for Inactive)
REMARK    1  A    between atoms: C_1  and  C_2
REMARK    2  A    between atoms: C_2  and  N_3
REMARK    3  A    between atoms: C_4  and  N_30
REMARK    4  A    between atoms: C_5  and  C_13
REMARK    5  A    between atoms: C_6  and  C_12
REMARK    6  A    between atoms: C_7  and  C_10
REMARK    7  A    between atoms: N_17  and  C_21
REMARK    8  A    between atoms: C_21  and  C_23
REMARK    9  A    between atoms: C_21  and  C_24
REMARK   10  A    between atoms: C_32  and  C_39
REMARK   11  A    between atoms: C_35  and  C_38
REMARK                            x       y       z     vdW  Elec       q    Type
REMARK                         _______ _______ _______ _____ _____    ______ ____
ROOT
ATOM      1  N   UNL     1       0.655  -1.726   3.268  0.00  0.00    -0.295 N 
ATOM      2  C   UNL     1       1.771  -2.099   2.590  0.00  0.00    +0.112 A 
ATOM      3  C   UNL     1       2.876  -2.633   3.274  0.00  0.00    +0.019 A 
ATOM      4  C   UNL     1       2.819  -2.780   4.670  0.00  0.00    -0.017 A 
ATOM      5  C   UNL     1       1.664  -2.390   5.342  0.00  0.00    +0.120 A 
ATOM      6  C   UNL     1       0.578  -1.852   4.605  0.00  0.00    +0.270 A 
ATOM      7  O   UNL     1      -0.434  -1.504   5.188  0.00  0.00    -0.266 OA
ATOM      8  C   UNL     1       3.990  -3.352   5.428  0.00  0.00    +0.046 C 
ENDROOT
BRANCH   3   9
ATOM      9  C   UNL     1       4.076  -3.034   2.537  0.00  0.00    +0.032 C 
ATOM     10  C   UNL     1       5.258  -2.400   2.765  0.00  0.00    +0.077 C 
ATOM     11  C   UNL     1       5.535  -1.259   3.579  0.00  0.00    +0.259 C 
ATOM     12  O   UNL     1       4.648  -0.702   4.201  0.00  0.00    -0.269 OA
ATOM     13  N   UNL     1       6.782  -0.827   3.638  0.00  0.00    -0.248 N 
ATOM     14  C   UNL     1       7.766  -1.446   2.948  0.00  0.00    +0.121 C 
ATOM     15  S   UNL     1       9.433  -1.061   2.878  0.00  0.00    -0.027 S 
ATOM     16  S   UNL     1       6.888  -2.771   2.133  0.00  0.00    -0.061 S 
BRANCH  13  17
ATOM     17  C   UNL     1       7.104   0.340   4.463  0.00  0.00    +0.110 C 
ATOM     18  C   UNL     1       5.909   0.677   5.357  0.00  0.00    +0.033 C 
BRANCH  17  19
ATOM     19  C   UNL     1       7.411   1.516   3.572  0.00  0.00    -0.027 A 
ATOM     20  C   UNL     1       6.591   1.801   2.497  0.00  0.00    +0.005 A 
ATOM     21  C   UNL     1       6.874   2.880   1.679  0.00  0.00    +0.000 A 
ATOM     22  C   UNL     1       7.976   3.673   1.938  0.00  0.00    +0.000 A 
ATOM     23  C   UNL     1       8.796   3.388   3.014  0.00  0.00    +0.000 A 
ATOM     24  C   UNL     1       8.511   2.312   3.834  0.00  0.00    +0.005 A 
ENDBRANCH  17  19
ENDBRANCH  13  17
ENDBRANCH   3   9
BRANCH   2  25
ATOM     25  N   UNL     1       1.819  -1.953   1.235  0.00  0.00    -0.315 N 
ATOM     26  C   UNL     1       1.919  -0.618   0.628  0.00  0.00    +0.109 C 
ATOM     27  C   UNL     1       3.118  -0.598  -0.325  0.00  0.00    +0.004 C 
ATOM     28  C   UNL     1       2.981  -1.739  -1.335  0.00  0.00    +0.009 C 
ATOM     29  C   UNL     1       2.974  -3.079  -0.596  0.00  0.00    +0.004 C 
ATOM     30  C   UNL     1       1.779  -3.128   0.354  0.00  0.00    +0.109 C 
ATOM     31  C   UNL     1       2.870  -4.221  -1.610  0.00  0.00    +0.009 C 
ATOM     32  C   UNL     1       4.410  -0.777   0.476  0.00  0.00    +0.009 C 
ENDBRANCH   2  25
BRANCH   1  34
ATOM     33  C   UNL     1      -0.440   0.356   2.600  0.00  0.00    +0.027 C 
ATOM     34  C   UNL     1      -0.483  -1.171   2.531  0.00  0.00    +0.123 C 
ENDBRANCH   1  34
BRANCH   5  35
ATOM     35  C   UNL     1       1.575  -2.528   6.764  0.00  0.00    +0.105 C 
ATOM     36  N   UNL     1       1.504  -2.637   7.893  0.00  0.00    -0.191 NA
ENDBRANCH   5  35
TORSDOF 6
