REMARK  Name = ZINC35688318
REMARK  18 active torsions:
REMARK  status: ('A' for Active; 'I' for Inactive)
REMARK    1  A    between atoms: C_1  and  C_2
REMARK    2  A    between atoms: C_2  and  C_3
REMARK    3  A    between atoms: C_3  and  C_4
REMARK    4  A    between atoms: C_4  and  N_5
REMARK    5  A    between atoms: C_13  and  C_15
REMARK    6  A    between atoms: C_16  and  C_18
REMARK    7  A    between atoms: C_18  and  C_20
REMARK    8  A    between atoms: C_18  and  N_25
REMARK    9  A    between atoms: C_20  and  C_22
REMARK   10  A    between atoms: C_20  and  C_23
REMARK   11  A    between atoms: C_23  and  C_24
REMARK   12  A    between atoms: N_28  and  C_29
REMARK   13  A    between atoms: C_30  and  C_38
REMARK   14  A    between atoms: C_34  and  C_35
REMARK   15  A    between atoms: C_35  and  C_36
REMARK   16  A    between atoms: C_35  and  C_37
REMARK   17  A    between atoms: C_38  and  C_39
REMARK   18  A    between atoms: C_38  and  C_40
REMARK                            x       y       z     vdW  Elec       q    Type
REMARK                         _______ _______ _______ _____ _____    ______ ____
ROOT
ATOM      1  C   UNL     1       5.325  -4.908  -8.631  0.00  0.00    +0.163 C 
ENDROOT
BRANCH   1  12
ATOM      2  N   UNL     1       4.518  -2.722  -2.391  0.00  0.00    -0.299 N 
ATOM      3  C   UNL     1       4.235  -4.016  -2.641  0.00  0.00    +0.303 C 
ATOM      4  O   UNL     1       3.683  -4.692  -1.795  0.00  0.00    -0.253 OA
ATOM      5  N   UNL     1       4.564  -4.559  -3.830  0.00  0.00    -0.280 N 
ATOM      6  C   UNL     1       5.333  -3.790  -4.818  0.00  0.00    +0.128 C 
ATOM      7  C   UNL     1       4.551  -3.765  -6.137  0.00  0.00    +0.127 C 
ATOM      8  N   UNL     1       4.147  -5.139  -6.468  0.00  0.00    -0.297 N 
ATOM      9  C   UNL     1       3.377  -5.909  -5.481  0.00  0.00    +0.130 C 
ATOM     10  C   UNL     1       4.164  -5.935  -4.159  0.00  0.00    +0.092 C 
ATOM     11  C   UNL     1       5.410  -6.808  -4.316  0.00  0.00    +0.030 C 
ATOM     12  C   UNL     1       4.475  -5.683  -7.657  0.00  0.00    +0.236 C 
ATOM     13  O   UNL     1       4.087  -6.796  -7.943  0.00  0.00    -0.274 OA
ATOM     14  H   UNL     1       5.023  -2.202  -3.036  0.00  0.00    +0.150 HD
BRANCH   2  15
ATOM     15  C   UNL     1       4.064  -2.101  -1.144  0.00  0.00    +0.106 C 
BRANCH  15  16
ATOM     16  C   UNL     1       4.514  -0.639  -1.109  0.00  0.00    +0.018 C 
BRANCH  16  18
ATOM     17  C   UNL     1       4.490   1.472   0.227  0.00  0.00    +0.004 C 
ATOM     18  C   UNL     1       4.040   0.010   0.193  0.00  0.00    -0.002 C 
ENDBRANCH  16  18
ENDBRANCH  15  16
ENDBRANCH   2  15
ENDBRANCH   1  12
BRANCH   1  19
ATOM     19  N   UNL     1       4.919  -5.234 -10.001  0.00  0.00    -0.288 N 
ATOM     20  C   UNL     1       5.141  -4.354 -10.997  0.00  0.00    +0.304 C 
ATOM     21  O   UNL     1       5.680  -3.290 -10.760  0.00  0.00    -0.252 OA
ATOM     22  N   UNL     1       4.768  -4.654 -12.257  0.00  0.00    -0.269 N 
ATOM     23  H   UNL     1       4.489  -6.083 -10.190  0.00  0.00    +0.151 HD
ATOM     24  H   UNL     1       4.297  -5.483 -12.439  0.00  0.00    +0.156 HD
BRANCH  22  25
ATOM     25  C   UNL     1       5.058  -3.770 -13.302  0.00  0.00    +0.042 A 
ATOM     26  C   UNL     1       5.854  -4.184 -14.362  0.00  0.00    -0.023 A 
ATOM     27  C   UNL     1       6.138  -3.309 -15.393  0.00  0.00    +0.006 A 
ATOM     28  C   UNL     1       5.631  -2.023 -15.369  0.00  0.00    +0.001 A 
ATOM     29  C   UNL     1       4.839  -1.608 -14.315  0.00  0.00    +0.006 A 
ATOM     30  C   UNL     1       4.546  -2.480 -13.284  0.00  0.00    -0.023 A 
BRANCH  30  31
ATOM     31  C   UNL     1       3.678  -2.028 -12.138  0.00  0.00    +0.015 C 
ATOM     32  C   UNL     1       4.265  -0.757 -11.523  0.00  0.00    +0.012 C 
ATOM     33  C   UNL     1       2.265  -1.741 -12.652  0.00  0.00    +0.012 C 
ENDBRANCH  30  31
BRANCH  26  34
ATOM     34  C   UNL     1       6.407  -5.586 -14.388  0.00  0.00    +0.015 C 
ATOM     35  C   UNL     1       5.989  -6.274 -15.690  0.00  0.00    +0.012 C 
ATOM     36  C   UNL     1       7.934  -5.533 -14.306  0.00  0.00    +0.012 C 
ENDBRANCH  26  34
ENDBRANCH  22  25
ENDBRANCH   1  19
BRANCH   1  37
ATOM     37  C   UNL     1       6.796  -5.280  -8.433  0.00  0.00    +0.015 C 
ATOM     38  C   UNL     1       7.238  -4.879  -7.025  0.00  0.00    +0.010 C 
BRANCH  37  39
ATOM     39  C   UNL     1       6.968  -6.790  -8.612  0.00  0.00    +0.002 C 
ATOM     40  C   UNL     1       8.454  -7.146  -8.538  0.00  0.00    +0.004 C 
ENDBRANCH  37  39
ENDBRANCH   1  37
TORSDOF 10
