REMARK  Name = ZINC51713751
REMARK  8 active torsions:
REMARK  status: ('A' for Active; 'I' for Inactive)
REMARK    1  A    between atoms: C_1  and  C_2
REMARK    2  A    between atoms: C_5  and  C_7
REMARK    3  A    between atoms: N_9  and  C_10
REMARK    4  A    between atoms: N_18  and  C_19
REMARK    5  A    between atoms: C_19  and  C_20
REMARK    6  A    between atoms: C_20  and  C_22
REMARK    7  A    between atoms: C_20  and  N_23
REMARK    8  A    between atoms: C_26  and  C_29
REMARK                            x       y       z     vdW  Elec       q    Type
REMARK                         _______ _______ _______ _____ _____    ______ ____
ROOT
ATOM      1  C   UNL     1       4.147  -5.922   1.564  0.00  0.00    +0.076 C 
ATOM      2  C   UNL     1       5.563  -5.655   2.080  0.00  0.00    +0.041 C 
ATOM      3  C   UNL     1       6.319  -4.793   1.065  0.00  0.00    +0.111 C 
ATOM      4  N   UNL     1       6.269  -5.453  -0.247  0.00  0.00    -0.286 N 
ATOM      5  C   UNL     1       4.960  -5.835  -0.796  0.00  0.00    +0.111 C 
ATOM      6  C   UNL     1       4.220  -6.686   0.240  0.00  0.00    +0.041 C 
ATOM      7  C   UNL     1       7.401  -5.703  -0.934  0.00  0.00    +0.302 C 
ATOM      8  O   UNL     1       7.355  -6.331  -1.974  0.00  0.00    -0.253 OA
ATOM      9  N   UNL     1       8.584  -5.257  -0.467  0.00  0.00    -0.301 N 
ATOM     10  H   UNL     1       8.631  -4.819   0.397  0.00  0.00    +0.150 HD
ENDROOT
BRANCH   1  13
ATOM     11  C   UNL     1       2.785  -6.111   3.575  0.00  0.00    +0.280 C 
ATOM     12  O   UNL     1       2.831  -4.900   3.686  0.00  0.00    -0.267 OA
ATOM     13  N   UNL     1       3.411  -6.719   2.548  0.00  0.00    -0.306 N 
ATOM     14  H   UNL     1       3.374  -7.684   2.461  0.00  0.00    +0.149 HD
BRANCH  11  19
ATOM     15  C   UNL     1       0.807 -10.050   5.951  0.00  0.00    +0.086 C 
ATOM     16  C   UNL     1       1.178  -8.631   5.606  0.00  0.00    +0.103 A 
ATOM     17  C   UNL     1       0.820  -7.532   6.305  0.00  0.00    +0.045 A 
ATOM     18  C   UNL     1       1.373  -6.424   5.644  0.00  0.00    +0.055 A 
ATOM     19  C   UNL     1       2.048  -6.910   4.561  0.00  0.00    +0.189 A 
ATOM     20  O   UNL     1       1.922  -8.253   4.558  0.00  0.00    -0.455 OA
ENDBRANCH  11  19
ENDBRANCH   1  13
BRANCH   9  21
ATOM     21  C   UNL     1       9.800  -5.434  -1.266  0.00  0.00    +0.090 C 
BRANCH  21  22
ATOM     22  C   UNL     1      11.011  -4.952  -0.464  0.00  0.00    -0.054 C 
ATOM     23  C   UNL     1      12.262  -5.017  -1.342  0.00  0.00    -0.012 C 
BRANCH  22  24
ATOM     24  N   UNL     1      10.790  -3.567  -0.028  0.00  0.00    +0.382 N 
ATOM     25  C   UNL     1      10.666  -2.699  -1.205  0.00  0.00    -0.078 C 
ATOM     26  C   UNL     1      10.356  -1.269  -0.759  0.00  0.00    -0.016 C 
ATOM     27  C   UNL     1      11.491  -0.761   0.135  0.00  0.00    -0.018 C 
ATOM     28  C   UNL     1      11.660  -1.715   1.320  0.00  0.00    -0.016 C 
ATOM     29  C   UNL     1      11.923  -3.129   0.797  0.00  0.00    -0.078 C 
ATOM     30  C   UNL     1      11.150   0.639   0.649  0.00  0.00    +0.007 C 
ATOM     31  H   UNL     1       9.941  -3.517   0.515  0.00  0.00    -0.081 HD
ENDBRANCH  22  24
ENDBRANCH  21  22
ENDBRANCH   9  21
TORSDOF 5
