REMARK  Name = ZINC65388058
REMARK  1 active torsions:
REMARK  status: ('A' for Active; 'I' for Inactive)
REMARK    1  A    between atoms: C_4  and  C_6
REMARK                            x       y       z     vdW  Elec       q    Type
REMARK                         _______ _______ _______ _____ _____    ______ ____
ROOT
ATOM      1  C   UNL     1       1.335  -2.163  -0.022  0.00  0.00    +0.085 C 
ATOM      2  C   UNL     1       0.698  -2.776   1.228  0.00  0.00    +0.111 C 
ATOM      3  C   UNL     1       0.688  -4.277   1.105  0.00  0.00    +0.218 C 
ATOM      4  O   UNL     1       0.845  -4.963   2.093  0.00  0.00    -0.275 OA
ATOM      5  N   UNL     1       0.506  -4.866  -0.093  0.00  0.00    -0.285 N 
ATOM      6  C   UNL     1       0.284  -4.085  -1.235  0.00  0.00    +0.039 A 
ATOM      7  C   UNL     1       0.684  -2.754  -1.248  0.00  0.00    -0.013 A 
ATOM      8  C   UNL     1       0.484  -1.977  -2.373  0.00  0.00    +0.053 A 
ATOM      9  C   UNL     1      -0.121  -2.525  -3.491  0.00  0.00    +0.143 A 
ATOM     10  C   UNL     1      -0.530  -3.858  -3.480  0.00  0.00    +0.077 A 
ATOM     11  C   UNL     1      -0.330  -4.637  -2.350  0.00  0.00    +0.050 A 
ATOM     12  N   UNL     1      -1.148  -4.395  -4.618  0.00  0.00    -0.280 N 
ATOM     13  C   UNL     1      -1.051  -3.731  -5.790  0.00  0.00    +0.255 C 
ATOM     14  O   UNL     1      -1.604  -4.161  -6.781  0.00  0.00    -0.272 OA
ATOM     15  C   UNL     1      -0.254  -2.454  -5.862  0.00  0.00    +0.325 C 
ATOM     16  O   UNL     1      -0.323  -1.773  -4.607  0.00  0.00    -0.481 OA
ATOM     17  H   UNL     1       0.530  -5.833  -0.165  0.00  0.00    +0.155 HD
ATOM     18  H   UNL     1      -1.638  -5.230  -4.564  0.00  0.00    +0.155 HD
ENDROOT
BRANCH   1  22
ATOM     19  C   UNL     1      -0.016   1.314   0.009  0.00  0.00    +0.119 A 
ATOM     20  C   UNL     1       1.186   1.946   0.001  0.00  0.00    +0.066 A 
ATOM     21  S   UNL     1       2.294   0.545  -0.017  0.00  0.00    -0.080 S 
ATOM     22  C   UNL     1       1.129  -0.670  -0.012  0.00  0.00    +0.086 A 
ATOM     23  N   UNL     1       0.002  -0.004   0.002  0.00  0.00    -0.252 NA
ENDBRANCH   1  22
TORSDOF 1
