REMARK  Name = ZINC14669890
REMARK  12 active torsions:
REMARK  status: ('A' for Active; 'I' for Inactive)
REMARK    1  A    between atoms: C_1  and  C_2
REMARK    2  A    between atoms: C_2  and  C_3
REMARK    3  A    between atoms: C_3  and  C_4
REMARK    4  A    between atoms: C_4  and  N_5
REMARK    5  A    between atoms: C_6  and  N_32
REMARK    6  A    between atoms: C_7  and  N_14
REMARK    7  A    between atoms: N_14  and  C_15
REMARK    8  A    between atoms: C_15  and  C_16
REMARK    9  A    between atoms: C_16  and  C_17
REMARK   10  A    between atoms: C_16  and  C_18
REMARK   11  A    between atoms: C_19  and  C_21
REMARK   12  A    between atoms: C_28  and  C_31
REMARK                            x       y       z     vdW  Elec       q    Type
REMARK                         _______ _______ _______ _____ _____    ______ ____
ROOT
ATOM      1  N   UNL     1      -0.861   2.368   6.018  0.00  0.00    -0.260 N 
ATOM      2  C   UNL     1      -1.985   2.636   5.323  0.00  0.00    +0.258 C 
ATOM      3  O   UNL     1      -2.973   3.052   5.900  0.00  0.00    -0.269 OA
ENDROOT
BRANCH   2   4
ATOM      4  C   UNL     1      -2.017   2.427   3.873  0.00  0.00    +0.075 A 
ATOM      5  C   UNL     1      -3.089   2.518   3.001  0.00  0.00    +0.024 A 
ATOM      6  C   UNL     1      -2.860   2.272   1.657  0.00  0.00    -0.036 A 
ATOM      7  C   UNL     1      -1.581   1.953   1.299  0.00  0.00    -0.006 A 
ATOM      8  S   UNL     1      -0.685   1.986   2.769  0.00  0.00    -0.088 S 
ATOM      9  C   UNL     1      -1.079   1.646  -0.079  0.00  0.00    +0.043 C 
ATOM     10  C   UNL     1      -2.137   2.104  -1.093  0.00  0.00    +0.009 C 
ATOM     11  C   UNL     1      -3.507   1.589  -0.643  0.00  0.00    -0.009 C 
ATOM     12  C   UNL     1      -3.964   2.345   0.605  0.00  0.00    +0.039 C 
ATOM     13  C   UNL     1      -4.524   1.801  -1.767  0.00  0.00    +0.008 C 
ENDBRANCH   2   4
BRANCH   1  16
ATOM     14  N   UNL     1      -1.151   3.758   9.407  0.00  0.00    -0.280 N 
ATOM     15  C   UNL     1      -1.162   3.680   8.034  0.00  0.00    +0.127 A 
ATOM     16  C   UNL     1      -0.858   2.480   7.424  0.00  0.00    +0.140 A 
ATOM     17  C   UNL     1      -0.551   1.367   8.230  0.00  0.00    +0.277 A 
ATOM     18  O   UNL     1      -0.284   0.293   7.718  0.00  0.00    -0.266 OA
ATOM     19  N   UNL     1      -0.549   1.499   9.571  0.00  0.00    -0.273 N 
ATOM     20  H   UNL     1      -0.322   0.711  10.145  0.00  0.00    +0.173 HD
ATOM     21  C   UNL     1      -0.847   2.676  10.148  0.00  0.00    +0.331 A 
ATOM     22  O   UNL     1      -0.842   2.766  11.360  0.00  0.00    -0.246 OA
BRANCH  15  23
ATOM     23  N   UNL     1      -1.471   4.785   7.277  0.00  0.00    -0.343 N 
ATOM     24  H   UNL     1      -1.527   4.712   6.312  0.00  0.00    +0.144 HD
ATOM     25  H   UNL     1      -1.635   5.638   7.709  0.00  0.00    +0.144 HD
ENDBRANCH  15  23
BRANCH  14  26
ATOM     26  C   UNL     1      -1.470   5.026  10.067  0.00  0.00    +0.128 C 
BRANCH  26  27
ATOM     27  C   UNL     1      -2.976   5.099  10.330  0.00  0.00    +0.021 C 
BRANCH  27  29
ATOM     28  C   UNL     1      -4.816   6.496  11.281  0.00  0.00    +0.004 C 
ATOM     29  C   UNL     1      -3.310   6.423  11.019  0.00  0.00    -0.002 C 
ENDBRANCH  27  29
ENDBRANCH  26  27
ENDBRANCH  14  26
ENDBRANCH   1  16
BRANCH   1  30
ATOM     30  C   UNL     1       0.357   1.961   5.313  0.00  0.00    +0.117 C 
BRANCH  30  31
ATOM     31  C   UNL     1       1.090   3.203   4.803  0.00  0.00    +0.001 C 
ATOM     32  C   UNL     1       1.591   4.024   5.993  0.00  0.00    +0.009 C 
ATOM     33  C   UNL     1       2.280   2.775   3.941  0.00  0.00    +0.009 C 
ENDBRANCH  30  31
ENDBRANCH   1  30
TORSDOF 8
