REMARK  Name = ZINC11340487
REMARK  5 active torsions:
REMARK  status: ('A' for Active; 'I' for Inactive)
REMARK    1  A    between atoms: C_5  and  C_7
REMARK    2  A    between atoms: C_7  and  S_8
REMARK    3  A    between atoms: S_8  and  C_9
REMARK    4  A    between atoms: C_20  and  C_22
REMARK    5  A    between atoms: C_26  and  O_28
REMARK                            x       y       z     vdW  Elec       q    Type
REMARK                         _______ _______ _______ _____ _____    ______ ____
ROOT
ATOM      1  C   UNL     1       3.114  -3.510  -3.541  0.00  0.00    +0.171 A 
ATOM      2  N   UNL     1       1.829  -3.063  -3.611  0.00  0.00    -0.302 N 
ATOM      3  H   UNL     1       1.302  -3.053  -4.576  0.00  0.00    +0.171 HD
ATOM      4  C   UNL     1       1.200  -2.632  -2.497  0.00  0.00    +0.258 A 
ATOM      5  O   UNL     1       0.049  -2.228  -2.549  0.00  0.00    -0.267 OA
ATOM      6  C   UNL     1       1.892  -2.658  -1.280  0.00  0.00    +0.069 A 
ATOM      7  C   UNL     1       3.194  -3.126  -1.263  0.00  0.00    +0.135 A 
ATOM      8  N   UNL     1       3.769  -3.537  -2.398  0.00  0.00    -0.208 NA
ATOM      9  N   UNL     1       3.891  -3.164  -0.071  0.00  0.00    -0.302 N 
ATOM     10  C   UNL     1       3.228  -3.131   1.125  0.00  0.00    +0.017 C 
ATOM     11  C   UNL     1       1.960  -2.674   1.203  0.00  0.00    +0.024 C 
ATOM     12  C   UNL     1       1.229  -2.184  -0.021  0.00  0.00    +0.092 C 
ATOM     13  C   UNL     1       1.279  -2.636   2.433  0.00  0.00    +0.162 C 
ATOM     14  O   UNL     1       0.132  -2.237   2.466  0.00  0.00    -0.292 OA
ATOM     15  C   UNL     1       1.941  -3.081   3.707  0.00  0.00    +0.080 C 
ATOM     16  C   UNL     1       3.453  -2.862   3.585  0.00  0.00    +0.014 C 
ATOM     17  C   UNL     1       3.953  -3.623   2.354  0.00  0.00    +0.051 C 
ATOM     18  H   UNL     1       4.990  -3.222  -0.078  0.00  0.00    +0.153 HD
ENDROOT
BRANCH  12  19
ATOM     19  C   UNL     1       1.208  -0.677  -0.013  0.00  0.00    -0.032 A 
ATOM     20  C   UNL     1       2.396   0.030  -0.020  0.00  0.00    +0.005 A 
ATOM     21  C   UNL     1       2.380   1.413  -0.013  0.00  0.00    +0.004 A 
ATOM     22  C   UNL     1       1.176   2.091   0.002  0.00  0.00    +0.045 A 
ATOM     23  C   UNL     1      -0.017   1.383   0.010  0.00  0.00    +0.117 A 
ATOM     24  C   UNL     1       0.002  -0.004   0.002  0.00  0.00    +0.050 A 
BRANCH  23  25
ATOM     25  O   UNL     1      -1.202   2.048   0.019  0.00  0.00    -0.507 OA
ATOM     26  H   UNL     1      -2.148   1.486   0.025  0.00  0.00    +0.292 HD
ENDBRANCH  23  25
ENDBRANCH  12  19
BRANCH   1  27
ATOM     27  S   UNL     1       3.917  -4.062  -5.009  0.00  0.00    -0.083 S 
BRANCH  27  28
ATOM     28  C   UNL     1       5.533  -4.516  -4.332  0.00  0.00    +0.115 C 
BRANCH  28  33
ATOM     29  C   UNL     1       7.231  -6.852  -6.763  0.00  0.00    +0.000 A 
ATOM     30  C   UNL     1       8.033  -5.978  -7.474  0.00  0.00    +0.003 A 
ATOM     31  C   UNL     1       8.027  -4.630  -7.169  0.00  0.00    +0.038 A 
ATOM     32  C   UNL     1       7.217  -4.155  -6.151  0.00  0.00    +0.127 A 
ATOM     33  C   UNL     1       6.414  -5.032  -5.440  0.00  0.00    -0.002 A 
ATOM     34  C   UNL     1       6.427  -6.380  -5.743  0.00  0.00    +0.007 A 
ATOM     35  F   UNL     1       7.210  -2.838  -5.851  0.00  0.00    -0.205 F 
ENDBRANCH  28  33
ENDBRANCH  27  28
ENDBRANCH   1  27
TORSDOF 5
