REMARK  Name = ZINC06624446
REMARK  5 active torsions:
REMARK  status: ('A' for Active; 'I' for Inactive)
REMARK    1  A    between atoms: C_1  and  C_2
REMARK    2  A    between atoms: C_2  and  C_3
REMARK    3  A    between atoms: C_2  and  C_4
REMARK    4  A    between atoms: C_4  and  C_5
REMARK    5  A    between atoms: C_5  and  N_6
REMARK                            x       y       z     vdW  Elec       q    Type
REMARK                         _______ _______ _______ _____ _____    ______ ____
ROOT
ATOM      1  N   UNL     1      -1.495  -1.276  -1.200  0.00  0.00    -0.272 N 
ATOM      2  C   UNL     1      -1.900  -1.320   0.122  0.00  0.00    +0.039 A 
ATOM      3  C   UNL     1      -2.988  -1.983   0.695  0.00  0.00    +0.024 A 
ATOM      4  C   UNL     1      -3.160  -1.853   2.064  0.00  0.00    +0.002 A 
ATOM      5  C   UNL     1      -2.301  -1.103   2.841  0.00  0.00    +0.000 A 
ATOM      6  C   UNL     1      -1.214  -0.439   2.283  0.00  0.00    +0.005 A 
ATOM      7  C   UNL     1      -1.035  -0.564   0.922  0.00  0.00    -0.023 A 
ATOM      8  C   UNL     1       0.002  -0.004   0.002  0.00  0.00    +0.079 C 
ATOM      9  C   UNL     1      -0.387  -0.524  -1.365  0.00  0.00    +0.219 C 
ATOM     10  O   UNL     1       0.189  -0.306  -2.410  0.00  0.00    -0.276 OA
ATOM     11  C   UNL     1      -0.018   1.502   0.010  0.00  0.00    +0.022 A 
ATOM     12  C   UNL     1       1.112   2.248   0.004  0.00  0.00    -0.021 A 
ATOM     13  C   UNL     1       0.708   3.636   0.018  0.00  0.00    +0.006 A 
ATOM     14  C   UNL     1       1.428   4.835   0.022  0.00  0.00    +0.048 A 
ATOM     15  C   UNL     1       0.690   6.006   0.037  0.00  0.00    +0.124 A 
ATOM     16  C   UNL     1      -0.697   5.998   0.048  0.00  0.00    +0.040 A 
ATOM     17  C   UNL     1      -1.428   4.824   0.045  0.00  0.00    +0.029 A 
ATOM     18  C   UNL     1      -0.711   3.629   0.030  0.00  0.00    +0.047 A 
ATOM     19  N   UNL     1      -1.113   2.322   0.019  0.00  0.00    -0.358 N 
ATOM     20  H   UNL     1      -2.035   2.022   0.020  0.00  0.00    +0.166 HD
ATOM     21  F   UNL     1       1.339   7.191   0.042  0.00  0.00    -0.205 F 
ATOM     22  C   UNL     1       2.497   1.654  -0.016  0.00  0.00    +0.018 C 
ATOM     23  C   UNL     1       2.382   0.183  -0.440  0.00  0.00    -0.075 C 
ATOM     24  N   UNL     1       1.345  -0.489   0.372  0.00  0.00    +0.395 N 
ATOM     25  H   UNL     1       1.394  -1.502   0.211  0.00  0.00    -0.083 HD
ATOM     26  H   UNL     1       1.513  -0.292   1.365  0.00  0.00    -0.083 HD
ENDROOT
BRANCH   1  27
ATOM     27  C   UNL     1      -2.189  -1.963  -2.292  0.00  0.00    +0.114 C 
BRANCH  27  28
ATOM     28  C   UNL     1      -3.252  -1.036  -2.885  0.00  0.00    +0.022 C 
BRANCH  28  30
ATOM     29  C   UNL     1      -4.748  -2.950  -3.467  0.00  0.00    +0.007 C 
ATOM     30  C   UNL     1      -3.976  -1.753  -4.026  0.00  0.00    -0.016 C 
ATOM     31  C   UNL     1      -4.951  -0.786  -4.699  0.00  0.00    +0.007 C 
ENDBRANCH  28  30
ENDBRANCH  27  28
ENDBRANCH   1  27
TORSDOF 3
