REMARK  Name = ZINC36637362
REMARK  8 active torsions:
REMARK  status: ('A' for Active; 'I' for Inactive)
REMARK    1  A    between atoms: C_1  and  N_2
REMARK    2  A    between atoms: N_2  and  C_3
REMARK    3  A    between atoms: N_2  and  C_4
REMARK    4  A    between atoms: C_4  and  C_5
REMARK    5  A    between atoms: C_5  and  N_6
REMARK    6  A    between atoms: C_17  and  C_19
REMARK    7  A    between atoms: C_19  and  C_20
REMARK    8  A    between atoms: C_19  and  C_26
REMARK                            x       y       z     vdW  Elec       q    Type
REMARK                         _______ _______ _______ _____ _____    ______ ____
ROOT
ATOM      1  N   UNL     1      -2.748  -0.985  -0.600  0.00  0.00    -0.251 N 
ATOM      2  C   UNL     1      -3.430  -0.339   0.417  0.00  0.00    +0.168 A 
ATOM      3  N   UNL     1      -2.976   0.528   1.292  0.00  0.00    -0.224 NA
ATOM      4  C   UNL     1      -3.763   1.085   2.238  0.00  0.00    +0.080 A 
ATOM      5  C   UNL     1      -3.402   2.024   3.232  0.00  0.00    +0.030 A 
ATOM      6  C   UNL     1      -4.331   2.491   4.124  0.00  0.00    +0.017 A 
ATOM      7  C   UNL     1      -5.652   2.064   4.087  0.00  0.00    +0.019 A 
ATOM      8  C   UNL     1      -6.039   1.145   3.128  0.00  0.00    +0.032 A 
ATOM      9  C   UNL     1      -5.115   0.672   2.230  0.00  0.00    +0.042 A 
ATOM     10  S   UNL     1      -5.154  -0.469   0.870  0.00  0.00    -0.052 S 
ATOM     11 BR   UNL     1      -6.907   2.730   5.335  0.00  0.00    -0.050 Br
ATOM     12  C   UNL     1      -3.398  -1.847  -1.407  0.00  0.00    +0.233 C 
ATOM     13  O   UNL     1      -4.599  -1.980  -1.309  0.00  0.00    -0.274 OA
ENDROOT
BRANCH   1  14
ATOM     14  C   UNL     1      -1.318  -0.732  -0.800  0.00  0.00    +0.097 C 
BRANCH  14  15
ATOM     15  C   UNL     1      -0.503  -1.739   0.014  0.00  0.00    -0.060 C 
BRANCH  15  17
ATOM     16  C   UNL     1       1.275  -0.168   0.366  0.00  0.00    -0.097 C 
ATOM     17  N   UNL     1       0.930  -1.485  -0.186  0.00  0.00    +0.377 N 
ATOM     18  C   UNL     1       1.711  -2.523   0.499  0.00  0.00    -0.097 C 
ATOM     19  H   UNL     1       1.140  -1.501  -1.173  0.00  0.00    -0.083 HD
ENDBRANCH  15  17
ENDBRANCH  14  15
ENDBRANCH   1  14
BRANCH  12  20
ATOM     20  C   UNL     1      -2.633  -2.645  -2.431  0.00  0.00    +0.135 C 
BRANCH  20  21
ATOM     21  C   UNL     1      -3.543  -3.676  -3.047  0.00  0.00    -0.031 A 
ATOM     22  C   UNL     1      -4.608  -3.277  -3.832  0.00  0.00    +0.005 A 
ATOM     23  C   UNL     1      -5.443  -4.223  -4.397  0.00  0.00    +0.000 A 
ATOM     24  C   UNL     1      -5.212  -5.568  -4.177  0.00  0.00    +0.000 A 
ATOM     25  C   UNL     1      -4.146  -5.967  -3.393  0.00  0.00    +0.000 A 
ATOM     26  C   UNL     1      -3.309  -5.022  -2.832  0.00  0.00    +0.005 A 
ENDBRANCH  20  21
BRANCH  20  27
ATOM     27  C   UNL     1      -2.119  -1.722  -3.506  0.00  0.00    -0.031 A 
ATOM     28  C   UNL     1      -0.855  -1.910  -4.032  0.00  0.00    +0.005 A 
ATOM     29  C   UNL     1      -0.384  -1.063  -5.018  0.00  0.00    +0.000 A 
ATOM     30  C   UNL     1      -1.177  -0.029  -5.478  0.00  0.00    +0.000 A 
ATOM     31  C   UNL     1      -2.442   0.158  -4.953  0.00  0.00    +0.000 A 
ATOM     32  C   UNL     1      -2.915  -0.691  -3.970  0.00  0.00    +0.005 A 
ENDBRANCH  20  27
ENDBRANCH  12  20
TORSDOF 6
