REMARK  Name = ZINC21148622
REMARK  11 active torsions:
REMARK  status: ('A' for Active; 'I' for Inactive)
REMARK    1  A    between atoms: C_1  and  C_2
REMARK    2  A    between atoms: C_5  and  O_32
REMARK    3  A    between atoms: C_6  and  C_8
REMARK    4  A    between atoms: N_16  and  C_28
REMARK    5  A    between atoms: C_17  and  C_19
REMARK    6  A    between atoms: C_22  and  C_25
REMARK    7  A    between atoms: C_25  and  C_26
REMARK    8  A    between atoms: C_25  and  C_27
REMARK    9  A    between atoms: C_28  and  C_29
REMARK   10  A    between atoms: C_29  and  C_30
REMARK   11  A    between atoms: C_30  and  O_31
REMARK                            x       y       z     vdW  Elec       q    Type
REMARK                         _______ _______ _______ _____ _____    ______ ____
ROOT
ATOM      1  C   UNL     1      -0.009  -2.868   2.557  0.00  0.00    +0.102 A 
ATOM      2  C   UNL     1       0.149  -4.254   2.657  0.00  0.00    +0.035 A 
ATOM      3  C   UNL     1       0.131  -4.538   4.009  0.00  0.00    +0.126 A 
ATOM      4  N   UNL     1      -0.033  -3.341   4.647  0.00  0.00    -0.272 N 
ATOM      5  H   UNL     1      -0.083  -3.225   5.609  0.00  0.00    +0.189 HD
ATOM      6  N   UNL     1      -0.106  -2.392   3.783  0.00  0.00    -0.173 NA
ATOM      7  C   UNL     1       0.293  -5.986   4.184  0.00  0.00    +0.265 C 
ATOM      8  O   UNL     1       0.319  -6.558   5.257  0.00  0.00    -0.268 OA
ATOM      9  N   UNL     1       0.409  -6.592   2.988  0.00  0.00    -0.285 N 
ATOM     10  C   UNL     1       0.329  -5.565   1.942  0.00  0.00    +0.141 C 
ENDROOT
BRANCH   1  16
ATOM     11  C   UNL     1       1.853  -1.817  -1.954  0.00  0.00    +0.044 C 
ATOM     12  C   UNL     1       0.839  -1.568  -0.868  0.00  0.00    -0.050 A 
ATOM     13  C   UNL     1      -0.134  -0.599  -1.042  0.00  0.00    +0.007 A 
ATOM     14  C   UNL     1      -1.068  -0.363  -0.051  0.00  0.00    +0.046 A 
ATOM     15  C   UNL     1      -1.034  -1.097   1.124  0.00  0.00    +0.126 A 
ATOM     16  C   UNL     1      -0.053  -2.077   1.302  0.00  0.00    +0.044 A 
ATOM     17  C   UNL     1       0.880  -2.310   0.295  0.00  0.00    +0.017 A 
BRANCH  15  18
ATOM     18  O   UNL     1      -1.952  -0.866   2.099  0.00  0.00    -0.506 OA
ATOM     19  H   UNL     1      -2.784  -1.344   1.978  0.00  0.00    +0.292 HD
ENDBRANCH  15  18
ENDBRANCH   1  16
BRANCH  10  20
ATOM     20  C   UNL     1      -0.851  -5.831   1.043  0.00  0.00    -0.022 A 
ATOM     21  C   UNL     1      -2.079  -6.151   1.591  0.00  0.00    +0.006 A 
ATOM     22  C   UNL     1      -3.161  -6.396   0.766  0.00  0.00    +0.004 A 
ATOM     23  C   UNL     1      -3.015  -6.320  -0.606  0.00  0.00    -0.045 A 
ATOM     24  C   UNL     1      -1.787  -6.000  -1.154  0.00  0.00    +0.004 A 
ATOM     25  C   UNL     1      -0.706  -5.751  -0.330  0.00  0.00    +0.006 A 
BRANCH  23  26
ATOM     26  C   UNL     1      -4.195  -6.588  -1.505  0.00  0.00    +0.013 C 
ATOM     27  C   UNL     1      -4.482  -5.347  -2.353  0.00  0.00    +0.012 C 
ATOM     28  C   UNL     1      -3.878  -7.771  -2.423  0.00  0.00    +0.012 C 
ENDBRANCH  23  26
ENDBRANCH  10  20
BRANCH   9  29
ATOM     29  C   UNL     1       0.585  -8.030   2.768  0.00  0.00    +0.111 C 
BRANCH  29  30
ATOM     30  C   UNL     1      -0.785  -8.697   2.636  0.00  0.00    +0.047 C 
BRANCH  30  31
ATOM     31  C   UNL     1      -0.602 -10.198   2.406  0.00  0.00    +0.157 C 
BRANCH  31  32
ATOM     32  O   UNL     1      -1.882 -10.821   2.284  0.00  0.00    -0.395 OA
ATOM     33  H   UNL     1      -1.842 -11.776   2.136  0.00  0.00    +0.209 HD
ENDBRANCH  31  32
ENDBRANCH  30  31
ENDBRANCH  29  30
ENDBRANCH   9  29
TORSDOF 8
