REMARK  Name = ZINC05242782
REMARK  9 active torsions:
REMARK  status: ('A' for Active; 'I' for Inactive)
REMARK    1  A    between atoms: C_1  and  C_2
REMARK    2  A    between atoms: C_2  and  C_3
REMARK    3  A    between atoms: C_2  and  C_4
REMARK    4  A    between atoms: C_14  and  C_31
REMARK    5  A    between atoms: C_18  and  C_19
REMARK    6  A    between atoms: C_18  and  C_20
REMARK    7  A    between atoms: C_20  and  N_67
REMARK    8  A    between atoms: C_21  and  C_22
REMARK    9  A    between atoms: C_21  and  N_67
REMARK                            x       y       z     vdW  Elec       q    Type
REMARK                         _______ _______ _______ _____ _____    ______ ____
ROOT
ATOM      1  C   UNL     1       6.184   3.015   0.984  0.00  0.00    -0.045 A 
ATOM      2  C   UNL     1       5.063   3.716   0.580  0.00  0.00    +0.004 A 
ATOM      3  C   UNL     1       3.813   3.151   0.734  0.00  0.00    +0.005 A 
ATOM      4  C   UNL     1       3.676   1.888   1.284  0.00  0.00    -0.038 A 
ATOM      5  C   UNL     1       4.788   1.190   1.701  0.00  0.00    -0.043 A 
ATOM      6  C   UNL     1       6.046   1.762   1.541  0.00  0.00    +0.007 A 
ATOM      7  C   UNL     1       4.729  -0.173   2.336  0.00  0.00    +0.036 C 
ATOM      8  C   UNL     1       3.295  -0.583   2.682  0.00  0.00    +0.009 C 
ATOM      9  C   UNL     1       2.402  -0.201   1.504  0.00  0.00    +0.004 C 
ATOM     10  C   UNL     1       2.285   1.309   1.429  0.00  0.00    -0.004 C 
ATOM     11  C   UNL     1       1.418   1.722   0.242  0.00  0.00    +0.011 C 
ATOM     12  C   UNL     1       0.044   1.061   0.360  0.00  0.00    +0.001 C 
ATOM     13  C   UNL     1       0.186  -0.455   0.341  0.00  0.00    +0.005 C 
ATOM     14  C   UNL     1       1.099  -0.966   1.458  0.00  0.00    -0.044 C 
ATOM     15  C   UNL     1       0.357  -0.947   2.793  0.00  0.00    +0.009 C 
ATOM     16  C   UNL     1       1.692   1.911   2.704  0.00  0.00    +0.016 C 
ENDROOT
BRANCH   1  18
ATOM     17  C   UNL     1       7.810   3.905  -0.663  0.00  0.00    +0.012 C 
ATOM     18  C   UNL     1       7.554   3.622   0.818  0.00  0.00    +0.013 C 
ATOM     19  C   UNL     1       7.632   4.929   1.608  0.00  0.00    +0.012 C 
ENDBRANCH   1  18
BRANCH  14  20
ATOM     20  C   UNL     1       1.416  -2.445   1.129  0.00  0.00    -0.075 C 
BRANCH  20  21
ATOM     21  N   UNL     1       0.156  -3.211   1.084  0.00  0.00    +0.382 N 
ATOM     22  H   UNL     1      -0.455  -2.816   0.359  0.00  0.00    -0.085 HD
ATOM     23  H   UNL     1      -0.311  -3.148   1.996  0.00  0.00    -0.085 HD
BRANCH  21  24
ATOM     24  C   UNL     1       0.428  -4.627   0.772  0.00  0.00    -0.047 C 
BRANCH  24  25
ATOM     25  C   UNL     1      -0.875  -5.383   0.733  0.00  0.00    -0.061 A 
ATOM     26  C   UNL     1      -1.574  -5.491  -0.455  0.00  0.00    +0.005 A 
ATOM     27  C   UNL     1      -2.769  -6.184  -0.497  0.00  0.00    +0.050 A 
ATOM     28  C   UNL     1      -3.270  -6.772   0.653  0.00  0.00    +0.166 A 
ATOM     29  C   UNL     1      -2.566  -6.663   1.850  0.00  0.00    +0.166 A 
ATOM     30  C   UNL     1      -1.366  -5.971   1.883  0.00  0.00    +0.051 A 
ATOM     31  O   UNL     1      -3.259  -7.319   2.826  0.00  0.00    -0.453 OA
ATOM     32  C   UNL     1      -4.593  -7.481   2.307  0.00  0.00    +0.466 C 
ATOM     33  O   UNL     1      -4.404  -7.497   0.879  0.00  0.00    -0.453 OA
ENDBRANCH  24  25
ENDBRANCH  21  24
ENDBRANCH  20  21
ENDBRANCH  14  20
TORSDOF 5
