REMARK  Name = ZINC09489350
REMARK  10 active torsions:
REMARK  status: ('A' for Active; 'I' for Inactive)
REMARK    1  A    between atoms: C_1  and  C_2
REMARK    2  A    between atoms: C_2  and  N_3
REMARK    3  A    between atoms: N_3  and  C_4
REMARK    4  A    between atoms: N_3  and  C_11
REMARK    5  A    between atoms: C_4  and  C_5
REMARK    6  A    between atoms: C_14  and  C_17
REMARK    7  A    between atoms: N_21  and  C_28
REMARK    8  A    between atoms: N_24  and  C_27
REMARK    9  A    between atoms: C_35  and  C_37
REMARK   10  A    between atoms: C_35  and  C_38
REMARK                            x       y       z     vdW  Elec       q    Type
REMARK                         _______ _______ _______ _____ _____    ______ ____
ROOT
ATOM      1  C   UNL     1       3.710  -0.706  -0.038  0.00  0.00    +0.092 C 
ATOM      2  C   UNL     1       4.498  -0.336   1.185  0.00  0.00    +0.067 A 
ATOM      3  C   UNL     1       5.533   0.546   1.109  0.00  0.00    +0.116 A 
ATOM      4  N   UNL     1       6.232   0.872   2.247  0.00  0.00    -0.284 N 
ATOM      5  C   UNL     1       5.900   0.320   3.429  0.00  0.00    +0.333 A 
ATOM      6  O   UNL     1       6.528   0.619   4.426  0.00  0.00    -0.246 OA
ATOM      7  N   UNL     1       4.884  -0.556   3.523  0.00  0.00    -0.264 N 
ATOM      8  C   UNL     1       4.172  -0.901   2.432  0.00  0.00    +0.262 A 
ATOM      9  O   UNL     1       3.253  -1.696   2.524  0.00  0.00    -0.267 OA
ATOM     10  C   UNL     1       4.547  -1.140   4.823  0.00  0.00    +0.157 C 
ATOM     11  C   UNL     1       7.344   1.822   2.172  0.00  0.00    +0.155 C 
ATOM     12  N   UNL     1       5.876   1.104  -0.097  0.00  0.00    -0.303 N 
ATOM     13  C   UNL     1       5.487   0.519  -1.272  0.00  0.00    +0.017 C 
ATOM     14  C   UNL     1       4.459  -0.353  -1.298  0.00  0.00    +0.024 C 
ATOM     15  C   UNL     1       4.049  -0.956  -2.501  0.00  0.00    +0.162 C 
ATOM     16  O   UNL     1       3.128  -1.748  -2.487  0.00  0.00    -0.292 OA
ATOM     17  C   UNL     1       4.731  -0.638  -3.803  0.00  0.00    +0.086 C 
ATOM     18  C   UNL     1       5.299   0.783  -3.735  0.00  0.00    -0.023 C 
ATOM     19  C   UNL     1       6.240   0.871  -2.531  0.00  0.00    +0.058 C 
ATOM     20  C   UNL     1       4.156   1.786  -3.567  0.00  0.00    +0.011 C 
ATOM     21  C   UNL     1       6.074   1.090  -5.018  0.00  0.00    +0.011 C 
ATOM     22  H   UNL     1       6.399   1.921  -0.117  0.00  0.00    +0.153 HD
ENDROOT
BRANCH   1  26
ATOM     23  C   UNL     1      -0.017   1.385   0.010  0.00  0.00    +0.030 A 
ATOM     24  C   UNL     1       1.179   2.093   0.002  0.00  0.00    +0.023 A 
ATOM     25  C   UNL     1       2.381   1.414  -0.013  0.00  0.00    +0.006 A 
ATOM     26  C   UNL     1       2.396   0.031  -0.021  0.00  0.00    -0.035 A 
ATOM     27  C   UNL     1       1.208  -0.677  -0.013  0.00  0.00    +0.006 A 
ATOM     28  C   UNL     1       0.002  -0.004   0.002  0.00  0.00    +0.023 A 
BRANCH  23  29
ATOM     29  N   UNL     1      -1.235   2.068   0.019  0.00  0.00    -0.326 N 
BRANCH  29  31
ATOM     30  C   UNL     1      -2.926   1.052   1.464  0.00  0.00    +0.024 C 
ATOM     31  C   UNL     1      -2.494   1.320   0.021  0.00  0.00    +0.102 C 
ENDBRANCH  29  31
BRANCH  29  32
ATOM     32  C   UNL     1      -1.253   3.533   0.027  0.00  0.00    +0.140 C 
BRANCH  32  33
ATOM     33  C   UNL     1      -1.266   4.043  -1.391  0.00  0.00    -0.030 A 
ATOM     34  C   UNL     1      -0.075   4.297  -2.045  0.00  0.00    +0.005 A 
ATOM     35  C   UNL     1      -0.086   4.760  -3.347  0.00  0.00    +0.000 A 
ATOM     36  C   UNL     1      -1.289   4.980  -3.992  0.00  0.00    +0.000 A 
ATOM     37  C   UNL     1      -2.481   4.731  -3.336  0.00  0.00    +0.000 A 
ATOM     38  C   UNL     1      -2.469   4.262  -2.036  0.00  0.00    +0.005 A 
ENDBRANCH  32  33
ENDBRANCH  29  32
ENDBRANCH  23  29
ENDBRANCH   1  26
TORSDOF 5
