REMARK  Name = ZINC13127877
REMARK  6 active torsions:
REMARK  status: ('A' for Active; 'I' for Inactive)
REMARK    1  A    between atoms: C_1  and  C_2
REMARK    2  A    between atoms: C_2  and  N_3
REMARK    3  A    between atoms: C_7  and  C_16
REMARK    4  A    between atoms: N_18  and  N_19
REMARK    5  A    between atoms: C_22  and  C_26
REMARK    6  A    between atoms: C_22  and  C_32
REMARK                            x       y       z     vdW  Elec       q    Type
REMARK                         _______ _______ _______ _____ _____    ______ ____
ROOT
ATOM      1  N   UNL     1      -7.132   4.611  -0.263  0.00  0.00    -0.136 N 
ATOM      2  C   UNL     1      -8.032   4.957  -1.205  0.00  0.00    +0.272 C 
ATOM      3  O   UNL     1      -7.817   5.171  -2.378  0.00  0.00    -0.270 OA
ATOM      4  C   UNL     1      -9.368   5.020  -0.492  0.00  0.00    +0.165 C 
ATOM      5  N   UNL     1      -9.035   4.670   0.900  0.00  0.00    -0.276 N 
ATOM      6  C   UNL     1      -7.709   4.444   0.933  0.00  0.00    +0.327 C 
ATOM      7  O   UNL     1      -7.103   4.127   1.937  0.00  0.00    -0.251 OA
ATOM      8  H   UNL     1      -9.652   4.610   1.646  0.00  0.00    +0.152 HD
ENDROOT
BRANCH   4   9
ATOM      9  C   UNL     1      -9.943   6.411  -0.566  0.00  0.00    -0.011 A 
ATOM     10  C   UNL     1      -9.992   7.075  -1.777  0.00  0.00    +0.006 A 
ATOM     11  C   UNL     1     -10.523   8.350  -1.845  0.00  0.00    +0.000 A 
ATOM     12  C   UNL     1     -10.997   8.963  -0.701  0.00  0.00    +0.000 A 
ATOM     13  C   UNL     1     -10.943   8.301   0.511  0.00  0.00    +0.000 A 
ATOM     14  C   UNL     1     -10.416   7.025   0.579  0.00  0.00    +0.006 A 
ENDBRANCH   4   9
BRANCH   4  15
ATOM     15  C   UNL     1     -10.330   4.019  -1.078  0.00  0.00    -0.011 A 
ATOM     16  C   UNL     1     -10.545   3.985  -2.443  0.00  0.00    +0.006 A 
ATOM     17  C   UNL     1     -11.424   3.063  -2.982  0.00  0.00    +0.000 A 
ATOM     18  C   UNL     1     -12.094   2.183  -2.154  0.00  0.00    +0.000 A 
ATOM     19  C   UNL     1     -11.883   2.220  -0.788  0.00  0.00    +0.000 A 
ATOM     20  C   UNL     1     -11.001   3.139  -0.250  0.00  0.00    +0.006 A 
ENDBRANCH   4  15
BRANCH   1  23
ATOM     21  C   UNL     1      -4.885   5.381  -0.101  0.00  0.00    +0.261 C 
ATOM     22  O   UNL     1      -5.281   6.375   0.476  0.00  0.00    -0.269 OA
ATOM     23  N   UNL     1      -5.763   4.442  -0.506  0.00  0.00    -0.220 N 
ATOM     24  H   UNL     1      -5.447   3.648  -0.967  0.00  0.00    +0.174 HD
BRANCH  21  29
ATOM     25  N   UNL     1       0.625   4.673  -1.097  0.00  0.00    -0.303 N 
ATOM     26  C   UNL     1      -0.729   4.861  -0.852  0.00  0.00    +0.068 A 
ATOM     27  C   UNL     1      -1.642   3.891  -1.262  0.00  0.00    +0.029 A 
ATOM     28  C   UNL     1      -2.985   4.059  -1.022  0.00  0.00    +0.015 A 
ATOM     29  C   UNL     1      -3.442   5.202  -0.358  0.00  0.00    +0.040 A 
ATOM     30  C   UNL     1      -2.533   6.173   0.061  0.00  0.00    +0.041 A 
ATOM     31  C   UNL     1      -1.178   6.003  -0.182  0.00  0.00    +0.067 A 
ATOM     32  N   UNL     1      -0.277   6.978   0.240  0.00  0.00    -0.316 N 
ATOM     33  H   UNL     1      -0.598   7.769   0.700  0.00  0.00    +0.169 HD
ATOM     34  C   UNL     1       1.043   6.822   0.009  0.00  0.00    +0.314 A 
ATOM     35  O   UNL     1       1.834   7.668   0.374  0.00  0.00    -0.262 OA
ATOM     36  C   UNL     1       1.521   5.600  -0.700  0.00  0.00    +0.316 A 
ATOM     37  O   UNL     1       2.705   5.440  -0.917  0.00  0.00    -0.262 OA
BRANCH  25  39
ATOM     38  C   UNL     1       1.381   2.370  -0.772  0.00  0.00    +0.027 C 
ATOM     39  C   UNL     1       1.081   3.468  -1.794  0.00  0.00    +0.122 C 
ENDBRANCH  25  39
ENDBRANCH  21  29
ENDBRANCH   1  23
TORSDOF 5
