REMARK  Name = ZINC42772644
REMARK  5 active torsions:
REMARK  status: ('A' for Active; 'I' for Inactive)
REMARK    1  A    between atoms: C_1  and  C_2
REMARK    2  A    between atoms: N_11  and  C_12
REMARK    3  A    between atoms: C_15  and  C_21
REMARK    4  A    between atoms: C_17  and  N_18
REMARK    5  A    between atoms: C_21  and  O_22
REMARK                            x       y       z     vdW  Elec       q    Type
REMARK                         _______ _______ _______ _____ _____    ______ ____
ROOT
ATOM      1  C   UNL     1       0.433  -1.122   2.342  0.00  0.00    +0.061 A 
ATOM      2  C   UNL     1      -0.032  -0.329   3.385  0.00  0.00    +0.026 A 
ATOM      3  C   UNL     1      -0.818  -0.884   4.374  0.00  0.00    +0.008 A 
ATOM      4  C   UNL     1      -1.144  -2.228   4.329  0.00  0.00    -0.020 A 
ATOM      5  C   UNL     1      -0.684  -3.019   3.293  0.00  0.00    +0.040 A 
ATOM      6  C   UNL     1       0.099  -2.469   2.297  0.00  0.00    +0.147 A 
ENDROOT
BRANCH   1  16
ATOM      7  C   UNL     1       0.622   1.437   0.053  0.00  0.00    +0.033 C 
ATOM      8  C   UNL     1       0.625  -0.093   0.085  0.00  0.00    +0.101 C 
ATOM      9  C   UNL     1       1.465  -0.633  -1.071  0.00  0.00    -0.017 A 
ATOM     10  C   UNL     1       1.044  -0.605  -2.399  0.00  0.00    +0.013 A 
ATOM     11  C   UNL     1       1.844  -1.098  -3.373  0.00  0.00    +0.046 A 
ATOM     12  S   UNL     1       3.268  -1.640  -2.440  0.00  0.00    -0.101 S 
ATOM     13  C   UNL     1       2.690  -1.173  -0.829  0.00  0.00    -0.004 A 
ATOM     14  C   UNL     1       3.379  -1.336   0.487  0.00  0.00    +0.061 C 
ATOM     15  C   UNL     1       2.683  -0.438   1.521  0.00  0.00    +0.111 C 
ATOM     16  N   UNL     1       1.228  -0.563   1.339  0.00  0.00    -0.321 N 
ENDBRANCH   1  16
BRANCH   6  17
ATOM     17  N   UNL     1       0.586  -3.316   1.185  0.00  0.00    +0.058 N 
ATOM     18  O   UNL     1       0.389  -4.508   1.202  0.00  0.00    -0.126 OA
ATOM     19  O   UNL     1       1.182  -2.815   0.260  0.00  0.00    -0.126 OA
ENDBRANCH   6  17
BRANCH   4  20
ATOM     20  C   UNL     1      -2.003  -2.830   5.411  0.00  0.00    +0.191 C 
BRANCH  20  21
ATOM     21  O   UNL     1      -3.379  -2.728   5.039  0.00  0.00    -0.390 OA
ATOM     22  H   UNL     1      -3.991  -3.096   5.691  0.00  0.00    +0.210 HD
ENDBRANCH  20  21
ENDBRANCH   4  20
TORSDOF 4
