REMARK  Name = ZINC63856283
REMARK  4 active torsions:
REMARK  status: ('A' for Active; 'I' for Inactive)
REMARK    1  A    between atoms: C_15  and  C_16
REMARK    2  A    between atoms: C_16  and  N_17
REMARK    3  A    between atoms: C_18  and  C_20
REMARK    4  A    between atoms: C_20  and  C_21
REMARK                            x       y       z     vdW  Elec       q    Type
REMARK                         _______ _______ _______ _____ _____    ______ ____
ROOT
ATOM      1  C   UNL     1      -0.017   1.397   0.010  0.00  0.00    +0.007 A 
ATOM      2  C   UNL     1       1.108   2.144   0.003  0.00  0.00    +0.026 A 
ATOM      3  C   UNL     1       2.384   1.517  -0.015  0.00  0.00    +0.043 A 
ATOM      4  N   UNL     1       3.603   2.004  -0.056  0.00  0.00    -0.378 N 
ATOM      5  C   UNL     1       4.520   0.882   0.053  0.00  0.00    +0.106 C 
ATOM      6  C   UNL     1       5.624   0.905  -1.026  0.00  0.00    +0.029 C 
ATOM      7  C   UNL     1       5.022   0.304  -2.288  0.00  0.00    +0.002 C 
ATOM      8  C   UNL     1       5.270  -1.179  -2.352  0.00  0.00    +0.000 C 
ATOM      9  C   UNL     1       4.186  -2.060  -1.809  0.00  0.00    +0.004 C 
ATOM     10  C   UNL     1       4.093  -1.807  -0.289  0.00  0.00    +0.033 C 
ATOM     11  C   UNL     1       3.733  -0.382  -0.071  0.00  0.00    -0.038 C 
ATOM     12  C   UNL     1       2.429   0.040  -0.035  0.00  0.00    -0.001 A 
ATOM     13  C   UNL     1       1.163  -0.699  -0.018  0.00  0.00    +0.015 A 
ATOM     14  C   UNL     1       0.002  -0.004   0.002  0.00  0.00    -0.030 A 
ATOM     15  H   UNL     1       3.847   2.939  -0.142  0.00  0.00    +0.160 HD
ENDROOT
BRANCH  14  16
ATOM     16  C   UNL     1      -1.304  -0.756   0.018  0.00  0.00    +0.139 C 
BRANCH  16  17
ATOM     17  N   UNL     1      -1.748  -0.992  -1.359  0.00  0.00    -0.311 N 
ATOM     18  C   UNL     1      -2.899  -1.652  -1.591  0.00  0.00    +0.215 C 
ATOM     19  O   UNL     1      -3.569  -2.050  -0.661  0.00  0.00    -0.276 OA
ATOM     20  H   UNL     1      -1.212  -0.674  -2.102  0.00  0.00    +0.149 HD
BRANCH  18  21
ATOM     21  C   UNL     1      -3.356  -1.895  -3.007  0.00  0.00    +0.118 C 
BRANCH  21  22
ATOM     22  C   UNL     1      -4.682  -2.659  -2.991  0.00  0.00    +0.082 C 
ATOM     23  C   UNL     1      -5.119  -3.001  -4.433  0.00  0.00    +0.032 C 
ATOM     24  C   UNL     1      -6.039  -1.806  -4.775  0.00  0.00    +0.097 C 
ATOM     25  C   UNL     1      -6.524  -1.314  -3.429  0.00  0.00    +0.213 C 
ATOM     26  O   UNL     1      -7.473  -0.579  -3.259  0.00  0.00    -0.276 OA
ATOM     27  N   UNL     1      -5.749  -1.812  -2.447  0.00  0.00    -0.312 N 
ATOM     28  H   UNL     1      -5.879  -1.634  -1.502  0.00  0.00    +0.149 HD
ENDBRANCH  21  22
ENDBRANCH  18  21
ENDBRANCH  16  17
ENDBRANCH  14  16
TORSDOF 4
