REMARK  Name = ZINC12786985
REMARK  9 active torsions:
REMARK  status: ('A' for Active; 'I' for Inactive)
REMARK    1  A    between atoms: C_1  and  C_2
REMARK    2  A    between atoms: C_3  and  C_13
REMARK    3  A    between atoms: C_4  and  C_12
REMARK    4  A    between atoms: C_9  and  C_10
REMARK    5  A    between atoms: C_13  and  C_14
REMARK    6  A    between atoms: C_14  and  C_15
REMARK    7  A    between atoms: C_20  and  C_23
REMARK    8  A    between atoms: C_23  and  N_56
REMARK    9  A    between atoms: C_27  and  C_30
REMARK                            x       y       z     vdW  Elec       q    Type
REMARK                         _______ _______ _______ _____ _____    ______ ____
ROOT
ATOM      1  C   UNL     1       4.191   4.830  -1.448  0.00  0.00    +0.219 C 
ATOM      2  O   UNL     1       4.776   5.037  -0.405  0.00  0.00    -0.275 OA
ATOM      3  N   UNL     1       4.721   5.252  -2.613  0.00  0.00    -0.265 N 
ATOM      4  C   UNL     1       5.937   5.925  -2.620  0.00  0.00    +0.164 A 
ATOM      5  N   UNL     1       6.609   6.410  -3.646  0.00  0.00    -0.231 NA
ATOM      6  C   UNL     1       7.761   7.029  -3.477  0.00  0.00    +0.034 A 
ATOM      7  C   UNL     1       8.247   7.157  -2.218  0.00  0.00    +0.070 A 
ATOM      8  S   UNL     1       6.957   6.349  -1.281  0.00  0.00    -0.060 S 
ATOM      9  H   UNL     1       4.253   5.086  -3.446  0.00  0.00    +0.157 HD
ENDROOT
BRANCH   1  10
ATOM     10  C   UNL     1       2.873   4.100  -1.439  0.00  0.00    +0.101 C 
BRANCH  10  11
ATOM     11  C   UNL     1       2.501   3.735  -0.001  0.00  0.00    +0.046 C 
BRANCH  11  14
ATOM     12  C   UNL     1       0.003   5.233   0.031  0.00  0.00    +0.045 C 
ATOM     13  C   UNL     1      -0.012   3.726   0.022  0.00  0.00    -0.023 A 
ATOM     14  C   UNL     1       1.183   3.005   0.007  0.00  0.00    -0.024 A 
ATOM     15  C   UNL     1       1.159   1.649  -0.000  0.00  0.00    +0.019 A 
ATOM     16  N   UNL     1      -0.011   0.966   0.007  0.00  0.00    -0.325 N 
ATOM     17  H   UNL     1       0.002  -0.004   0.002  0.00  0.00    +0.169 HD
ATOM     18  C   UNL     1      -1.192   1.612   0.017  0.00  0.00    +0.267 A 
ATOM     19  O   UNL     1      -2.235   0.981   0.018  0.00  0.00    -0.266 OA
ATOM     20  C   UNL     1      -1.219   3.031   0.029  0.00  0.00    +0.119 A 
ATOM     21  C   UNL     1       2.460   0.887  -0.017  0.00  0.00    +0.063 C 
BRANCH  20  22
ATOM     22  C   UNL     1      -2.466   3.736   0.045  0.00  0.00    +0.105 C 
ATOM     23  N   UNL     1      -3.454   4.296   0.057  0.00  0.00    -0.191 NA
ENDBRANCH  20  22
ENDBRANCH  11  14
ENDBRANCH  10  11
ENDBRANCH   1  10
BRANCH   6  24
ATOM     24  C   UNL     1       8.521   7.580  -4.656  0.00  0.00    -0.022 C 
BRANCH  24  31
ATOM     25  C   UNL     1       8.578   5.275  -5.395  0.00  0.00    -0.078 C 
ATOM     26  C   UNL     1       9.503   4.155  -5.875  0.00  0.00    -0.018 C 
ATOM     27  C   UNL     1      10.127   4.554  -7.215  0.00  0.00    -0.001 C 
ATOM     28  C   UNL     1      10.881   5.876  -7.045  0.00  0.00    -0.031 C 
ATOM     29  C   UNL     1       9.915   6.946  -6.531  0.00  0.00    -0.075 C 
ATOM     30  C   UNL     1      11.457   6.313  -8.393  0.00  0.00    +0.005 C 
ATOM     31  N   UNL     1       9.368   6.513  -5.228  0.00  0.00    +0.384 N 
ATOM     32  H   UNL     1      10.148   6.326  -4.585  0.00  0.00    -0.081 HD
ENDBRANCH  24  31
ENDBRANCH   6  24
TORSDOF 6
