REMARK  Name = ZINC12892737
REMARK  9 active torsions:
REMARK  status: ('A' for Active; 'I' for Inactive)
REMARK    1  A    between atoms: C_1  and  C_2
REMARK    2  A    between atoms: C_2  and  C_3
REMARK    3  A    between atoms: C_2  and  C_4
REMARK    4  A    between atoms: C_4  and  N_5
REMARK    5  A    between atoms: N_5  and  C_6
REMARK    6  A    between atoms: C_7  and  N_22
REMARK    7  A    between atoms: N_8  and  C_15
REMARK    8  A    between atoms: C_15  and  C_16
REMARK    9  A    between atoms: C_23  and  C_25
REMARK                            x       y       z     vdW  Elec       q    Type
REMARK                         _______ _______ _______ _____ _____    ______ ____
ROOT
ATOM      1  N   UNL     1       1.790  -0.249  -1.092  0.00  0.00    -0.260 N 
ATOM      2  C   UNL     1       2.216   0.944  -1.553  0.00  0.00    +0.252 C 
ATOM      3  O   UNL     1       3.366   1.292  -1.367  0.00  0.00    -0.270 OA
ENDROOT
BRANCH   2   4
ATOM      4  C   UNL     1       1.282   1.831  -2.286  0.00  0.00    +0.051 A 
ATOM      5  C   UNL     1       0.357   2.580  -1.615  0.00  0.00    +0.083 A 
ATOM      6  C   UNL     1      -0.527   3.423  -2.332  0.00  0.00    +0.250 A 
ATOM      7  N   UNL     1      -0.485   3.512  -3.673  0.00  0.00    -0.322 N 
ATOM      8  C   UNL     1       0.424   2.783  -4.409  0.00  0.00    +0.050 A 
ATOM      9  C   UNL     1       1.332   1.932  -3.752  0.00  0.00    +0.011 A 
ATOM     10  C   UNL     1       2.258   1.196  -4.495  0.00  0.00    +0.011 A 
ATOM     11  C   UNL     1       2.280   1.311  -5.856  0.00  0.00    +0.001 A 
ATOM     12  C   UNL     1       1.391   2.153  -6.508  0.00  0.00    +0.002 A 
ATOM     13  C   UNL     1       0.461   2.880  -5.796  0.00  0.00    +0.026 A 
ATOM     14  O   UNL     1      -1.346   4.083  -1.718  0.00  0.00    -0.268 OA
ATOM     15  H   UNL     1      -1.107   4.099  -4.130  0.00  0.00    +0.169 HD
ENDBRANCH   2   4
BRANCH   1  16
ATOM     16  C   UNL     1       2.646  -1.047  -0.309  0.00  0.00    +0.140 A 
ATOM     17  C   UNL     1       2.323  -1.350   0.999  0.00  0.00    +0.128 A 
ATOM     18  N   UNL     1       3.180  -2.132   1.738  0.00  0.00    -0.276 N 
ATOM     19  C   UNL     1       4.319  -2.597   1.193  0.00  0.00    +0.331 A 
ATOM     20  O   UNL     1       5.062  -3.287   1.864  0.00  0.00    -0.246 OA
ATOM     21  N   UNL     1       4.650  -2.313  -0.079  0.00  0.00    -0.273 N 
ATOM     22  H   UNL     1       5.477  -2.660  -0.448  0.00  0.00    +0.173 HD
ATOM     23  C   UNL     1       3.843  -1.556  -0.848  0.00  0.00    +0.277 A 
ATOM     24  O   UNL     1       4.150  -1.309  -2.002  0.00  0.00    -0.266 OA
BRANCH  17  25
ATOM     25  N   UNL     1       1.161  -0.874   1.556  0.00  0.00    -0.343 N 
ATOM     26  H   UNL     1       0.541  -0.358   1.018  0.00  0.00    +0.144 HD
ATOM     27  H   UNL     1       0.960  -1.055   2.488  0.00  0.00    +0.144 HD
ENDBRANCH  17  25
BRANCH  18  28
ATOM     28  C   UNL     1       2.850  -2.460   3.127  0.00  0.00    +0.163 C 
BRANCH  28  29
ATOM     29  C   UNL     1       2.052  -3.738   3.165  0.00  0.00    -0.028 A 
ATOM     30  C   UNL     1       0.672  -3.693   3.086  0.00  0.00    +0.005 A 
ATOM     31  C   UNL     1      -0.060  -4.865   3.121  0.00  0.00    +0.000 A 
ATOM     32  C   UNL     1       0.587  -6.081   3.235  0.00  0.00    +0.000 A 
ATOM     33  C   UNL     1       1.966  -6.126   3.313  0.00  0.00    +0.000 A 
ATOM     34  C   UNL     1       2.699  -4.955   3.274  0.00  0.00    +0.005 A 
ENDBRANCH  28  29
ENDBRANCH  18  28
ENDBRANCH   1  16
BRANCH   1  35
ATOM     35  C   UNL     1       0.437  -0.715  -1.405  0.00  0.00    +0.117 C 
BRANCH  35  37
ATOM     36  C   UNL     1       1.265  -2.692  -2.688  0.00  0.00    +0.009 C 
ATOM     37  C   UNL     1       0.439  -1.407  -2.769  0.00  0.00    +0.001 C 
ATOM     38  C   UNL     1      -0.998  -1.748  -3.170  0.00  0.00    +0.009 C 
ENDBRANCH  35  37
ENDBRANCH   1  35
TORSDOF 7
