REMARK  Name = ZINC05529498
REMARK  5 active torsions:
REMARK  status: ('A' for Active; 'I' for Inactive)
REMARK    1  A    between atoms: C_1  and  C_2
REMARK    2  A    between atoms: C_5  and  C_8
REMARK    3  A    between atoms: C_14  and  C_17
REMARK    4  A    between atoms: C_20  and  O_23
REMARK    5  A    between atoms: O_23  and  C_24
REMARK                            x       y       z     vdW  Elec       q    Type
REMARK                         _______ _______ _______ _____ _____    ______ ____
ROOT
ATOM      1  C   UNL     1       0.061  -4.251  -0.021  0.00  0.00    +0.186 A 
ATOM      2  N   UNL     1      -0.203  -5.033  -1.050  0.00  0.00    -0.126 NA
ATOM      3  N   UNL     1      -0.088  -6.273  -0.707  0.00  0.00    -0.120 NA
ATOM      4  C   UNL     1       0.252  -6.349   0.541  0.00  0.00    +0.213 A 
ATOM      5  N   UNL     1       0.361  -5.065   1.033  0.00  0.00    -0.186 N 
ATOM      6  N   UNL     1       0.702  -4.785   2.351  0.00  0.00    -0.166 NA
ATOM      7  C   UNL     1       1.270  -5.620   3.144  0.00  0.00    +0.079 C 
ATOM      8  C   UNL     1       1.710  -7.014   2.804  0.00  0.00    +0.135 C 
ATOM      9  S   UNL     1       0.568  -7.742   1.579  0.00  0.00    -0.078 S 
ENDROOT
BRANCH   1  14
ATOM     10  C   UNL     1      -0.018   1.503   0.010  0.00  0.00    +0.044 C 
ATOM     11  C   UNL     1       0.002  -0.004   0.002  0.00  0.00    -0.050 A 
ATOM     12  C   UNL     1       0.006  -0.686  -1.202  0.00  0.00    +0.004 A 
ATOM     13  C   UNL     1       0.025  -2.066  -1.216  0.00  0.00    +0.012 A 
ATOM     14  C   UNL     1       0.041  -2.773  -0.013  0.00  0.00    +0.021 A 
ATOM     15  C   UNL     1       0.037  -2.079   1.198  0.00  0.00    +0.012 A 
ATOM     16  C   UNL     1       0.023  -0.699   1.198  0.00  0.00    +0.004 A 
ENDBRANCH   1  14
BRANCH   7  17
ATOM     17  C   UNL     1       1.515  -5.165   4.524  0.00  0.00    -0.001 A 
ATOM     18  C   UNL     1       2.134  -6.016   5.444  0.00  0.00    +0.013 A 
ATOM     19  C   UNL     1       2.361  -5.587   6.733  0.00  0.00    +0.046 A 
ATOM     20  C   UNL     1       1.974  -4.310   7.120  0.00  0.00    +0.120 A 
ATOM     21  C   UNL     1       1.357  -3.461   6.210  0.00  0.00    +0.046 A 
ATOM     22  C   UNL     1       1.133  -3.879   4.916  0.00  0.00    +0.013 A 
BRANCH  20  23
ATOM     23  O   UNL     1       2.198  -3.890   8.392  0.00  0.00    -0.495 OA
ATOM     24  C   UNL     1       1.776  -2.566   8.723  0.00  0.00    +0.277 C 
ENDBRANCH  20  23
ENDBRANCH   7  17
TORSDOF 3
