REMARK  Name = ZINC06300346
REMARK  14 active torsions:
REMARK  status: ('A' for Active; 'I' for Inactive)
REMARK    1  A    between atoms: C_1  and  C_2
REMARK    2  A    between atoms: C_4  and  C_32
REMARK    3  A    between atoms: C_9  and  C_14
REMARK    4  A    between atoms: C_14  and  N_15
REMARK    5  A    between atoms: N_15  and  C_16
REMARK    6  A    between atoms: N_15  and  C_20
REMARK    7  A    between atoms: C_16  and  C_17
REMARK    8  A    between atoms: C_17  and  N_63
REMARK    9  A    between atoms: C_18  and  N_63
REMARK   10  A    between atoms: C_19  and  N_63
REMARK   11  A    between atoms: C_20  and  N_22
REMARK   12  A    between atoms: N_22  and  C_23
REMARK   13  A    between atoms: C_23  and  C_25
REMARK   14  A    between atoms: C_23  and  C_26
REMARK                            x       y       z     vdW  Elec       q    Type
REMARK                         _______ _______ _______ _____ _____    ______ ____
ROOT
ATOM      1  N   UNL     1      -1.488   7.922  -1.316  0.00  0.00    -0.310 N 
ENDROOT
BRANCH   1   2
ATOM      2  C   UNL     1      -0.399   8.201  -2.059  0.00  0.00    +0.134 C 
ATOM      3  S   UNL     1       1.166   7.983  -1.401  0.00  0.00    -0.019 S 
BRANCH   2   4
ATOM      4  N   UNL     1      -0.542   8.652  -3.321  0.00  0.00    -0.320 N 
ATOM      5  H   UNL     1      -1.429   8.776  -3.694  0.00  0.00    +0.148 HD
BRANCH   4   6
ATOM      6  C   UNL     1       0.641   8.956  -4.130  0.00  0.00    +0.099 C 
ATOM      7  C   UNL     1       1.143   7.675  -4.800  0.00  0.00    +0.033 C 
BRANCH   6   8
ATOM      8  C   UNL     1       0.281   9.968  -5.186  0.00  0.00    -0.028 A 
ATOM      9  C   UNL     1      -0.928   9.876  -5.849  0.00  0.00    +0.005 A 
ATOM     10  C   UNL     1      -1.260  10.808  -6.815  0.00  0.00    +0.000 A 
ATOM     11  C   UNL     1      -0.379  11.826  -7.125  0.00  0.00    +0.000 A 
ATOM     12  C   UNL     1       0.834  11.915  -6.466  0.00  0.00    +0.000 A 
ATOM     13  C   UNL     1       1.163  10.986  -5.497  0.00  0.00    +0.005 A 
ENDBRANCH   6   8
ENDBRANCH   4   6
ENDBRANCH   2   4
ENDBRANCH   1   2
BRANCH   1  14
ATOM     14  C   UNL     1      -1.332   7.432   0.056  0.00  0.00    +0.147 C 
BRANCH  14  23
ATOM     15  C   UNL     1       2.491   1.029  -0.016  0.00  0.00    +0.044 C 
ATOM     16  C   UNL     1       1.185   1.779   0.000  0.00  0.00    -0.050 A 
ATOM     17  C   UNL     1      -0.013   1.076   0.008  0.00  0.00    +0.008 A 
ATOM     18  C   UNL     1      -1.219   1.741   0.017  0.00  0.00    -0.026 A 
ATOM     19  C   UNL     1      -1.240   3.132   0.031  0.00  0.00    +0.052 A 
ATOM     20  C   UNL     1      -0.025   3.842   0.023  0.00  0.00    -0.001 A 
ATOM     21  C   UNL     1       1.188   3.145   0.008  0.00  0.00    +0.013 A 
ATOM     22  C   UNL     1      -0.057   5.306   0.032  0.00  0.00    +0.020 A 
ATOM     23  C   UNL     1      -1.263   5.926   0.047  0.00  0.00    +0.035 A 
ATOM     24  C   UNL     1      -2.453   5.168   0.054  0.00  0.00    +0.254 A 
ATOM     25  O   UNL     1      -3.526   5.746   0.067  0.00  0.00    -0.268 OA
ATOM     26  N   UNL     1      -2.433   3.824   0.046  0.00  0.00    -0.322 N 
ATOM     27  H   UNL     1      -3.270   3.333   0.051  0.00  0.00    +0.169 HD
ATOM     28  C   UNL     1      -2.511   0.965   0.019  0.00  0.00    +0.046 C 
ENDBRANCH  14  23
ENDBRANCH   1  14
BRANCH   1  29
ATOM     29  C   UNL     1      -2.827   8.108  -1.879  0.00  0.00    +0.088 C 
BRANCH  29  30
ATOM     30  C   UNL     1      -3.309   9.531  -1.588  0.00  0.00    -0.060 C 
BRANCH  30  33
ATOM     31  C   UNL     1      -5.245  10.982  -1.695  0.00  0.00    -0.097 C 
ATOM     32  C   UNL     1      -4.620   9.653  -3.620  0.00  0.00    -0.097 C 
ATOM     33  N   UNL     1      -4.669   9.697  -2.144  0.00  0.00    +0.377 N 
ATOM     34  H   UNL     1      -5.263   8.930  -1.807  0.00  0.00    -0.083 HD
ENDBRANCH  30  33
ENDBRANCH  29  30
ENDBRANCH   1  29
TORSDOF 9
