REMARK  Name = ZINC63393496
REMARK  9 active torsions:
REMARK  status: ('A' for Active; 'I' for Inactive)
REMARK    1  A    between atoms: C_1  and  C_2
REMARK    2  A    between atoms: C_5  and  C_8
REMARK    3  A    between atoms: N_13  and  S_14
REMARK    4  A    between atoms: S_14  and  C_17
REMARK    5  A    between atoms: C_20  and  C_23
REMARK    6  A    between atoms: C_24  and  C_26
REMARK    7  A    between atoms: C_26  and  S_27
REMARK    8  A    between atoms: S_27  and  C_28
REMARK    9  A    between atoms: C_34  and  C_38
REMARK                            x       y       z     vdW  Elec       q    Type
REMARK                         _______ _______ _______ _____ _____    ______ ____
ROOT
ATOM      1  C   UNL     1       0.276  -4.638  -0.126  0.00  0.00    +0.199 C 
ATOM      2  N   UNL     1      -0.443  -5.204  -1.275  0.00  0.00    -0.278 N 
ATOM      3  C   UNL     1      -1.309  -6.270  -0.737  0.00  0.00    +0.127 C 
ATOM      4  C   UNL     1      -1.603  -5.822   0.709  0.00  0.00    +0.131 C 
ATOM      5  N   UNL     1      -0.438  -5.014   1.100  0.00  0.00    -0.150 NA
ATOM      6  C   UNL     1      -0.334  -4.825  -2.564  0.00  0.00    +0.227 C 
ATOM      7  O   UNL     1       0.490  -3.994  -2.884  0.00  0.00    -0.275 OA
ENDROOT
BRANCH   1  12
ATOM      8  C   UNL     1       0.453   1.120  -0.589  0.00  0.00    +0.044 C 
ATOM      9  C   UNL     1       0.407  -0.382  -0.468  0.00  0.00    -0.050 A 
ATOM     10  C   UNL     1       1.577  -1.098  -0.298  0.00  0.00    +0.004 A 
ATOM     11  C   UNL     1       1.535  -2.475  -0.187  0.00  0.00    +0.007 A 
ATOM     12  C   UNL     1       0.322  -3.136  -0.246  0.00  0.00    -0.011 A 
ATOM     13  C   UNL     1      -0.848  -2.420  -0.415  0.00  0.00    +0.007 A 
ATOM     14  C   UNL     1      -0.806  -1.042  -0.521  0.00  0.00    +0.004 A 
ENDBRANCH   1  12
BRANCH   5  15
ATOM     15  S   UNL     1      -0.010  -4.604   2.647  0.00  0.00    +0.063 S 
ATOM     16  O   UNL     1      -0.481  -5.648   3.489  0.00  0.00    -0.153 OA
ATOM     17  O   UNL     1       1.357  -4.220   2.602  0.00  0.00    -0.153 OA
BRANCH  15  18
ATOM     18  C   UNL     1      -0.925  -3.160   3.075  0.00  0.00    +0.106 A 
ATOM     19  C   UNL     1      -0.358  -1.910   2.914  0.00  0.00    +0.029 A 
ATOM     20  C   UNL     1      -1.075  -0.777   3.250  0.00  0.00    +0.005 A 
ATOM     21  C   UNL     1      -2.360  -0.895   3.746  0.00  0.00    -0.050 A 
ATOM     22  C   UNL     1      -2.927  -2.145   3.907  0.00  0.00    +0.005 A 
ATOM     23  C   UNL     1      -2.212  -3.277   3.567  0.00  0.00    +0.029 A 
ATOM     24  C   UNL     1      -3.142   0.340   4.114  0.00  0.00    +0.044 C 
ENDBRANCH  15  18
ENDBRANCH   5  15
BRANCH   6  25
ATOM     25  C   UNL     1      -1.235  -5.433  -3.607  0.00  0.00    +0.168 C 
BRANCH  25  26
ATOM     26  S   UNL     1      -0.846  -4.723  -5.231  0.00  0.00    -0.106 S 
BRANCH  26  27
ATOM     27  C   UNL     1      -2.003  -5.548  -6.359  0.00  0.00    +0.236 C 
ATOM     28  N   UNL     1      -3.385  -5.310  -5.926  0.00  0.00    -0.355 N 
ATOM     29  C   UNL     1      -3.917  -6.469  -5.665  0.00  0.00    +0.061 A 
ATOM     30  C   UNL     1      -5.251  -6.874  -5.198  0.00  0.00    +0.028 A 
ATOM     31  C   UNL     1      -5.521  -8.181  -5.011  0.00  0.00    +0.005 A 
ATOM     32  C   UNL     1      -4.572  -9.193  -5.243  0.00  0.00    -0.048 A 
ATOM     33  C   UNL     1      -3.321  -8.931  -5.671  0.00  0.00    +0.030 A 
ATOM     34  C   UNL     1      -2.913  -7.540  -5.911  0.00  0.00    +0.061 A 
ATOM     35  N   UNL     1      -1.798  -7.001  -6.316  0.00  0.00    -0.355 N 
ATOM     36  C   UNL     1      -4.970 -10.626  -5.003  0.00  0.00    +0.044 C 
ATOM     37  H   UNL     1      -3.822  -4.448  -5.848  0.00  0.00    +0.162 HD
ATOM     38  H   UNL     1      -0.983  -7.473  -6.548  0.00  0.00    +0.162 HD
ENDBRANCH  26  27
ENDBRANCH  25  26
ENDBRANCH   6  25
TORSDOF 6
