REMARK  Name = ZINC48547305
REMARK  6 active torsions:
REMARK  status: ('A' for Active; 'I' for Inactive)
REMARK    1  A    between atoms: C_1  and  C_2
REMARK    2  A    between atoms: C_2  and  O_4
REMARK    3  A    between atoms: O_4  and  C_5
REMARK    4  A    between atoms: C_9  and  C_31
REMARK    5  A    between atoms: C_14  and  C_30
REMARK    6  A    between atoms: C_25  and  C_27
REMARK                            x       y       z     vdW  Elec       q    Type
REMARK                         _______ _______ _______ _____ _____    ______ ____
ROOT
ATOM      1  C   UNL     1      -1.895  -2.158  -2.898  0.00  0.00    +0.180 C 
ATOM      2  C   UNL     1      -3.087  -2.643  -2.076  0.00  0.00    +0.046 C 
ATOM      3  C   UNL     1      -2.741  -3.911  -1.298  0.00  0.00    +0.015 C 
ATOM      4  C   UNL     1      -1.773  -4.774  -2.105  0.00  0.00    -0.008 C 
ATOM      5  C   UNL     1      -1.936  -6.248  -1.754  0.00  0.00    +0.003 C 
ATOM      6  C   UNL     1      -2.166  -6.367  -0.242  0.00  0.00    +0.005 C 
ATOM      7  C   UNL     1      -2.286  -7.841   0.130  0.00  0.00    +0.008 C 
ATOM      8  C   UNL     1      -3.510  -8.461  -0.550  0.00  0.00    -0.016 C 
ATOM      9  C   UNL     1      -3.442  -8.245  -2.071  0.00  0.00    -0.001 C 
ATOM     10  C   UNL     1      -3.141  -6.825  -2.500  0.00  0.00    +0.000 C 
ATOM     11  C   UNL     1      -2.837  -6.787  -4.004  0.00  0.00    +0.031 C 
ATOM     12  C   UNL     1      -2.420  -5.404  -4.406  0.00  0.00    -0.027 C 
ATOM     13  C   UNL     1      -1.988  -4.517  -3.572  0.00  0.00    -0.064 C 
ATOM     14  C   UNL     1      -1.657  -3.120  -4.071  0.00  0.00    +0.075 C 
ATOM     15  C   UNL     1      -2.343  -9.223  -2.525  0.00  0.00    +0.005 C 
ATOM     16  C   UNL     1      -2.596 -10.477  -1.656  0.00  0.00    +0.016 C 
ATOM     17  C   UNL     1      -3.364 -10.000  -0.409  0.00  0.00    +0.108 C 
ATOM     18  C   UNL     1      -4.819  -7.949   0.054  0.00  0.00    +0.012 C 
ATOM     19  C   UNL     1      -0.344  -4.359  -1.747  0.00  0.00    +0.016 C 
ENDROOT
BRANCH  17  20
ATOM     20  C   UNL     1      -4.724 -10.647  -0.360  0.00  0.00    +0.360 C 
ATOM     21  O   UNL     1      -5.446 -10.624  -1.342  0.00  0.00    -0.246 OA
ATOM     22  O   UNL     1      -5.103 -11.193   0.662  0.00  0.00    -0.246 OA
ENDBRANCH  17  20
BRANCH   1  23
ATOM     23  O   UNL     1      -2.164  -0.849  -3.403  0.00  0.00    -0.461 OA
BRANCH  23  25
ATOM     24  C   UNL     1      -1.317   1.357  -4.117  0.00  0.00    +0.136 C 
ATOM     25  C   UNL     1      -1.110  -0.038  -3.588  0.00  0.00    +0.304 C 
ATOM     26  O   UNL     1       0.004  -0.428  -3.330  0.00  0.00    -0.251 OA
ENDBRANCH  23  25
ENDBRANCH   1  23
TORSDOF 3
