REMARK  Name = ZINC06768770
REMARK  6 active torsions:
REMARK  status: ('A' for Active; 'I' for Inactive)
REMARK    1  A    between atoms: C_1  and  C_2
REMARK    2  A    between atoms: C_7  and  N_12
REMARK    3  A    between atoms: C_9  and  C_11
REMARK    4  A    between atoms: N_12  and  C_13
REMARK    5  A    between atoms: C_14  and  C_24
REMARK    6  A    between atoms: C_21  and  C_22
REMARK                            x       y       z     vdW  Elec       q    Type
REMARK                         _______ _______ _______ _____ _____    ______ ____
ROOT
ATOM      1  C   UNL     1       1.284   1.522  -0.002  0.00  0.00    +0.147 A 
ATOM      2  C   UNL     1       2.257   1.243   0.898  0.00  0.00    +0.095 A 
ATOM      3  N   UNL     1       3.393   1.964   0.527  0.00  0.00    -0.335 N 
ATOM      4  H   UNL     1       4.247   1.963   0.985  0.00  0.00    +0.167 HD
ATOM      5  C   UNL     1       3.080   2.674  -0.604  0.00  0.00    +0.154 A 
ATOM      6  N   UNL     1       1.797   2.405  -0.935  0.00  0.00    -0.199 N 
ATOM      7  N   UNL     1       1.479   3.136  -2.086  0.00  0.00    -0.170 NA
ATOM      8  C   UNL     1       2.522   3.825  -2.463  0.00  0.00    +0.156 A 
ATOM      9  C   UNL     1       3.573   3.570  -1.556  0.00  0.00    +0.114 A 
ENDROOT
BRANCH   2  10
ATOM     10  C   UNL     1       2.139   0.342   2.056  0.00  0.00    +0.039 A 
ATOM     11  C   UNL     1       3.010  -0.624   2.493  0.00  0.00    +0.018 A 
ATOM     12  C   UNL     1       2.682  -1.349   3.619  0.00  0.00    +0.008 A 
ATOM     13  C   UNL     1       1.510  -1.094   4.251  0.00  0.00    +0.046 A 
ATOM     14  S   UNL     1       0.821   0.216   3.253  0.00  0.00    -0.095 S 
ENDBRANCH   2  10
BRANCH   1  15
ATOM     15  N   UNL     1      -0.012   1.005   0.008  0.00  0.00    -0.324 N 
ATOM     16  H   UNL     1       0.002  -0.004   0.002  0.00  0.00    +0.148 HD
BRANCH  15  22
ATOM     17  C   UNL     1      -1.821   1.264  -3.852  0.00  0.00    +0.008 C 
ATOM     18  C   UNL     1      -2.732   1.086  -2.635  0.00  0.00    -0.009 C 
ATOM     19  C   UNL     1      -3.340   2.437  -2.252  0.00  0.00    +0.003 C 
ATOM     20  C   UNL     1      -2.219   3.422  -1.911  0.00  0.00    +0.002 C 
ATOM     21  C   UNL     1      -1.403   2.878  -0.736  0.00  0.00    +0.022 C 
ATOM     22  C   UNL     1      -0.795   1.527  -1.120  0.00  0.00    +0.075 C 
ATOM     23  C   UNL     1      -1.916   0.542  -1.461  0.00  0.00    +0.009 C 
ATOM     24  C   UNL     1      -1.308  -0.808  -1.845  0.00  0.00    +0.009 C 
ENDBRANCH  15  22
ENDBRANCH   1  15
BRANCH   9  25
ATOM     25  C   UNL     1       4.893   4.124  -1.603  0.00  0.00    +0.104 C 
ATOM     26  N   UNL     1       5.940   4.564  -1.640  0.00  0.00    -0.191 NA
ENDBRANCH   9  25
TORSDOF 4
