REMARK  Name = ZINC44743777
REMARK  12 active torsions:
REMARK  status: ('A' for Active; 'I' for Inactive)
REMARK    1  A    between atoms: C_1  and  C_2
REMARK    2  A    between atoms: C_2  and  C_3
REMARK    3  A    between atoms: C_3  and  C_5
REMARK    4  A    between atoms: C_3  and  N_6
REMARK    5  A    between atoms: C_7  and  C_9
REMARK    6  A    between atoms: C_9  and  N_10
REMARK    7  A    between atoms: N_13  and  C_16
REMARK    8  A    between atoms: C_16  and  C_18
REMARK    9  A    between atoms: C_16  and  C_19
REMARK   10  A    between atoms: N_21  and  C_22
REMARK   11  A    between atoms: C_26  and  C_29
REMARK   12  A    between atoms: C_27  and  C_28
REMARK                            x       y       z     vdW  Elec       q    Type
REMARK                         _______ _______ _______ _____ _____    ______ ____
ROOT
ATOM      1  N   UNL     1       3.749   0.896  -4.931  0.00  0.00    -0.298 NA
ATOM      2  C   UNL     1       3.867  -0.415  -5.587  0.00  0.00    +0.066 C 
ATOM      3  C   UNL     1       4.958  -0.349  -6.659  0.00  0.00    -0.062 C 
ATOM      4  N   UNL     1       6.235   0.022  -6.036  0.00  0.00    +0.389 N 
ATOM      5  C   UNL     1       6.109   1.344  -5.407  0.00  0.00    -0.062 C 
ATOM      6  C   UNL     1       5.028   1.293  -4.325  0.00  0.00    +0.066 C 
ATOM      7  H   UNL     1       6.479  -0.661  -5.335  0.00  0.00    -0.081 HD
ENDROOT
BRANCH   4   8
ATOM      8  C   UNL     1       7.285   0.067  -7.062  0.00  0.00    +0.017 C 
ATOM      9  C   UNL     1       8.600   0.522  -6.426  0.00  0.00    -0.004 C 
BRANCH   8  10
ATOM     10  C   UNL     1       7.464  -1.305  -7.658  0.00  0.00    +0.203 C 
ATOM     11  O   UNL     1       7.210  -2.291  -6.999  0.00  0.00    -0.277 OA
ATOM     12  N   UNL     1       7.905  -1.437  -8.925  0.00  0.00    -0.287 N 
ATOM     13  H   UNL     1       8.170  -0.653  -9.431  0.00  0.00    +0.155 HD
BRANCH  12  14
ATOM     14  C   UNL     1       7.983  -2.706  -9.510  0.00  0.00    +0.036 A 
ATOM     15  C   UNL     1       8.220  -3.823  -8.720  0.00  0.00    +0.023 A 
ATOM     16  C   UNL     1       8.296  -5.074  -9.300  0.00  0.00    +0.002 A 
ATOM     17  C   UNL     1       8.137  -5.215 -10.667  0.00  0.00    +0.004 A 
ATOM     18  C   UNL     1       7.902  -4.104 -11.456  0.00  0.00    -0.046 A 
ATOM     19  C   UNL     1       7.818  -2.851 -10.881  0.00  0.00    -0.026 A 
ATOM     20  C   UNL     1       7.555  -1.642 -11.741  0.00  0.00    +0.046 C 
ATOM     21  C   UNL     1       7.731  -4.262 -12.945  0.00  0.00    +0.044 C 
ENDBRANCH  12  14
ENDBRANCH   8  10
ENDBRANCH   4   8
BRANCH   1  22
ATOM     22  C   UNL     1       2.672   0.890  -3.933  0.00  0.00    +0.180 C 
BRANCH  22  24
ATOM     23  N   UNL     1       0.207   0.688  -3.906  0.00  0.00    -0.312 N 
ATOM     24  C   UNL     1       1.345   0.722  -4.627  0.00  0.00    +0.227 C 
ATOM     25  O   UNL     1       1.301   0.617  -5.835  0.00  0.00    -0.274 OA
ATOM     26  H   UNL     1       0.242   0.771  -2.940  0.00  0.00    +0.149 HD
BRANCH  23  27
ATOM     27  C   UNL     1      -1.083   0.524  -4.581  0.00  0.00    +0.070 C 
ATOM     28  C   UNL     1      -1.355  -0.965  -4.807  0.00  0.00    +0.028 C 
BRANCH  27  30
ATOM     29  C   UNL     1      -1.989   2.630  -3.587  0.00  0.00    +0.005 C 
ATOM     30  C   UNL     1      -2.193   1.119  -3.711  0.00  0.00    +0.018 C 
ENDBRANCH  27  30
ENDBRANCH  23  27
ENDBRANCH  22  24
ENDBRANCH   1  22
TORSDOF 7
