REMARK  Name = ZINC39920602
REMARK  7 active torsions:
REMARK  status: ('A' for Active; 'I' for Inactive)
REMARK    1  A    between atoms: C_1  and  C_2
REMARK    2  A    between atoms: C_2  and  C_4
REMARK    3  A    between atoms: C_2  and  O_27
REMARK    4  A    between atoms: N_6  and  N_7
REMARK    5  A    between atoms: C_8  and  C_20
REMARK    6  A    between atoms: C_23  and  O_26
REMARK    7  A    between atoms: O_27  and  C_28
REMARK                            x       y       z     vdW  Elec       q    Type
REMARK                         _______ _______ _______ _____ _____    ______ ____
ROOT
ATOM      1  N   UNL     1      -3.544  -1.209   0.938  0.00  0.00    -0.191 N 
ATOM      2  C   UNL     1      -4.657  -0.261   0.885  0.00  0.00    +0.212 C 
ATOM      3  N   UNL     1      -5.761  -0.814   0.091  0.00  0.00    -0.320 N 
ATOM      4  C   UNL     1      -6.126  -2.140   0.296  0.00  0.00    +0.041 A 
ATOM      5  C   UNL     1      -7.424  -2.581   0.104  0.00  0.00    +0.025 A 
ATOM      6  C   UNL     1      -7.735  -3.909   0.325  0.00  0.00    +0.017 A 
ATOM      7  C   UNL     1      -6.758  -4.803   0.737  0.00  0.00    +0.019 A 
ATOM      8  C   UNL     1      -5.458  -4.380   0.931  0.00  0.00    +0.030 A 
ATOM      9  C   UNL     1      -5.132  -3.044   0.711  0.00  0.00    +0.060 A 
ATOM     10  C   UNL     1      -3.758  -2.540   0.890  0.00  0.00    +0.267 C 
ATOM     11  O   UNL     1      -2.828  -3.317   0.998  0.00  0.00    -0.268 OA
ATOM     12 BR   UNL     1      -7.209  -6.615   1.034  0.00  0.00    -0.050 Br
ATOM     13  H   UNL     1      -6.225  -0.267  -0.561  0.00  0.00    +0.148 HD
ENDROOT
BRANCH   2  14
ATOM     14  C   UNL     1      -5.143   0.017   2.284  0.00  0.00    -0.008 A 
ATOM     15  C   UNL     1      -4.259  -0.041   3.346  0.00  0.00    +0.011 A 
ATOM     16  C   UNL     1      -4.702   0.212   4.630  0.00  0.00    +0.046 A 
ATOM     17  C   UNL     1      -6.035   0.525   4.853  0.00  0.00    +0.117 A 
ATOM     18  C   UNL     1      -6.920   0.583   3.786  0.00  0.00    +0.046 A 
ATOM     19  C   UNL     1      -6.470   0.334   2.503  0.00  0.00    +0.011 A 
BRANCH  17  20
ATOM     20  O   UNL     1      -6.474   0.774   6.115  0.00  0.00    -0.507 OA
ATOM     21  H   UNL     1      -6.417   1.704   6.375  0.00  0.00    +0.292 HD
ENDBRANCH  17  20
ENDBRANCH   2  14
BRANCH   1  24
ATOM     22  C   UNL     1      -1.426  -0.749  -0.046  0.00  0.00    +0.270 C 
ATOM     23  O   UNL     1      -1.835  -1.187  -1.100  0.00  0.00    -0.270 OA
ATOM     24  N   UNL     1      -2.233  -0.726   1.034  0.00  0.00    -0.227 N 
ATOM     25  H   UNL     1      -1.905  -0.376   1.877  0.00  0.00    +0.173 HD
BRANCH  22  27
ATOM     26  C   UNL     1      -0.044   1.273   0.345  0.00  0.00    +0.062 C 
ATOM     27  C   UNL     1      -0.015  -0.229   0.058  0.00  0.00    +0.257 C 
BRANCH  27  28
ATOM     28  O   UNL     1       0.671  -0.465  -1.174  0.00  0.00    -0.480 OA
BRANCH  28  29
ATOM     29  C   UNL     1       2.026  -0.553  -1.118  0.00  0.00    +0.122 A 
ATOM     30  C   UNL     1       2.690  -0.309   0.075  0.00  0.00    +0.045 A 
ATOM     31  C   UNL     1       4.067  -0.400   0.129  0.00  0.00    +0.004 A 
ATOM     32  C   UNL     1       4.784  -0.733  -1.005  0.00  0.00    +0.000 A 
ATOM     33  C   UNL     1       4.125  -0.976  -2.196  0.00  0.00    +0.004 A 
ATOM     34  C   UNL     1       2.747  -0.893  -2.253  0.00  0.00    +0.045 A 
ENDBRANCH  28  29
ENDBRANCH  27  28
ENDBRANCH  22  27
ENDBRANCH   1  24
TORSDOF 6
