REMARK  Name = ZINC64678630
REMARK  8 active torsions:
REMARK  status: ('A' for Active; 'I' for Inactive)
REMARK    1  A    between atoms: C_1  and  C_2
REMARK    2  A    between atoms: C_6  and  C_8
REMARK    3  A    between atoms: N_10  and  C_11
REMARK    4  A    between atoms: N_10  and  C_12
REMARK    5  A    between atoms: C_12  and  C_13
REMARK    6  A    between atoms: C_13  and  C_14
REMARK    7  A    between atoms: C_17  and  C_20
REMARK    8  A    between atoms: C_25  and  C_30
REMARK                            x       y       z     vdW  Elec       q    Type
REMARK                         _______ _______ _______ _____ _____    ______ ____
ROOT
ATOM      1  C   UNL     1      -2.146  -5.585   5.239  0.00  0.00    +0.139 C 
ATOM      2  N   UNL     1      -1.262  -6.145   5.981  0.00  0.00    -0.072 NA
ATOM      3  O   UNL     1      -1.858  -6.748   7.115  0.00  0.00    -0.367 OA
ATOM      4  C   UNL     1      -3.269  -6.500   7.008  0.00  0.00    +0.318 C 
ATOM      5  N   UNL     1      -3.410  -5.729   5.762  0.00  0.00    -0.291 N 
ATOM      6  H   UNL     1      -4.235  -5.389   5.383  0.00  0.00    +0.151 HD
ENDROOT
BRANCH   4   7
ATOM      7  C   UNL     1      -3.761  -5.680   8.202  0.00  0.00    +0.165 C 
ATOM      8  C   UNL     1      -3.553  -6.452   9.486  0.00  0.00    +0.012 C 
ATOM      9  C   UNL     1      -4.782  -6.622  10.023  0.00  0.00    -0.004 A 
ATOM     10  C   UNL     1      -5.248  -7.283  11.249  0.00  0.00    +0.013 A 
ATOM     11  C   UNL     1      -6.572  -7.291  11.526  0.00  0.00    -0.050 A 
ATOM     12  C   UNL     1      -7.508  -6.687  10.675  0.00  0.00    +0.005 A 
ATOM     13  C   UNL     1      -7.156  -6.062   9.531  0.00  0.00    +0.026 A 
ATOM     14  C   UNL     1      -5.790  -5.992   9.141  0.00  0.00    +0.043 A 
ATOM     15  N   UNL     1      -5.206  -5.451   8.098  0.00  0.00    -0.373 N 
ATOM     16  C   UNL     1      -7.054  -7.969  12.783  0.00  0.00    +0.044 C 
ATOM     17  H   UNL     1      -5.654  -4.979   7.378  0.00  0.00    +0.160 HD
ENDBRANCH   4   7
BRANCH   1  18
ATOM     18  C   UNL     1      -1.838  -4.855   3.957  0.00  0.00    +0.094 C 
BRANCH  18  19
ATOM     19  C   UNL     1      -0.332  -4.900   3.694  0.00  0.00    +0.115 C 
BRANCH  19  22
ATOM     20  C   UNL     1       0.240  -2.871   2.473  0.00  0.00    +0.246 C 
ATOM     21  O   UNL     1       0.324  -2.288   3.536  0.00  0.00    -0.270 OA
ATOM     22  N   UNL     1      -0.032  -4.191   2.448  0.00  0.00    -0.300 N 
ATOM     23  C   UNL     1      -0.028  -4.915   1.175  0.00  0.00    +0.132 C 
BRANCH  20  29
ATOM     24  C   UNL     1      -0.431   1.238  -0.278  0.00  0.00    +0.044 C 
ATOM     25  C   UNL     1       0.116  -0.157  -0.121  0.00  0.00    -0.050 A 
ATOM     26  C   UNL     1       0.804  -0.750  -1.165  0.00  0.00    +0.003 A 
ATOM     27  C   UNL     1       1.310  -2.031  -1.028  0.00  0.00    +0.001 A 
ATOM     28  C   UNL     1       1.131  -2.725   0.150  0.00  0.00    +0.013 A 
ATOM     29  C   UNL     1       0.437  -2.133   1.207  0.00  0.00    +0.037 A 
ATOM     30  C   UNL     1      -0.066  -0.838   1.065  0.00  0.00    +0.016 A 
ENDBRANCH  20  29
ENDBRANCH  19  22
ENDBRANCH  18  19
ENDBRANCH   1  18
TORSDOF 5
