REMARK  Name = ZINC09254416
REMARK  7 active torsions:
REMARK  status: ('A' for Active; 'I' for Inactive)
REMARK    1  A    between atoms: C_1  and  C_2
REMARK    2  A    between atoms: C_9  and  C_19
REMARK    3  A    between atoms: C_12  and  C_13
REMARK    4  A    between atoms: N_21  and  N_22
REMARK    5  A    between atoms: C_23  and  C_25
REMARK    6  A    between atoms: C_25  and  C_27
REMARK    7  A    between atoms: C_25  and  N_28
REMARK                            x       y       z     vdW  Elec       q    Type
REMARK                         _______ _______ _______ _____ _____    ______ ____
ROOT
ATOM      1  C   UNL     1      -2.567   4.102   0.466  0.00  0.00    +0.264 C 
ATOM      2  O   UNL     1      -2.485   5.299   0.667  0.00  0.00    -0.269 OA
ATOM      3  N   UNL     1      -3.765   3.489   0.529  0.00  0.00    -0.230 N 
ATOM      4  H   UNL     1      -3.831   2.534   0.369  0.00  0.00    +0.173 HD
ENDROOT
BRANCH   1  13
ATOM      5  C   UNL     1       3.653   6.040  -0.083  0.00  0.00    +0.051 C 
ATOM      6  C   UNL     1       2.356   5.274  -0.033  0.00  0.00    +0.040 A 
ATOM      7  C   UNL     1       2.341   3.881  -0.278  0.00  0.00    +0.196 A 
ATOM      8  O   UNL     1       3.366   3.271  -0.533  0.00  0.00    -0.287 OA
ATOM      9  C   UNL     1       1.035   3.195  -0.212  0.00  0.00    +0.065 A 
ATOM     10  C   UNL     1       0.924   1.824  -0.441  0.00  0.00    +0.015 A 
ATOM     11  C   UNL     1      -0.311   1.213  -0.372  0.00  0.00    +0.002 A 
ATOM     12  C   UNL     1      -1.444   1.951  -0.084  0.00  0.00    +0.017 A 
ATOM     13  C   UNL     1      -1.354   3.322   0.153  0.00  0.00    +0.081 A 
ATOM     14  C   UNL     1      -0.105   3.956   0.087  0.00  0.00    +0.151 A 
ATOM     15  O   UNL     1       0.011   5.280   0.305  0.00  0.00    -0.454 OA
ATOM     16  C   UNL     1       1.191   5.917   0.249  0.00  0.00    +0.142 A 
BRANCH  16  17
ATOM     17  C   UNL     1       1.226   7.371   0.502  0.00  0.00    +0.018 A 
ATOM     18  C   UNL     1       2.099   7.896   1.458  0.00  0.00    +0.011 A 
ATOM     19  C   UNL     1       2.130   9.256   1.686  0.00  0.00    +0.001 A 
ATOM     20  C   UNL     1       1.291  10.099   0.979  0.00  0.00    +0.000 A 
ATOM     21  C   UNL     1       0.420   9.585   0.034  0.00  0.00    +0.001 A 
ATOM     22  C   UNL     1       0.382   8.228  -0.208  0.00  0.00    +0.011 A 
ENDBRANCH  16  17
ENDBRANCH   1  13
BRANCH   3  23
ATOM     23  N   UNL     1      -4.917   4.230   0.825  0.00  0.00    -0.233 N 
ATOM     24  C   UNL     1      -6.115   3.616   0.888  0.00  0.00    +0.249 C 
ATOM     25  O   UNL     1      -6.197   2.423   0.688  0.00  0.00    -0.272 OA
ATOM     26  H   UNL     1      -4.852   5.184   0.986  0.00  0.00    +0.173 HD
BRANCH  24  27
ATOM     27  C   UNL     1      -7.354   4.413   1.208  0.00  0.00    +0.157 C 
ATOM     28  C   UNL     1      -7.550   5.498   0.147  0.00  0.00    +0.038 C 
BRANCH  27  29
ATOM     29  N   UNL     1      -8.518   3.524   1.216  0.00  0.00    -0.312 N 
ATOM     30  C   UNL     1      -9.636   3.857   1.954  0.00  0.00    +0.160 A 
ATOM     31  N   UNL     1      -9.841   4.914   2.707  0.00  0.00    -0.225 NA
ATOM     32  C   UNL     1     -10.998   5.115   3.375  0.00  0.00    +0.080 A 
ATOM     33  C   UNL     1     -11.346   6.202   4.209  0.00  0.00    +0.029 A 
ATOM     34  C   UNL     1     -12.571   6.250   4.823  0.00  0.00    +0.002 A 
ATOM     35  C   UNL     1     -13.507   5.241   4.651  0.00  0.00    +0.001 A 
ATOM     36  C   UNL     1     -13.200   4.163   3.841  0.00  0.00    +0.017 A 
ATOM     37  C   UNL     1     -11.976   4.107   3.223  0.00  0.00    +0.041 A 
ATOM     38  S   UNL     1     -11.170   2.958   2.134  0.00  0.00    -0.052 S 
ATOM     39  H   UNL     1      -8.503   2.700   0.704  0.00  0.00    +0.149 HD
ENDBRANCH  27  29
ENDBRANCH  24  27
ENDBRANCH   3  23
TORSDOF 5
