REMARK  Name = ZINC03861803
REMARK  6 active torsions:
REMARK  status: ('A' for Active; 'I' for Inactive)
REMARK    1  A    between atoms: C_1  and  C_2
REMARK    2  A    between atoms: C_4  and  O_27
REMARK    3  A    between atoms: C_7  and  C_8
REMARK    4  A    between atoms: C_8  and  C_19
REMARK    5  A    between atoms: C_22  and  O_26
REMARK    6  A    between atoms: C_24  and  C_25
REMARK                            x       y       z     vdW  Elec       q    Type
REMARK                         _______ _______ _______ _____ _____    ______ ____
ROOT
ATOM      1  C   UNL     1      -2.780   4.096   0.080  0.00  0.00    +0.176 C 
ATOM      2  C   UNL     1      -1.419   3.489  -0.134  0.00  0.00    +0.023 A 
ATOM      3  C   UNL     1      -1.015   2.176  -0.313  0.00  0.00    +0.009 A 
ATOM      4  C   UNL     1       0.324   1.877  -0.471  0.00  0.00    +0.000 A 
ATOM      5  C   UNL     1       1.275   2.880  -0.463  0.00  0.00    +0.002 A 
ATOM      6  C   UNL     1       0.877   4.197  -0.295  0.00  0.00    +0.030 A 
ATOM      7  C   UNL     1      -0.453   4.487  -0.140  0.00  0.00    +0.124 A 
ATOM      8  S   UNL     1      -1.377   5.984   0.065  0.00  0.00    +0.114 S 
ATOM      9  O   UNL     1      -1.333   6.330   1.442  0.00  0.00    -0.142 OA
ATOM     10  O   UNL     1      -0.994   6.870  -0.978  0.00  0.00    -0.142 OA
ATOM     11  O   UNL     1      -2.806   5.493  -0.245  0.00  0.00    -0.213 OA
ENDROOT
BRANCH   1  18
ATOM     12  C   UNL     1      -2.301   3.819  -2.754  0.00  0.00    +0.044 C 
ATOM     13  C   UNL     1      -3.551   3.240  -2.142  0.00  0.00    -0.040 A 
ATOM     14  C   UNL     1      -4.466   2.578  -2.936  0.00  0.00    +0.049 A 
ATOM     15  C   UNL     1      -5.616   2.045  -2.372  0.00  0.00    +0.117 A 
ATOM     16  C   UNL     1      -5.844   2.180  -1.010  0.00  0.00    +0.046 A 
ATOM     17  C   UNL     1      -4.923   2.838  -0.219  0.00  0.00    +0.011 A 
ATOM     18  C   UNL     1      -3.780   3.373  -0.785  0.00  0.00    -0.001 A 
BRANCH  15  19
ATOM     19  O   UNL     1      -6.518   1.393  -3.152  0.00  0.00    -0.507 OA
ATOM     20  H   UNL     1      -6.354   0.443  -3.231  0.00  0.00    +0.292 HD
ENDBRANCH  15  19
ENDBRANCH   1  18
BRANCH   1  21
ATOM     21  C   UNL     1      -3.170   3.925   1.526  0.00  0.00    -0.001 A 
ATOM     22  C   UNL     1      -3.417   5.037   2.310  0.00  0.00    +0.011 A 
ATOM     23  C   UNL     1      -3.780   4.883   3.634  0.00  0.00    +0.046 A 
ATOM     24  C   UNL     1      -3.885   3.611   4.180  0.00  0.00    +0.117 A 
ATOM     25  C   UNL     1      -3.631   2.498   3.392  0.00  0.00    +0.049 A 
ATOM     26  C   UNL     1      -3.274   2.657   2.067  0.00  0.00    -0.040 A 
ATOM     27  C   UNL     1      -2.998   1.448   1.211  0.00  0.00    +0.044 C 
BRANCH  24  28
ATOM     28  O   UNL     1      -4.236   3.458   5.483  0.00  0.00    -0.507 OA
ATOM     29  H   UNL     1      -3.486   3.443   6.093  0.00  0.00    +0.292 HD
ENDBRANCH  24  28
ENDBRANCH   1  21
TORSDOF 4
