REMARK  Name = ZINC12432689
REMARK  6 active torsions:
REMARK  status: ('A' for Active; 'I' for Inactive)
REMARK    1  A    between atoms: C_14  and  N_46
REMARK    2  A    between atoms: C_17  and  C_18
REMARK    3  A    between atoms: C_17  and  N_46
REMARK    4  A    between atoms: C_20  and  C_23
REMARK    5  A    between atoms: C_24  and  C_25
REMARK    6  A    between atoms: C_25  and  O_26
REMARK                            x       y       z     vdW  Elec       q    Type
REMARK                         _______ _______ _______ _____ _____    ______ ____
ROOT
ATOM      1  C   UNL     1       1.190  -0.688  -0.013  0.00  0.00    +0.002 A 
ATOM      2  C   UNL     1       2.408  -0.025  -0.021  0.00  0.00    +0.001 A 
ATOM      3  C   UNL     1       2.426   1.358  -0.013  0.00  0.00    +0.017 A 
ATOM      4  C   UNL     1       1.242   2.051   0.001  0.00  0.00    +0.041 A 
ATOM      5  C   UNL     1      -0.017   1.410   0.010  0.00  0.00    +0.080 A 
ATOM      6  C   UNL     1       0.002  -0.004   0.002  0.00  0.00    +0.029 A 
ATOM      7  N   UNL     1      -1.091   2.229   0.019  0.00  0.00    -0.225 NA
ATOM      8  C   UNL     1      -0.980   3.538   0.030  0.00  0.00    +0.162 A 
ATOM      9  S   UNL     1       0.792   3.770   0.014  0.00  0.00    -0.052 S 
ATOM     10  N   UNL     1      -1.977   4.492   0.043  0.00  0.00    -0.311 N 
ATOM     11  C   UNL     1      -1.815   5.407   1.179  0.00  0.00    +0.107 C 
ATOM     12  C   UNL     1      -2.847   6.533   1.081  0.00  0.00    +0.017 C 
ATOM     13  C   UNL     1      -4.254   5.930   1.085  0.00  0.00    -0.013 C 
ATOM     14  C   UNL     1      -4.382   4.944  -0.079  0.00  0.00    -0.054 C 
ATOM     15  C   UNL     1      -3.305   3.864   0.053  0.00  0.00    +0.091 C 
ENDROOT
BRANCH  14  16
ATOM     16  N   UNL     1      -5.716   4.317  -0.040  0.00  0.00    +0.385 N 
ATOM     17  H   UNL     1      -6.404   5.003   0.292  0.00  0.00    -0.085 HD
ATOM     18  H   UNL     1      -5.695   3.516   0.603  0.00  0.00    -0.085 HD
BRANCH  16  19
ATOM     19  C   UNL     1      -6.104   3.851  -1.385  0.00  0.00    -0.039 C 
BRANCH  19  20
ATOM     20  C   UNL     1      -7.469   3.216  -1.314  0.00  0.00    -0.026 A 
ATOM     21  C   UNL     1      -8.681   3.793  -1.469  0.00  0.00    +0.026 A 
ATOM     22  C   UNL     1      -9.824   3.004  -1.361  0.00  0.00    +0.032 A 
ATOM     23  C   UNL     1      -9.671   1.668  -1.101  0.00  0.00    +0.062 A 
ATOM     24  S   UNL     1      -7.895   1.510  -1.011  0.00  0.00    -0.102 S 
BRANCH  22  25
ATOM     25  C   UNL     1     -11.127   3.575  -1.518  0.00  0.00    -0.063 C 
ATOM     26  C   UNL     1     -12.196   4.044  -1.647  0.00  0.00    -0.069 C 
BRANCH  26  27
ATOM     27  C   UNL     1     -13.536   4.632  -1.808  0.00  0.00    +0.244 C 
BRANCH  27  28
ATOM     28  O   UNL     1     -14.525   3.613  -1.651  0.00  0.00    -0.383 OA
ATOM     29  H   UNL     1     -15.434   3.929  -1.744  0.00  0.00    +0.211 HD
ENDBRANCH  27  28
ENDBRANCH  26  27
ENDBRANCH  22  25
ENDBRANCH  19  20
ENDBRANCH  16  19
ENDBRANCH  14  16
TORSDOF 6
