REMARK  Name = ZINC67580906
REMARK  4 active torsions:
REMARK  status: ('A' for Active; 'I' for Inactive)
REMARK    1  A    between atoms: C_6  and  C_7
REMARK    2  A    between atoms: C_7  and  C_9
REMARK    3  A    between atoms: C_7  and  O_26
REMARK    4  A    between atoms: N_17  and  C_18
REMARK                            x       y       z     vdW  Elec       q    Type
REMARK                         _______ _______ _______ _____ _____    ______ ____
ROOT
ATOM      1  C   UNL     1      -1.648  -1.153   1.450  0.00  0.00    +0.025 C 
ATOM      2  C   UNL     1      -0.535  -2.014   2.049  0.00  0.00    +0.025 C 
ATOM      3  C   UNL     1      -0.886  -2.360   3.499  0.00  0.00    +0.109 C 
ATOM      4  N   UNL     1      -2.215  -2.986   3.527  0.00  0.00    -0.286 N 
ATOM      5  C   UNL     1      -3.341  -2.283   2.897  0.00  0.00    +0.109 C 
ATOM      6  C   UNL     1      -2.962  -1.938   1.454  0.00  0.00    +0.025 C 
ATOM      7  C   UNL     1      -2.398  -4.183   4.119  0.00  0.00    +0.302 C 
ATOM      8  O   UNL     1      -1.444  -4.800   4.551  0.00  0.00    -0.253 OA
ATOM      9  N   UNL     1      -3.639  -4.697   4.230  0.00  0.00    -0.295 N 
ATOM     10  H   UNL     1      -4.392  -4.241   3.821  0.00  0.00    +0.151 HD
ENDROOT
BRANCH   9  11
ATOM     11  C   UNL     1      -3.852  -5.945   4.968  0.00  0.00    +0.097 C 
ATOM     12  C   UNL     1      -3.634  -7.145   4.032  0.00  0.00    +0.046 C 
ATOM     13  C   UNL     1      -4.162  -8.438   4.701  0.00  0.00    +0.168 C 
ATOM     14  S   UNL     1      -5.493  -7.808   5.803  0.00  0.00    -0.029 S 
ATOM     15  O   UNL     1      -5.145  -8.085   7.153  0.00  0.00    -0.174 OA
ATOM     16  O   UNL     1      -6.750  -8.241   5.302  0.00  0.00    -0.174 OA
ATOM     17  C   UNL     1      -5.314  -6.001   5.495  0.00  0.00    +0.188 C 
ENDBRANCH   9  11
BRANCH   1  18
ATOM     18  C   UNL     1      -1.284  -0.776   0.012  0.00  0.00    +0.148 C 
BRANCH  18  24
ATOM     19  C   UNL     1      -0.011   1.379   0.014  0.00  0.00    +0.007 A 
ATOM     20  C   UNL     1       1.175   2.089   0.010  0.00  0.00    +0.020 A 
ATOM     21  C   UNL     1       2.383   1.415  -0.000  0.00  0.00    +0.041 A 
ATOM     22  C   UNL     1       2.404   0.032  -0.006  0.00  0.00    +0.020 A 
ATOM     23  C   UNL     1       1.217  -0.677  -0.003  0.00  0.00    +0.007 A 
ATOM     24  C   UNL     1       0.010  -0.003   0.007  0.00  0.00    -0.019 A 
ATOM     25 CL   UNL     1       3.873   2.306  -0.005  0.00  0.00    -0.084 Cl
ENDBRANCH  18  24
BRANCH  18  26
ATOM     26  O   UNL     1      -1.131  -1.965  -0.767  0.00  0.00    -0.387 OA
ATOM     27  H   UNL     1      -0.441  -2.561  -0.445  0.00  0.00    +0.210 HD
ENDBRANCH  18  26
ENDBRANCH   1  18
TORSDOF 4
