REMARK  Name = ZINC45561557
REMARK  10 active torsions:
REMARK  status: ('A' for Active; 'I' for Inactive)
REMARK    1  A    between atoms: C_1  and  C_2
REMARK    2  A    between atoms: C_6  and  C_8
REMARK    3  A    between atoms: N_10  and  C_11
REMARK    4  A    between atoms: C_11  and  C_13
REMARK    5  A    between atoms: C_11  and  C_16
REMARK    6  A    between atoms: C_13  and  C_14
REMARK    7  A    between atoms: C_13  and  C_15
REMARK    8  A    between atoms: C_16  and  O_18
REMARK    9  A    between atoms: O_18  and  C_19
REMARK   10  A    between atoms: C_19  and  C_20
REMARK                            x       y       z     vdW  Elec       q    Type
REMARK                         _______ _______ _______ _____ _____    ______ ____
ROOT
ATOM      1  O   UNL     1       0.529  -6.984   4.896  0.00  0.00    -0.455 OA
ENDROOT
BRANCH   1   2
ATOM      2  C   UNL     1       0.312  -6.013   3.995  0.00  0.00    +0.328 C 
ATOM      3  O   UNL     1       0.705  -6.144   2.860  0.00  0.00    -0.249 OA
BRANCH   2   4
ATOM      4  C   UNL     1      -0.421  -4.761   4.398  0.00  0.00    +0.185 C 
BRANCH   4   7
ATOM      5  C   UNL     1      -0.668  -2.537   3.433  0.00  0.00    +0.245 C 
ATOM      6  O   UNL     1      -0.706  -2.084   4.560  0.00  0.00    -0.270 OA
ATOM      7  N   UNL     1      -0.529  -3.864   3.244  0.00  0.00    -0.298 N 
ATOM      8  H   UNL     1      -0.499  -4.226   2.345  0.00  0.00    +0.150 HD
BRANCH   5  14
ATOM      9  C   UNL     1      -1.180   2.065   1.573  0.00  0.00    +0.044 C 
ATOM     10  C   UNL     1      -1.024   0.580   1.368  0.00  0.00    -0.050 A 
ATOM     11  C   UNL     1      -0.981   0.061   0.086  0.00  0.00    +0.003 A 
ATOM     12  C   UNL     1      -0.837  -1.301  -0.110  0.00  0.00    +0.001 A 
ATOM     13  C   UNL     1      -0.735  -2.150   0.973  0.00  0.00    +0.013 A 
ATOM     14  C   UNL     1      -0.777  -1.633   2.268  0.00  0.00    +0.037 A 
ATOM     15  C   UNL     1      -0.917  -0.257   2.459  0.00  0.00    +0.016 A 
ENDBRANCH   5  14
ENDBRANCH   4   7
BRANCH   4  16
ATOM     16  C   UNL     1      -1.823  -5.126   4.892  0.00  0.00    +0.014 C 
ATOM     17  C   UNL     1      -1.710  -6.062   6.097  0.00  0.00    +0.009 C 
ATOM     18  C   UNL     1      -2.567  -3.854   5.302  0.00  0.00    +0.009 C 
ENDBRANCH   4  16
ENDBRANCH   2   4
ENDBRANCH   1   2
BRANCH   1  19
ATOM     19  C   UNL     1       1.231  -8.144   4.445  0.00  0.00    +0.308 C 
BRANCH  19  20
ATOM     20  C   UNL     1       1.380  -9.117   5.586  0.00  0.00    +0.170 A 
ATOM     21  N   UNL     1       2.442  -9.038   6.368  0.00  0.00    -0.214 NA
ATOM     22  C   UNL     1       2.631  -9.863   7.385  0.00  0.00    +0.128 A 
ATOM     23  C   UNL     1       1.661 -10.870   7.650  0.00  0.00    +0.051 A 
ATOM     24  C   UNL     1       1.657 -11.883   8.706  0.00  0.00    -0.025 A 
ATOM     25  C   UNL     1       0.608 -12.729   8.737  0.00  0.00    -0.004 A 
ATOM     26  S   UNL     1      -0.426 -12.235   7.384  0.00  0.00    -0.073 S 
ATOM     27  C   UNL     1       0.557 -10.891   6.774  0.00  0.00    +0.114 A 
ATOM     28  N   UNL     1       0.445 -10.025   5.785  0.00  0.00    -0.221 NA
ATOM     29  C   UNL     1       0.370 -13.845   9.709  0.00  0.00    +0.043 C 
ATOM     30  C   UNL     1       1.685 -14.132  10.448  0.00  0.00    +0.005 C 
ATOM     31  C   UNL     1       2.276 -12.803  10.930  0.00  0.00    +0.005 C 
ATOM     32  C   UNL     1       2.780 -11.996   9.733  0.00  0.00    +0.037 C 
ATOM     33  N   UNL     1       3.757  -9.747   8.181  0.00  0.00    -0.343 N 
ATOM     34  H   UNL     1       4.292  -8.939   8.150  0.00  0.00    +0.144 HD
ATOM     35  H   UNL     1       4.011 -10.475   8.769  0.00  0.00    +0.144 HD
ENDBRANCH  19  20
ENDBRANCH   1  19
TORSDOF 7
