REMARK  Name = ZINC21257096
REMARK  9 active torsions:
REMARK  status: ('A' for Active; 'I' for Inactive)
REMARK    1  A    between atoms: C_1  and  C_2
REMARK    2  A    between atoms: C_2  and  C_3
REMARK    3  A    between atoms: C_2  and  C_4
REMARK    4  A    between atoms: C_2  and  C_5
REMARK    5  A    between atoms: C_8  and  C_11
REMARK    6  A    between atoms: C_16  and  C_26
REMARK    7  A    between atoms: C_30  and  O_33
REMARK    8  A    between atoms: C_31  and  O_32
REMARK    9  A    between atoms: O_33  and  C_34
REMARK                            x       y       z     vdW  Elec       q    Type
REMARK                         _______ _______ _______ _____ _____    ______ ____
ROOT
ATOM      1  C   UNL     1      -0.398   1.190   0.156  0.00  0.00    +0.032 C 
ATOM      2  C   UNL     1       1.016   1.737  -0.031  0.00  0.00    +0.059 C 
ATOM      3  C   UNL     1       1.884   1.339   1.152  0.00  0.00    +0.017 C 
ATOM      4  C   UNL     1       1.684   0.167   1.776  0.00  0.00    +0.037 C 
ATOM      5  C   UNL     1       2.492  -0.370   2.934  0.00  0.00    +0.140 C 
ATOM      6  N   UNL     1       3.382   0.597   3.541  0.00  0.00    -0.331 N 
ATOM      7  C   UNL     1       4.450   1.140   2.829  0.00  0.00    +0.049 A 
ATOM      8  C   UNL     1       5.763   0.849   3.163  0.00  0.00    +0.025 A 
ATOM      9  C   UNL     1       6.789   1.323   2.364  0.00  0.00    +0.002 A 
ATOM     10  C   UNL     1       6.509   2.081   1.242  0.00  0.00    +0.002 A 
ATOM     11  C   UNL     1       5.200   2.390   0.917  0.00  0.00    +0.025 A 
ATOM     12  C   UNL     1       4.174   1.932   1.725  0.00  0.00    +0.052 A 
ATOM     13  N   UNL     1       2.841   2.243   1.482  0.00  0.00    -0.316 N 
ATOM     14  C   UNL     1       0.638  -0.691   1.363  0.00  0.00    +0.163 C 
ATOM     15  O   UNL     1       0.493  -1.755   1.933  0.00  0.00    -0.292 OA
ATOM     16  C   UNL     1      -0.299  -0.337   0.247  0.00  0.00    +0.088 C 
ATOM     17  H   UNL     1       3.221   0.915   4.582  0.00  0.00    +0.147 HD
ATOM     18  H   UNL     1       2.583   3.308   1.574  0.00  0.00    +0.152 HD
ENDROOT
BRANCH   1  22
ATOM     19  C   UNL     1      -2.828   2.287  -3.181  0.00  0.00    -0.042 A 
ATOM     20  C   UNL     1      -3.194   2.669  -1.905  0.00  0.00    +0.004 A 
ATOM     21  C   UNL     1      -2.408   2.314  -0.825  0.00  0.00    +0.004 A 
ATOM     22  C   UNL     1      -1.256   1.577  -1.021  0.00  0.00    -0.043 A 
ATOM     23  C   UNL     1      -0.886   1.199  -2.299  0.00  0.00    +0.004 A 
ATOM     24  C   UNL     1      -1.675   1.550  -3.378  0.00  0.00    +0.004 A 
BRANCH  19  26
ATOM     25  C   UNL     1      -3.781   4.198  -4.442  0.00  0.00    +0.015 C 
ATOM     26  C   UNL     1      -3.686   2.673  -4.359  0.00  0.00    -0.013 C 
ATOM     27  C   UNL     1      -3.061   2.129  -5.645  0.00  0.00    +0.015 C 
ATOM     28  C   UNL     1      -5.087   2.083  -4.184  0.00  0.00    +0.015 C 
ENDBRANCH  19  26
ENDBRANCH   1  22
BRANCH   5  29
ATOM     29  C   UNL     1       3.313  -1.535   2.446  0.00  0.00    +0.022 A 
ATOM     30  C   UNL     1       3.517  -1.717   1.090  0.00  0.00    +0.009 A 
ATOM     31  C   UNL     1       4.269  -2.785   0.639  0.00  0.00    +0.004 A 
ATOM     32  C   UNL     1       4.822  -3.676   1.541  0.00  0.00    +0.049 A 
ATOM     33  C   UNL     1       4.621  -3.499   2.900  0.00  0.00    +0.162 A 
ATOM     34  C   UNL     1       3.868  -2.421   3.355  0.00  0.00    +0.164 A 
BRANCH  34  35
ATOM     35  O   UNL     1       3.673  -2.240   4.688  0.00  0.00    -0.503 OA
ATOM     36  H   UNL     1       4.114  -2.944   5.409  0.00  0.00    +0.292 HD
ENDBRANCH  34  35
BRANCH  33  37
ATOM     37  O   UNL     1       5.164  -4.374   3.788  0.00  0.00    -0.491 OA
ATOM     38  C   UNL     1       5.930  -5.454   3.250  0.00  0.00    +0.277 C 
ENDBRANCH  33  37
ENDBRANCH   5  29
TORSDOF 5
