REMARK  Name = ZINC40650223
REMARK  7 active torsions:
REMARK  status: ('A' for Active; 'I' for Inactive)
REMARK    1  A    between atoms: C_4  and  C_7
REMARK    2  A    between atoms: C_7  and  C_8
REMARK    3  A    between atoms: C_7  and  C_14
REMARK    4  A    between atoms: N_16  and  N_17
REMARK    5  A    between atoms: C_19  and  N_33
REMARK    6  A    between atoms: C_20  and  N_24
REMARK    7  A    between atoms: N_24  and  C_25
REMARK                            x       y       z     vdW  Elec       q    Type
REMARK                         _______ _______ _______ _____ _____    ______ ____
ROOT
ATOM      1  N   UNL     1       4.014  -3.004  -1.954  0.00  0.00    -0.246 N 
ATOM      2  C   UNL     1       5.053  -3.907  -2.122  0.00  0.00    +0.171 A 
ATOM      3  C   UNL     1       5.120  -4.701  -3.263  0.00  0.00    +0.207 A 
ATOM      4  C   UNL     1       6.182  -5.592  -3.384  0.00  0.00    +0.159 A 
ATOM      5  N   UNL     1       7.089  -5.652  -2.411  0.00  0.00    -0.218 NA
ATOM      6  C   UNL     1       6.990  -4.884  -1.346  0.00  0.00    +0.225 A 
ATOM      7  N   UNL     1       6.003  -4.024  -1.196  0.00  0.00    -0.217 NA
ATOM      8  H   UNL     1       3.326  -2.925  -2.632  0.00  0.00    +0.172 HD
ENDROOT
BRANCH   1  11
ATOM      9  C   UNL     1       2.950  -1.328  -0.640  0.00  0.00    +0.241 C 
ATOM     10  O   UNL     1       2.089  -1.229  -1.489  0.00  0.00    -0.273 OA
ATOM     11  N   UNL     1       3.960  -2.206  -0.804  0.00  0.00    -0.235 N 
ATOM     12  H   UNL     1       4.648  -2.285  -0.125  0.00  0.00    +0.173 HD
BRANCH   9  13
ATOM     13  C   UNL     1       2.892  -0.469   0.597  0.00  0.00    +0.136 C 
BRANCH  13  17
ATOM     14  C   UNL     1      -0.556   2.047   0.418  0.00  0.00    +0.000 A 
ATOM     15  C   UNL     1       0.695   2.602   0.617  0.00  0.00    +0.000 A 
ATOM     16  C   UNL     1       1.811   1.787   0.675  0.00  0.00    +0.005 A 
ATOM     17  C   UNL     1       1.675   0.419   0.534  0.00  0.00    -0.031 A 
ATOM     18  C   UNL     1       0.424  -0.136   0.337  0.00  0.00    +0.005 A 
ATOM     19  C   UNL     1      -0.691   0.679   0.278  0.00  0.00    +0.000 A 
ENDBRANCH  13  17
BRANCH  13  20
ATOM     20  C   UNL     1       2.809  -1.350   1.816  0.00  0.00    -0.031 A 
ATOM     21  C   UNL     1       1.863  -2.356   1.879  0.00  0.00    +0.005 A 
ATOM     22  C   UNL     1       1.786  -3.164   2.998  0.00  0.00    +0.000 A 
ATOM     23  C   UNL     1       2.657  -2.967   4.054  0.00  0.00    +0.000 A 
ATOM     24  C   UNL     1       3.603  -1.962   3.990  0.00  0.00    +0.000 A 
ATOM     25  C   UNL     1       3.682  -1.156   2.870  0.00  0.00    +0.005 A 
ENDBRANCH  13  20
ENDBRANCH   9  13
ENDBRANCH   1  11
BRANCH   3  26
ATOM     26  N   UNL     1       4.088  -4.601  -4.320  0.00  0.00    +0.063 N 
ATOM     27  O   UNL     1       4.232  -3.821  -5.232  0.00  0.00    -0.126 OA
ATOM     28  O   UNL     1       3.103  -5.299  -4.271  0.00  0.00    -0.126 OA
ENDBRANCH   3  26
BRANCH   4  29
ATOM     29  N   UNL     1       6.294  -6.406  -4.502  0.00  0.00    -0.296 N 
ATOM     30  H   UNL     1       5.681  -6.295  -5.246  0.00  0.00    +0.154 HD
BRANCH  29  31
ATOM     31  C   UNL     1       7.291  -7.385  -4.557  0.00  0.00    +0.051 A 
ATOM     32  C   UNL     1       7.888  -7.837  -3.388  0.00  0.00    +0.026 A 
ATOM     33  C   UNL     1       8.873  -8.804  -3.445  0.00  0.00    +0.022 A 
ATOM     34  C   UNL     1       9.264  -9.324  -4.666  0.00  0.00    +0.042 A 
ATOM     35  C   UNL     1       8.671  -8.877  -5.833  0.00  0.00    +0.041 A 
ATOM     36  C   UNL     1       7.682  -7.913  -5.782  0.00  0.00    +0.063 A 
ATOM     37 CL   UNL     1       6.933  -7.357  -7.246  0.00  0.00    -0.082 Cl
ATOM     38 CL   UNL     1      10.502 -10.539  -4.734  0.00  0.00    -0.083 Cl
ENDBRANCH  29  31
ENDBRANCH   4  29
TORSDOF 7
