REMARK  Name = ZINC12709695
REMARK  12 active torsions:
REMARK  status: ('A' for Active; 'I' for Inactive)
REMARK    1  A    between atoms: C_1  and  C_2
REMARK    2  A    between atoms: C_2  and  C_3
REMARK    3  A    between atoms: C_10  and  C_15
REMARK    4  A    between atoms: C_15  and  N_16
REMARK    5  A    between atoms: N_16  and  C_17
REMARK    6  A    between atoms: N_16  and  C_22
REMARK    7  A    between atoms: C_17  and  C_18
REMARK    8  A    between atoms: C_18  and  N_19
REMARK    9  A    between atoms: N_19  and  C_20
REMARK   10  A    between atoms: N_19  and  C_21
REMARK   11  A    between atoms: C_22  and  N_24
REMARK   12  A    between atoms: N_24  and  C_25
REMARK                            x       y       z     vdW  Elec       q    Type
REMARK                         _______ _______ _______ _____ _____    ______ ____
ROOT
ATOM      1  N   UNL     1      -2.285   1.055   0.011  0.00  0.00    -0.310 N 
ENDROOT
BRANCH   1   2
ATOM      2  C   UNL     1      -1.223   1.844  -0.247  0.00  0.00    +0.133 C 
ATOM      3  S   UNL     1      -1.450   3.512  -0.557  0.00  0.00    -0.019 S 
BRANCH   2   4
ATOM      4  N   UNL     1       0.018   1.318  -0.261  0.00  0.00    -0.324 N 
ATOM      5  H   UNL     1       0.164   0.247  -0.057  0.00  0.00    +0.148 HD
BRANCH   4   6
ATOM      6  C   UNL     1       1.172   2.174  -0.547  0.00  0.00    +0.072 C 
ATOM      7  C   UNL     1       1.357   2.291  -2.061  0.00  0.00    +0.022 C 
ATOM      8  C   UNL     1       2.563   3.184  -2.360  0.00  0.00    +0.002 C 
ATOM      9  C   UNL     1       3.819   2.571  -1.739  0.00  0.00    +0.000 C 
ATOM     10  C   UNL     1       3.634   2.454  -0.225  0.00  0.00    +0.002 C 
ATOM     11  C   UNL     1       2.429   1.560   0.074  0.00  0.00    +0.022 C 
ENDBRANCH   4   6
ENDBRANCH   2   4
ENDBRANCH   1   2
BRANCH   1  12
ATOM     12  C   UNL     1      -3.621   1.645   0.139  0.00  0.00    +0.147 C 
BRANCH  12  20
ATOM     13  C   UNL     1      -4.051   4.674   5.517  0.00  0.00    -0.047 A 
ATOM     14  C   UNL     1      -4.586   3.621   6.246  0.00  0.00    +0.005 A 
ATOM     15  C   UNL     1      -4.827   2.402   5.649  0.00  0.00    +0.026 A 
ATOM     16  C   UNL     1      -4.530   2.223   4.302  0.00  0.00    +0.049 A 
ATOM     17  C   UNL     1      -3.988   3.293   3.566  0.00  0.00    -0.001 A 
ATOM     18  C   UNL     1      -3.753   4.522   4.192  0.00  0.00    +0.013 A 
ATOM     19  C   UNL     1      -3.674   3.093   2.150  0.00  0.00    +0.020 A 
ATOM     20  C   UNL     1      -3.928   1.882   1.595  0.00  0.00    +0.035 A 
ATOM     21  C   UNL     1      -4.472   0.842   2.378  0.00  0.00    +0.254 A 
ATOM     22  O   UNL     1      -4.688  -0.240   1.860  0.00  0.00    -0.268 OA
ATOM     23  N   UNL     1      -4.759   1.015   3.680  0.00  0.00    -0.322 N 
ATOM     24  H   UNL     1      -5.183   0.174   4.250  0.00  0.00    +0.169 HD
BRANCH  13  26
ATOM     25  C   UNL     1      -5.043   6.879   6.070  0.00  0.00    +0.009 C 
ATOM     26  C   UNL     1      -3.798   5.997   6.192  0.00  0.00    +0.032 C 
ENDBRANCH  13  26
ENDBRANCH  12  20
ENDBRANCH   1  12
BRANCH   1  27
ATOM     27  C   UNL     1      -2.105  -0.390   0.164  0.00  0.00    +0.088 C 
BRANCH  27  28
ATOM     28  C   UNL     1      -1.829  -0.718   1.633  0.00  0.00    -0.060 C 
BRANCH  28  29
ATOM     29  N   UNL     1      -1.648  -2.167   1.786  0.00  0.00    +0.377 N 
ATOM     30  C   UNL     1      -0.436  -2.623   1.093  0.00  0.00    -0.097 C 
ATOM     31  C   UNL     1      -1.617  -2.547   3.204  0.00  0.00    -0.097 C 
ATOM     32  H   UNL     1      -2.511  -2.667   1.321  0.00  0.00    -0.083 HD
ENDBRANCH  28  29
ENDBRANCH  27  28
ENDBRANCH   1  27
TORSDOF 9
