REMARK  Name = ZINC20268301
REMARK  7 active torsions:
REMARK  status: ('A' for Active; 'I' for Inactive)
REMARK    1  A    between atoms: C_4  and  C_7
REMARK    2  A    between atoms: C_7  and  C_8
REMARK    3  A    between atoms: C_8  and  C_10
REMARK    4  A    between atoms: C_8  and  C_12
REMARK    5  A    between atoms: C_13  and  C_27
REMARK    6  A    between atoms: C_14  and  N_26
REMARK    7  A    between atoms: C_17  and  C_18
REMARK                            x       y       z     vdW  Elec       q    Type
REMARK                         _______ _______ _______ _____ _____    ______ ____
ROOT
ATOM      1  C   UNL     1       4.156  -0.063  -1.428  0.00  0.00    +0.011 A 
ATOM      2  C   UNL     1       5.344   0.411  -0.867  0.00  0.00    +0.097 A 
ATOM      3  C   UNL     1       6.506  -0.381  -0.952  0.00  0.00    +0.136 A 
ATOM      4  N   UNL     1       6.483  -1.554  -1.564  0.00  0.00    -0.215 NA
ATOM      5  C   UNL     1       5.378  -2.034  -2.112  0.00  0.00    +0.141 A 
ATOM      6  C   UNL     1       4.174  -1.306  -2.065  0.00  0.00    +0.097 A 
ATOM      7  N   UNL     1       5.407  -3.264  -2.739  0.00  0.00    -0.314 N 
ATOM      8  C   UNL     1       5.756  -4.330  -1.790  0.00  0.00    +0.106 C 
ATOM      9  C   UNL     1       5.637  -5.689  -2.482  0.00  0.00    +0.019 C 
ATOM     10  C   UNL     1       6.578  -5.727  -3.690  0.00  0.00    +0.003 C 
ATOM     11  C   UNL     1       6.224  -4.578  -4.638  0.00  0.00    +0.019 C 
ATOM     12  C   UNL     1       6.327  -3.250  -3.884  0.00  0.00    +0.106 C 
ENDROOT
BRANCH   3  13
ATOM     13  N   UNL     1       7.684   0.075  -0.396  0.00  0.00    -0.342 N 
ATOM     14  H   UNL     1       8.595  -0.538  -0.458  0.00  0.00    +0.144 HD
ATOM     15  H   UNL     1       7.712   1.052   0.110  0.00  0.00    +0.144 HD
ENDBRANCH   3  13
BRANCH   6  16
ATOM     16  C   UNL     1       2.983  -1.833  -2.661  0.00  0.00    +0.103 C 
ATOM     17  N   UNL     1       2.038  -2.251  -3.134  0.00  0.00    -0.191 NA
ENDBRANCH   6  16
BRANCH   2  18
ATOM     18  C   UNL     1       5.379   1.683  -0.209  0.00  0.00    +0.103 C 
ATOM     19  N   UNL     1       5.407   2.691   0.313  0.00  0.00    -0.191 NA
ENDBRANCH   2  18
BRANCH   1  20
ATOM     20  C   UNL     1       2.889   0.750  -1.355  0.00  0.00    +0.128 C 
BRANCH  20  21
ATOM     21  C   UNL     1       3.097   2.046  -2.021  0.00  0.00    +0.071 C 
ATOM     22  N   UNL     1       3.258   3.046  -2.535  0.00  0.00    -0.196 NA
ENDBRANCH  20  21
BRANCH  20  23
ATOM     23  C   UNL     1       2.518   0.984   0.111  0.00  0.00    +0.058 C 
BRANCH  23  27
ATOM     24  C   UNL     1      -1.252   2.982   0.323  0.00  0.00    +0.000 A 
ATOM     25  C   UNL     1      -1.202   1.601   0.312  0.00  0.00    +0.000 A 
ATOM     26  C   UNL     1       0.018   0.954   0.248  0.00  0.00    +0.004 A 
ATOM     27  C   UNL     1       1.188   1.689   0.186  0.00  0.00    -0.046 A 
ATOM     28  C   UNL     1       1.138   3.070   0.194  0.00  0.00    +0.004 A 
ATOM     29  C   UNL     1      -0.082   3.717   0.263  0.00  0.00    +0.000 A 
ENDBRANCH  23  27
ENDBRANCH  20  23
ENDBRANCH   1  20
TORSDOF 7
