REMARK  Name = ZINC09087885
REMARK  8 active torsions:
REMARK  status: ('A' for Active; 'I' for Inactive)
REMARK    1  A    between atoms: C_1  and  C_2
REMARK    2  A    between atoms: C_5  and  C_34
REMARK    3  A    between atoms: C_6  and  N_8
REMARK    4  A    between atoms: C_9  and  C_11
REMARK    5  A    between atoms: C_11  and  S_12
REMARK    6  A    between atoms: S_12  and  C_13
REMARK    7  A    between atoms: C_14  and  C_32
REMARK    8  A    between atoms: C_15  and  C_25
REMARK                            x       y       z     vdW  Elec       q    Type
REMARK                         _______ _______ _______ _____ _____    ______ ____
ROOT
ATOM      1  C   UNL     1      -0.874   5.072   2.445  0.00  0.00    +0.111 C 
ATOM      2  C   UNL     1      -0.925   5.864   1.322  0.00  0.00    +0.069 C 
ATOM      3  C   UNL     1      -0.900   5.276  -0.057  0.00  0.00    +0.078 C 
ATOM      4  C   UNL     1      -0.813   3.772  -0.004  0.00  0.00    +0.112 C 
ATOM      5  C   UNL     1      -0.777   3.098  -1.175  0.00  0.00    +0.143 C 
ATOM      6  C   UNL     1      -0.691   1.599  -1.226  0.00  0.00    +0.075 C 
ATOM      7  C   UNL     1       0.051   1.090   0.013  0.00  0.00    +0.013 C 
ATOM      8  C   UNL     1      -0.684   1.585   1.261  0.00  0.00    +0.052 C 
ATOM      9  C   UNL     1      -0.770   3.094   1.223  0.00  0.00    +0.031 C 
ATOM     10  N   UNL     1      -0.800   3.740   2.366  0.00  0.00    -0.248 NA
ATOM     11  O   UNL     1      -0.821   3.791  -2.330  0.00  0.00    -0.297 OA
ENDROOT
BRANCH   3  12
ATOM     12  C   UNL     1      -2.157   5.673  -0.786  0.00  0.00    -0.038 A 
ATOM     13  C   UNL     1      -3.390   5.274  -0.306  0.00  0.00    +0.006 A 
ATOM     14  C   UNL     1      -4.544   5.643  -0.972  0.00  0.00    +0.020 A 
ATOM     15  C   UNL     1      -4.464   6.402  -2.126  0.00  0.00    +0.041 A 
ATOM     16  C   UNL     1      -3.229   6.796  -2.610  0.00  0.00    +0.020 A 
ATOM     17  C   UNL     1      -2.076   6.431  -1.940  0.00  0.00    +0.006 A 
ATOM     18 CL   UNL     1      -5.912   6.859  -2.967  0.00  0.00    -0.084 Cl
ENDBRANCH   3  12
BRANCH   2  19
ATOM     19  C   UNL     1      -1.005   7.286   1.474  0.00  0.00    +0.098 C 
ATOM     20  N   UNL     1      -1.068   8.414   1.594  0.00  0.00    -0.191 NA
ENDBRANCH   2  19
BRANCH   1  21
ATOM     21  S   UNL     1      -0.907   5.835   4.034  0.00  0.00    -0.096 S 
BRANCH  21  22
ATOM     22  C   UNL     1      -0.818   4.367   5.089  0.00  0.00    +0.172 C 
BRANCH  22  24
ATOM     23  N   UNL     1      -0.774   3.856   7.509  0.00  0.00    -0.285 N 
ATOM     24  C   UNL     1      -0.833   4.787   6.536  0.00  0.00    +0.227 C 
ATOM     25  O   UNL     1      -0.897   5.963   6.825  0.00  0.00    -0.275 OA
ATOM     26  H   UNL     1      -0.804   2.913   7.280  0.00  0.00    +0.155 HD
BRANCH  23  32
ATOM     27  C   UNL     1       0.569   7.208  10.844  0.00  0.00    +0.044 C 
ATOM     28  C   UNL     1      -0.024   5.868  10.493  0.00  0.00    -0.049 A 
ATOM     29  C   UNL     1      -0.467   5.025  11.496  0.00  0.00    +0.004 A 
ATOM     30  C   UNL     1      -1.012   3.794  11.178  0.00  0.00    +0.005 A 
ATOM     31  C   UNL     1      -1.120   3.406   9.856  0.00  0.00    -0.029 A 
ATOM     32  C   UNL     1      -0.671   4.248   8.848  0.00  0.00    +0.037 A 
ATOM     33  C   UNL     1      -0.124   5.484   9.171  0.00  0.00    +0.027 A 
ATOM     34  C   UNL     1      -1.720   2.068   9.510  0.00  0.00    +0.045 C 
ENDBRANCH  23  32
ENDBRANCH  22  24
ENDBRANCH  21  22
ENDBRANCH   1  21
TORSDOF 6
