REMARK  Name = ZINC02365282
REMARK  10 active torsions:
REMARK  status: ('A' for Active; 'I' for Inactive)
REMARK    1  A    between atoms: C_1  and  C_2
REMARK    2  A    between atoms: C_2  and  C_3
REMARK    3  A    between atoms: C_2  and  C_4
REMARK    4  A    between atoms: C_12  and  N_29
REMARK    5  A    between atoms: C_14  and  S_16
REMARK    6  A    between atoms: S_16  and  C_17
REMARK    7  A    between atoms: C_17  and  C_18
REMARK    8  A    between atoms: N_20  and  C_21
REMARK    9  A    between atoms: C_26  and  O_27
REMARK   10  A    between atoms: O_27  and  C_28
REMARK                            x       y       z     vdW  Elec       q    Type
REMARK                         _______ _______ _______ _____ _____    ______ ____
ROOT
ATOM      1  C   UNL     1       2.807   0.681  -0.669  0.00  0.00    +0.126 C 
ATOM      2  C   UNL     1       2.802   2.135  -0.191  0.00  0.00    +0.068 C 
ATOM      3  C   UNL     1       1.352   2.612  -0.133  0.00  0.00    -0.020 A 
ATOM      4  C   UNL     1       0.353   1.698  -0.122  0.00  0.00    +0.021 A 
ATOM      5  S   UNL     1      -1.144   2.644  -0.045  0.00  0.00    -0.071 S 
ATOM      6  C   UNL     1      -0.435   4.259  -0.035  0.00  0.00    +0.115 A 
ATOM      7  C   UNL     1       0.961   4.009  -0.085  0.00  0.00    +0.051 A 
ATOM      8  C   UNL     1       1.820   5.145  -0.084  0.00  0.00    +0.129 A 
ATOM      9  N   UNL     1       1.220   6.331  -0.035  0.00  0.00    -0.207 NA
ATOM     10  C   UNL     1      -0.095   6.492   0.011  0.00  0.00    +0.191 A 
ATOM     11  N   UNL     1      -0.953   5.470   0.013  0.00  0.00    -0.214 NA
ATOM     12  C   UNL     1       0.513   0.210  -0.162  0.00  0.00    +0.203 C 
ATOM     13  O   UNL     1       1.890  -0.095   0.107  0.00  0.00    -0.371 OA
ENDROOT
BRANCH   1  15
ATOM     14  C   UNL     1       4.228  -1.346  -1.010  0.00  0.00    +0.010 C 
ATOM     15  C   UNL     1       4.216   0.102  -0.518  0.00  0.00    +0.012 C 
ATOM     16  C   UNL     1       5.199   0.931  -1.347  0.00  0.00    +0.010 C 
ENDBRANCH   1  15
BRANCH   8  17
ATOM     17  N   UNL     1       3.197   5.023  -0.131  0.00  0.00    -0.343 N 
ATOM     18  H   UNL     1       3.608   4.145  -0.086  0.00  0.00    +0.144 HD
ATOM     19  H   UNL     1       3.752   5.814  -0.210  0.00  0.00    +0.144 HD
ENDBRANCH   8  17
BRANCH  10  20
ATOM     20  S   UNL     1      -0.739   8.131   0.074  0.00  0.00    -0.077 S 
BRANCH  20  21
ATOM     21  C   UNL     1       0.804   9.077   0.049  0.00  0.00    +0.173 C 
BRANCH  21  22
ATOM     22  C   UNL     1       0.492  10.550   0.097  0.00  0.00    +0.228 C 
ATOM     23  O   UNL     1      -0.661  10.924   0.143  0.00  0.00    -0.275 OA
ATOM     24  N   UNL     1       1.493  11.452   0.088  0.00  0.00    -0.282 N 
ATOM     25  H   UNL     1       2.412  11.156  -0.006  0.00  0.00    +0.155 HD
BRANCH  24  26
ATOM     26  C   UNL     1       1.207  12.818   0.215  0.00  0.00    +0.076 A 
ATOM     27  C   UNL     1      -0.032  13.308  -0.171  0.00  0.00    +0.027 A 
ATOM     28  C   UNL     1      -0.314  14.654  -0.040  0.00  0.00    +0.002 A 
ATOM     29  C   UNL     1       0.640  15.518   0.465  0.00  0.00    +0.004 A 
ATOM     30  C   UNL     1       1.879  15.038   0.847  0.00  0.00    +0.047 A 
ATOM     31  C   UNL     1       2.168  13.689   0.724  0.00  0.00    +0.141 A 
BRANCH  31  32
ATOM     32  O   UNL     1       3.386  13.216   1.098  0.00  0.00    -0.493 OA
ATOM     33  C   UNL     1       4.322  14.166   1.611  0.00  0.00    +0.277 C 
ENDBRANCH  31  32
ENDBRANCH  24  26
ENDBRANCH  21  22
ENDBRANCH  20  21
ENDBRANCH  10  20
TORSDOF 7
