REMARK  Name = ZINC63182663
REMARK  12 active torsions:
REMARK  status: ('A' for Active; 'I' for Inactive)
REMARK    1  A    between atoms: C_1  and  C_2
REMARK    2  A    between atoms: C_2  and  C_3
REMARK    3  A    between atoms: C_2  and  C_4
REMARK    4  A    between atoms: C_4  and  C_6
REMARK    5  A    between atoms: C_4  and  N_28
REMARK    6  A    between atoms: N_8  and  C_9
REMARK    7  A    between atoms: C_9  and  C_10
REMARK    8  A    between atoms: C_10  and  C_12
REMARK    9  A    between atoms: C_10  and  C_19
REMARK   10  A    between atoms: C_29  and  C_31
REMARK   11  A    between atoms: C_31  and  O_32
REMARK   12  A    between atoms: O_32  and  C_33
REMARK                            x       y       z     vdW  Elec       q    Type
REMARK                         _______ _______ _______ _____ _____    ______ ____
ROOT
ATOM      1  C   UNL     1      -2.074  -0.231  -1.335  0.00  0.00    +0.234 C 
ATOM      2  O   UNL     1      -2.511  -1.081  -2.081  0.00  0.00    -0.274 OA
ATOM      3  N   UNL     1      -2.204   1.073  -1.649  0.00  0.00    -0.313 N 
ATOM      4  H   UNL     1      -1.924   1.754  -1.018  0.00  0.00    +0.149 HD
ENDROOT
BRANCH   1   5
ATOM      5  C   UNL     1      -1.386  -0.633  -0.056  0.00  0.00    +0.161 C 
BRANCH   5   6
ATOM      6  N   UNL     1      -1.702  -2.030   0.251  0.00  0.00    -0.301 N 
ATOM      7  C   UNL     1      -1.649  -2.470   1.523  0.00  0.00    +0.251 C 
ATOM      8  O   UNL     1      -1.340  -1.709   2.416  0.00  0.00    -0.272 OA
ATOM      9  H   UNL     1      -1.949  -2.639  -0.463  0.00  0.00    +0.150 HD
BRANCH   7  10
ATOM     10  C   UNL     1      -1.974  -3.908   1.838  0.00  0.00    +0.324 C 
BRANCH  10  11
ATOM     11  O   UNL     1      -1.847  -4.128   3.244  0.00  0.00    -0.483 OA
BRANCH  11  12
ATOM     12  C   UNL     1      -2.108  -5.382   3.699  0.00  0.00    +0.121 A 
ATOM     13  C   UNL     1      -2.471  -6.382   2.808  0.00  0.00    +0.045 A 
ATOM     14  C   UNL     1      -2.735  -7.656   3.272  0.00  0.00    +0.004 A 
ATOM     15  C   UNL     1      -2.637  -7.935   4.623  0.00  0.00    +0.000 A 
ATOM     16  C   UNL     1      -2.275  -6.940   5.512  0.00  0.00    +0.004 A 
ATOM     17  C   UNL     1      -2.004  -5.666   5.053  0.00  0.00    +0.045 A 
ENDBRANCH  11  12
ENDBRANCH  10  11
ENDBRANCH   7  10
ENDBRANCH   5   6
BRANCH   5  19
ATOM     18  C   UNL     1       0.820  -0.801   1.106  0.00  0.00    +0.009 C 
ATOM     19  C   UNL     1       0.127  -0.476  -0.219  0.00  0.00    +0.012 C 
ATOM     20  C   UNL     1       0.625  -1.434  -1.303  0.00  0.00    +0.009 C 
ENDBRANCH   5  19
ENDBRANCH   1   5
BRANCH   3  21
ATOM     21  C   UNL     1      -2.768   1.462  -2.944  0.00  0.00    +0.116 C 
BRANCH  21  22
ATOM     22  C   UNL     1      -2.804   2.988  -3.047  0.00  0.00    +0.066 C 
BRANCH  22  23
ATOM     23  C   UNL     1      -3.269   3.388  -4.423  0.00  0.00    -0.033 C 
ATOM     24  C   UNL     1      -2.585   4.121  -5.332  0.00  0.00    -0.000 A 
ATOM     25  C   UNL     1      -1.255   4.742  -5.310  0.00  0.00    +0.010 A 
ATOM     26  C   UNL     1      -0.835   5.431  -6.396  0.00  0.00    +0.001 A 
ATOM     27  C   UNL     1      -1.636   5.566  -7.538  0.00  0.00    +0.002 A 
ATOM     28  C   UNL     1      -2.869   5.023  -7.633  0.00  0.00    +0.026 A 
ATOM     29  C   UNL     1      -3.411   4.277  -6.550  0.00  0.00    +0.043 A 
ATOM     30  N   UNL     1      -4.561   3.665  -6.401  0.00  0.00    -0.380 N 
ATOM     31  C   UNL     1      -4.591   3.045  -5.072  0.00  0.00    +0.145 C 
ATOM     32  H   UNL     1      -5.270   3.626  -7.061  0.00  0.00    +0.160 HD
ENDBRANCH  22  23
BRANCH  22  33
ATOM     33  C   UNL     1      -3.755   3.539  -2.016  0.00  0.00    -0.020 A 
ATOM     34  C   UNL     1      -5.087   3.167  -2.035  0.00  0.00    +0.006 A 
ATOM     35  C   UNL     1      -5.959   3.672  -1.089  0.00  0.00    +0.000 A 
ATOM     36  C   UNL     1      -5.501   4.550  -0.124  0.00  0.00    +0.001 A 
ATOM     37  C   UNL     1      -4.171   4.922  -0.104  0.00  0.00    +0.020 A 
ATOM     38  C   UNL     1      -3.296   4.412  -1.047  0.00  0.00    +0.045 A 
ATOM     39 CL   UNL     1      -1.623   4.875  -1.018  0.00  0.00    -0.083 Cl
ENDBRANCH  22  33
ENDBRANCH  21  22
ENDBRANCH   3  21
TORSDOF 10
