REMARK  Name = ZINC12236641
REMARK  6 active torsions:
REMARK  status: ('A' for Active; 'I' for Inactive)
REMARK    1  A    between atoms: C_1  and  C_2
REMARK    2  A    between atoms: C_9  and  C_13
REMARK    3  A    between atoms: C_13  and  C_14
REMARK    4  A    between atoms: N_16  and  C_17
REMARK    5  A    between atoms: C_17  and  C_18
REMARK    6  A    between atoms: C_18  and  C_19
REMARK                            x       y       z     vdW  Elec       q    Type
REMARK                         _______ _______ _______ _____ _____    ______ ____
ROOT
ATOM      1  C   UNL     1      -0.489   1.533  -3.662  0.00  0.00    +0.215 C 
ATOM      2  O   UNL     1      -1.554   2.107  -3.750  0.00  0.00    -0.276 OA
ATOM      3  N   UNL     1       0.112   1.408  -2.462  0.00  0.00    -0.315 N 
ATOM      4  H   UNL     1       0.964   0.949  -2.392  0.00  0.00    +0.149 HD
ENDROOT
BRANCH   1   5
ATOM      5  C   UNL     1       0.162   0.960  -4.895  0.00  0.00    +0.121 C 
BRANCH   5  14
ATOM      6  C   UNL     1       0.374  -2.913  -8.582  0.00  0.00    +0.051 C 
ATOM      7  C   UNL     1       0.355  -1.409  -8.495  0.00  0.00    +0.032 A 
ATOM      8  C   UNL     1       0.819  -0.653  -9.533  0.00  0.00    +0.122 A 
ATOM      9  N   UNL     1       0.788   0.672  -9.429  0.00  0.00    -0.231 NA
ATOM     10  C   UNL     1       0.325   1.272  -8.352  0.00  0.00    +0.172 A 
ATOM     11  N   UNL     1      -0.155   0.593  -7.274  0.00  0.00    -0.283 N 
ATOM     12  C   UNL     1      -0.138  -0.775  -7.350  0.00  0.00    +0.258 A 
ATOM     13  O   UNL     1      -0.554  -1.442  -6.417  0.00  0.00    -0.267 OA
ATOM     14  C   UNL     1      -0.646   1.361  -6.131  0.00  0.00    +0.112 C 
ATOM     15  C   UNL     1      -0.552   2.884  -6.301  0.00  0.00    +0.103 C 
ATOM     16  S   UNL     1       0.181   3.005  -7.975  0.00  0.00    -0.086 S 
ENDBRANCH   5  14
ENDBRANCH   1   5
BRANCH   3  17
ATOM     17  C   UNL     1      -0.520   1.965  -1.264  0.00  0.00    +0.109 C 
BRANCH  17  18
ATOM     18  C   UNL     1       0.362   1.688  -0.046  0.00  0.00    +0.056 C 
BRANCH  18  19
ATOM     19  C   UNL     1      -0.289   2.261   1.187  0.00  0.00    -0.021 A 
ATOM     20  C   UNL     1      -0.048   3.464   1.731  0.00  0.00    +0.087 A 
ATOM     21  N   UNL     1      -0.826   3.638   2.843  0.00  0.00    -0.360 N 
ATOM     22  H   UNL     1      -0.828   4.429   3.404  0.00  0.00    +0.165 HD
ATOM     23  C   UNL     1      -1.607   2.522   3.046  0.00  0.00    +0.047 A 
ATOM     24  C   UNL     1      -1.309   1.613   2.015  0.00  0.00    +0.003 A 
ATOM     25  C   UNL     1      -1.955   0.376   1.968  0.00  0.00    +0.010 A 
ATOM     26  C   UNL     1      -2.882   0.059   2.921  0.00  0.00    +0.001 A 
ATOM     27  C   UNL     1      -3.183   0.954   3.937  0.00  0.00    +0.002 A 
ATOM     28  C   UNL     1      -2.554   2.178   4.005  0.00  0.00    +0.026 A 
ENDBRANCH  18  19
ENDBRANCH  17  18
ENDBRANCH   3  17
TORSDOF 5
