REMARK  Name = ZINC38804971
REMARK  9 active torsions:
REMARK  status: ('A' for Active; 'I' for Inactive)
REMARK    1  A    between atoms: C_1  and  C_2
REMARK    2  A    between atoms: C_10  and  N_15
REMARK    3  A    between atoms: C_11  and  C_12
REMARK    4  A    between atoms: C_16  and  C_18
REMARK    5  A    between atoms: C_19  and  C_20
REMARK    6  A    between atoms: C_23  and  O_28
REMARK    7  A    between atoms: C_24  and  O_26
REMARK    8  A    between atoms: O_26  and  C_27
REMARK    9  A    between atoms: O_28  and  C_29
REMARK                            x       y       z     vdW  Elec       q    Type
REMARK                         _______ _______ _______ _____ _____    ______ ____
ROOT
ATOM      1  C   UNL     1      -0.018   1.503   0.010  0.00  0.00    +0.109 C 
ATOM      2  C   UNL     1       0.002  -0.004   0.002  0.00  0.00    +0.213 C 
ATOM      3  O   UNL     1       1.060  -0.596  -0.011  0.00  0.00    -0.276 OA
ATOM      4  N   UNL     1      -1.156  -0.694   0.009  0.00  0.00    -0.297 N 
ATOM      5  C   UNL     1      -1.167  -2.164   0.008  0.00  0.00    +0.113 C 
ATOM      6  C   UNL     1      -1.786  -2.674   1.311  0.00  0.00    +0.056 C 
ATOM      7  C   UNL     1      -3.078  -1.917   1.579  0.00  0.00    -0.020 A 
ATOM      8  C   UNL     1      -3.339  -0.731   0.988  0.00  0.00    +0.013 A 
ATOM      9  S   UNL     1      -4.926  -0.256   1.608  0.00  0.00    -0.076 S 
ATOM     10  C   UNL     1      -5.246  -1.568   2.607  0.00  0.00    +0.085 A 
ATOM     11  C   UNL     1      -4.130  -2.378   2.469  0.00  0.00    +0.068 A 
ATOM     12  C   UNL     1      -2.459  -0.000   0.025  0.00  0.00    +0.150 C 
ENDROOT
BRANCH  11  13
ATOM     13  C   UNL     1      -4.016  -3.648   3.192  0.00  0.00    +0.244 C 
ATOM     14  O   UNL     1      -3.506  -3.676   4.297  0.00  0.00    -0.270 OA
ATOM     15  N   UNL     1      -4.475  -4.786   2.633  0.00  0.00    -0.325 N 
ATOM     16  H   UNL     1      -4.881  -4.763   1.752  0.00  0.00    +0.145 HD
ATOM     17  H   UNL     1      -4.399  -5.626   3.111  0.00  0.00    +0.145 HD
ENDBRANCH  11  13
BRANCH  10  18
ATOM     18  N   UNL     1      -6.368  -1.788   3.389  0.00  0.00    -0.276 N 
ATOM     19  C   UNL     1      -7.368  -0.885   3.402  0.00  0.00    +0.241 C 
ATOM     20  O   UNL     1      -7.286   0.124   2.727  0.00  0.00    -0.270 OA
ATOM     21  H   UNL     1      -6.433  -2.593   3.927  0.00  0.00    +0.156 HD
BRANCH  19  22
ATOM     22  C   UNL     1      -8.552  -1.118   4.228  0.00  0.00    +0.068 C 
ATOM     23  C   UNL     1      -9.554  -0.213   4.241  0.00  0.00    +0.013 C 
BRANCH  23  24
ATOM     24  C   UNL     1     -10.745  -0.448   5.071  0.00  0.00    -0.021 A 
ATOM     25  C   UNL     1     -10.838  -1.605   5.853  0.00  0.00    +0.012 A 
ATOM     26  C   UNL     1     -11.955  -1.821   6.630  0.00  0.00    +0.050 A 
ATOM     27  C   UNL     1     -12.989  -0.894   6.640  0.00  0.00    +0.162 A 
ATOM     28  C   UNL     1     -12.903   0.261   5.864  0.00  0.00    +0.162 A 
ATOM     29  C   UNL     1     -11.785   0.489   5.087  0.00  0.00    +0.057 A 
BRANCH  28  30
ATOM     30  O   UNL     1     -13.918   1.165   5.877  0.00  0.00    -0.491 OA
ATOM     31  C   UNL     1     -13.763   2.326   5.058  0.00  0.00    +0.277 C 
ENDBRANCH  28  30
BRANCH  27  32
ATOM     32  O   UNL     1     -14.087  -1.114   7.409  0.00  0.00    -0.491 OA
ATOM     33  C   UNL     1     -14.111  -2.318   8.179  0.00  0.00    +0.277 C 
ENDBRANCH  27  32
ENDBRANCH  23  24
ENDBRANCH  19  22
ENDBRANCH  10  18
TORSDOF 6
