REMARK  Name = ZINC38610407
REMARK  6 active torsions:
REMARK  status: ('A' for Active; 'I' for Inactive)
REMARK    1  A    between atoms: C_8  and  S_11
REMARK    2  A    between atoms: S_11  and  C_12
REMARK    3  A    between atoms: C_12  and  C_13
REMARK    4  A    between atoms: N_15  and  N_16
REMARK    5  A    between atoms: C_17  and  C_18
REMARK    6  A    between atoms: C_23  and  C_24
REMARK                            x       y       z     vdW  Elec       q    Type
REMARK                         _______ _______ _______ _____ _____    ______ ____
ROOT
ATOM      1  C   UNL     1       3.035  -3.185   4.123  0.00  0.00    +0.242 C 
ATOM      2  O   UNL     1       3.322  -4.364   4.135  0.00  0.00    -0.273 OA
ATOM      3  N   UNL     1       2.927  -2.506   5.283  0.00  0.00    -0.207 N 
ATOM      4  H   UNL     1       2.697  -1.564   5.273  0.00  0.00    +0.177 HD
ENDROOT
BRANCH   3   5
ATOM      5  N   UNL     1       3.147  -3.162   6.501  0.00  0.00    -0.192 NA
ATOM      6  C   UNL     1       3.045  -2.517   7.602  0.00  0.00    +0.118 C 
BRANCH   6   7
ATOM      7  C   UNL     1       3.282  -3.221   8.913  0.00  0.00    +0.125 C 
ATOM      8  C   UNL     1       2.076  -3.082   9.821  0.00  0.00    +0.123 C 
ATOM      9  N   UNL     1       2.488  -2.448  10.870  0.00  0.00    -0.161 NA
ATOM     10  N   UNL     1       3.840  -2.128  10.803  0.00  0.00    -0.153 NA
ATOM     11  C   UNL     1       4.392  -2.543   9.691  0.00  0.00    +0.084 C 
BRANCH  11  12
ATOM     12  C   UNL     1       5.796  -2.385   9.280  0.00  0.00    -0.001 A 
ATOM     13  C   UNL     1       6.227  -2.886   8.047  0.00  0.00    +0.012 A 
ATOM     14  C   UNL     1       7.543  -2.734   7.668  0.00  0.00    +0.039 A 
ATOM     15  C   UNL     1       8.439  -2.088   8.506  0.00  0.00    +0.123 A 
ATOM     16  C   UNL     1       8.018  -1.589   9.730  0.00  0.00    +0.039 A 
ATOM     17  C   UNL     1       6.704  -1.729  10.118  0.00  0.00    +0.012 A 
ATOM     18  F   UNL     1       9.729  -1.943   8.129  0.00  0.00    -0.205 F 
ENDBRANCH  11  12
ENDBRANCH   6   7
ENDBRANCH   3   5
BRANCH   1  19
ATOM     19  C   UNL     1       2.797  -2.481   2.813  0.00  0.00    +0.169 C 
BRANCH  19  20
ATOM     20  S   UNL     1       3.016  -3.655   1.447  0.00  0.00    -0.118 S 
BRANCH  20  28
ATOM     21  C   UNL     1      -0.017   1.371   0.010  0.00  0.00    +0.002 A 
ATOM     22  C   UNL     1       1.157   2.102   0.002  0.00  0.00    +0.001 A 
ATOM     23  C   UNL     1       2.367   1.427  -0.013  0.00  0.00    +0.016 A 
ATOM     24  C   UNL     1       2.384   0.051  -0.020  0.00  0.00    +0.031 A 
ATOM     25  C   UNL     1       1.215  -0.716  -0.013  0.00  0.00    +0.042 A 
ATOM     26  C   UNL     1       0.002  -0.004   0.002  0.00  0.00    +0.024 A 
ATOM     27  N   UNL     1       1.341  -2.104  -0.022  0.00  0.00    -0.323 N 
ATOM     28  C   UNL     1       2.700  -2.663  -0.039  0.00  0.00    +0.193 C 
ATOM     29  S   UNL     1       3.714  -1.130  -0.039  0.00  0.00    -0.090 S 
ATOM     30  H   UNL     1       0.560  -2.680  -0.018  0.00  0.00    +0.148 HD
ENDBRANCH  20  28
ENDBRANCH  19  20
ENDBRANCH   1  19
TORSDOF 6
