REMARK  Name = ZINC15798023
REMARK  10 active torsions:
REMARK  status: ('A' for Active; 'I' for Inactive)
REMARK    1  A    between atoms: C_1  and  C_2
REMARK    2  A    between atoms: C_2  and  C_4
REMARK    3  A    between atoms: C_2  and  O_19
REMARK    4  A    between atoms: N_6  and  C_7
REMARK    5  A    between atoms: C_7  and  C_8
REMARK    6  A    between atoms: C_8  and  C_9
REMARK    7  A    between atoms: C_12  and  S_15
REMARK    8  A    between atoms: S_15  and  N_18
REMARK    9  A    between atoms: O_19  and  C_20
REMARK   10  A    between atoms: C_20  and  C_22
REMARK                            x       y       z     vdW  Elec       q    Type
REMARK                         _______ _______ _______ _____ _____    ______ ____
ROOT
ATOM      1  C   UNL     1      -5.315   0.548  -1.012  0.00  0.00    +0.062 C 
ATOM      2  C   UNL     1      -5.589   2.053  -1.028  0.00  0.00    +0.259 C 
ENDROOT
BRANCH   2   3
ATOM      3  C   UNL     1      -6.444   2.394  -2.222  0.00  0.00    +0.254 C 
ATOM      4  O   UNL     1      -6.000   3.096  -3.105  0.00  0.00    -0.272 OA
ATOM      5  N   UNL     1      -7.703   1.920  -2.307  0.00  0.00    -0.312 N 
ATOM      6  H   UNL     1      -8.058   1.359  -1.600  0.00  0.00    +0.149 HD
BRANCH   5   7
ATOM      7  C   UNL     1      -8.534   2.252  -3.467  0.00  0.00    +0.109 C 
BRANCH   7   8
ATOM      8  C   UNL     1      -9.906   1.593  -3.317  0.00  0.00    +0.054 C 
BRANCH   8   9
ATOM      9  C   UNL     1     -10.761   1.934  -4.510  0.00  0.00    -0.046 A 
ATOM     10  C   UNL     1     -11.562   3.060  -4.486  0.00  0.00    +0.005 A 
ATOM     11  C   UNL     1     -12.343   3.376  -5.582  0.00  0.00    +0.029 A 
ATOM     12  C   UNL     1     -12.329   2.561  -6.699  0.00  0.00    +0.105 A 
ATOM     13  C   UNL     1     -11.532   1.432  -6.720  0.00  0.00    +0.029 A 
ATOM     14  C   UNL     1     -10.748   1.119  -5.626  0.00  0.00    +0.005 A 
BRANCH  12  15
ATOM     15  S   UNL     1     -13.328   2.961  -8.094  0.00  0.00    +0.056 S 
ATOM     16  O   UNL     1     -13.567   4.361  -8.035  0.00  0.00    -0.153 OA
ATOM     17  O   UNL     1     -12.722   2.339  -9.219  0.00  0.00    -0.153 OA
BRANCH  15  18
ATOM     18  N   UNL     1     -14.793   2.221  -7.876  0.00  0.00    -0.204 NA
ATOM     19  H   UNL     1     -15.597   2.619  -8.245  0.00  0.00    +0.144 HD
ATOM     20  H   UNL     1     -14.848   1.390  -7.379  0.00  0.00    +0.144 HD
ENDBRANCH  15  18
ENDBRANCH  12  15
ENDBRANCH   8   9
ENDBRANCH   7   8
ENDBRANCH   5   7
ENDBRANCH   2   3
BRANCH   2  21
ATOM     21  O   UNL     1      -4.331   2.773  -1.112  0.00  0.00    -0.449 OA
BRANCH  21  22
ATOM     22  C   UNL     1      -3.735   3.102   0.052  0.00  0.00    +0.341 C 
ATOM     23  O   UNL     1      -4.253   2.795   1.109  0.00  0.00    -0.245 OA
BRANCH  22  24
ATOM     24  C   UNL     1      -2.462   3.830   0.044  0.00  0.00    +0.074 A 
ATOM     25  C   UNL     1      -1.239   3.128   0.030  0.00  0.00    -0.003 A 
ATOM     26  C   UNL     1      -1.209   1.723   0.017  0.00  0.00    +0.009 A 
ATOM     27  C   UNL     1      -0.013   1.076   0.008  0.00  0.00    +0.001 A 
ATOM     28  C   UNL     1       1.195   1.772   0.000  0.00  0.00    +0.001 A 
ATOM     29  C   UNL     1       1.235   3.130   0.007  0.00  0.00    +0.008 A 
ATOM     30  C   UNL     1       0.028   3.862   0.021  0.00  0.00    -0.017 A 
ATOM     31  C   UNL     1       0.035   5.257   0.028  0.00  0.00    +0.017 A 
ATOM     32  C   UNL     1      -1.171   5.960   0.042  0.00  0.00    -0.017 A 
ATOM     33  C   UNL     1      -2.446   5.240   0.051  0.00  0.00    -0.003 A 
ATOM     34  C   UNL     1      -3.642   5.979   0.065  0.00  0.00    +0.009 A 
ATOM     35  C   UNL     1      -3.593   7.338   0.070  0.00  0.00    +0.001 A 
ATOM     36  C   UNL     1      -2.381   8.025   0.062  0.00  0.00    +0.001 A 
ATOM     37  C   UNL     1      -1.190   7.371   0.048  0.00  0.00    +0.008 A 
ENDBRANCH  22  24
ENDBRANCH  21  22
ENDBRANCH   2  21
TORSDOF 9
