REMARK  Name = ZINC33174398
REMARK  7 active torsions:
REMARK  status: ('A' for Active; 'I' for Inactive)
REMARK    1  A    between atoms: C_4  and  N_10
REMARK    2  A    between atoms: C_14  and  C_17
REMARK    3  A    between atoms: N_19  and  C_20
REMARK    4  A    between atoms: C_20  and  C_21
REMARK    5  A    between atoms: C_21  and  C_22
REMARK    6  A    between atoms: C_22  and  N_23
REMARK    7  A    between atoms: C_26  and  N_29
REMARK                            x       y       z     vdW  Elec       q    Type
REMARK                         _______ _______ _______ _____ _____    ______ ____
ROOT
ATOM      1  C   UNL     1      -0.782   2.019   1.208  0.00  0.00    +0.218 C 
ATOM      2  O   UNL     1      -1.247   1.224   1.997  0.00  0.00    -0.275 OA
ATOM      3  N   UNL     1      -0.923   3.342   1.424  0.00  0.00    -0.315 N 
ATOM      4  H   UNL     1      -0.502   4.064   0.709  0.00  0.00    +0.149 HD
ENDROOT
BRANCH   1   9
ATOM      5  N   UNL     1       0.706  -0.479  -1.196  0.00  0.00    -0.315 N 
ATOM      6  C   UNL     1       2.104  -0.029  -1.168  0.00  0.00    +0.106 C 
ATOM      7  C   UNL     1       2.150   1.500  -1.197  0.00  0.00    +0.020 C 
ATOM      8  C   UNL     1       1.393   2.052   0.014  0.00  0.00    +0.016 C 
ATOM      9  C   UNL     1      -0.046   1.529  -0.012  0.00  0.00    +0.092 C 
ATOM     10  C   UNL     1      -0.029  -0.001  -0.018  0.00  0.00    +0.119 C 
BRANCH   5  14
ATOM     11  C   UNL     1       0.484  -4.596  -1.420  0.00  0.00    +0.033 A 
ATOM     12  C   UNL     1       0.579  -3.922  -0.232  0.00  0.00    +0.085 A 
ATOM     13  N   UNL     1       0.647  -2.600  -0.214  0.00  0.00    -0.349 N 
ATOM     14  C   UNL     1       0.630  -1.861  -1.303  0.00  0.00    +0.107 A 
ATOM     15  C   UNL     1       0.530  -2.461  -2.586  0.00  0.00    +0.027 A 
ATOM     16  C   UNL     1       0.463  -3.872  -2.598  0.00  0.00    +0.024 A 
ATOM     17  S   UNL     1       0.357  -4.271  -4.321  0.00  0.00    -0.096 S 
ATOM     18  C   UNL     1       0.409  -2.618  -4.990  0.00  0.00    +0.046 A 
ATOM     19  C   UNL     1       0.503  -1.842  -3.900  0.00  0.00    +0.019 A 
ATOM     20  H   UNL     1       0.722  -2.066   0.746  0.00  0.00    +0.167 HD
ENDBRANCH   5  14
ENDBRANCH   1   9
BRANCH   3  21
ATOM     21  C   UNL     1      -1.639   3.819   2.610  0.00  0.00    +0.105 C 
BRANCH  21  22
ATOM     22  C   UNL     1      -1.656   5.349   2.615  0.00  0.00    +0.034 C 
BRANCH  22  23
ATOM     23  C   UNL     1      -2.403   5.846   3.854  0.00  0.00    +0.086 C 
BRANCH  23  24
ATOM     24  N   UNL     1      -2.420   7.315   3.859  0.00  0.00    -0.302 NA
ATOM     25  C   UNL     1      -2.777   7.842   2.536  0.00  0.00    +0.083 C 
ATOM     26  C   UNL     1      -2.643   9.366   2.539  0.00  0.00    +0.000 C 
ATOM     27  C   UNL     1      -3.568   9.953   3.609  0.00  0.00    -0.066 C 
ATOM     28  C   UNL     1      -3.206   9.352   4.970  0.00  0.00    +0.000 C 
ATOM     29  C   UNL     1      -3.323   7.828   4.897  0.00  0.00    +0.083 C 
BRANCH  27  30
ATOM     30  N   UNL     1      -3.402  11.412   3.657  0.00  0.00    +0.382 N 
ATOM     31  C   UNL     1      -4.195  11.996   4.745  0.00  0.00    -0.078 C 
ATOM     32  C   UNL     1      -3.886  13.491   4.858  0.00  0.00    -0.019 C 
ATOM     33  C   UNL     1      -4.222  14.178   3.531  0.00  0.00    -0.004 C 
ATOM     34  C   UNL     1      -3.419  13.518   2.406  0.00  0.00    -0.019 C 
ATOM     35  C   UNL     1      -3.741  12.023   2.365  0.00  0.00    -0.078 C 
ATOM     36  H   UNL     1      -2.342  11.627   3.861  0.00  0.00    -0.081 HD
ENDBRANCH  27  30
ENDBRANCH  23  24
ENDBRANCH  22  23
ENDBRANCH  21  22
ENDBRANCH   3  21
TORSDOF 7
