REMARK  Name = ZINC21424773
REMARK  8 active torsions:
REMARK  status: ('A' for Active; 'I' for Inactive)
REMARK    1  A    between atoms: C_1  and  C_2
REMARK    2  A    between atoms: C_2  and  C_3
REMARK    3  A    between atoms: C_2  and  S_14
REMARK    4  A    between atoms: N_5  and  C_6
REMARK    5  A    between atoms: S_14  and  C_15
REMARK    6  A    between atoms: C_16  and  C_24
REMARK    7  A    between atoms: C_18  and  C_22
REMARK    8  A    between atoms: C_19  and  N_21
REMARK                            x       y       z     vdW  Elec       q    Type
REMARK                         _______ _______ _______ _____ _____    ______ ____
ROOT
ATOM      1  C   UNL     1      -0.026   1.508  -0.005  0.00  0.00    +0.029 C 
ATOM      2  C   UNL     1       0.002  -0.021  -0.004  0.00  0.00    +0.136 C 
ENDROOT
BRANCH   2   3
ATOM      3  C   UNL     1       0.731  -0.509   1.221  0.00  0.00    +0.230 C 
ATOM      4  O   UNL     1       0.105  -0.894   2.186  0.00  0.00    -0.274 OA
ATOM      5  N   UNL     1       2.079  -0.519   1.244  0.00  0.00    -0.283 N 
ATOM      6  H   UNL     1       2.579  -0.273   0.450  0.00  0.00    +0.155 HD
BRANCH   5   7
ATOM      7  C   UNL     1       2.756  -0.883   2.414  0.00  0.00    +0.052 A 
ATOM      8  C   UNL     1       2.227  -1.857   3.249  0.00  0.00    +0.026 A 
ATOM      9  C   UNL     1       2.898  -2.215   4.403  0.00  0.00    +0.022 A 
ATOM     10  C   UNL     1       4.096  -1.603   4.727  0.00  0.00    +0.042 A 
ATOM     11  C   UNL     1       4.626  -0.631   3.897  0.00  0.00    +0.041 A 
ATOM     12  C   UNL     1       3.962  -0.274   2.738  0.00  0.00    +0.064 A 
ATOM     13 CL   UNL     1       4.631   0.940   1.692  0.00  0.00    -0.082 Cl
ATOM     14 CL   UNL     1       4.935  -2.054   6.178  0.00  0.00    -0.083 Cl
ENDBRANCH   5   7
ENDBRANCH   2   3
BRANCH   2  15
ATOM     15  S   UNL     1      -1.698  -0.657   0.011  0.00  0.00    -0.092 S 
BRANCH  15  16
ATOM     16  C   UNL     1      -2.363  -0.131  -1.534  0.00  0.00    +0.117 A 
ATOM     17  C   UNL     1      -3.695  -0.452  -1.864  0.00  0.00    +0.085 A 
ATOM     18  C   UNL     1      -4.211  -0.030  -3.091  0.00  0.00    +0.043 A 
ATOM     19  C   UNL     1      -3.379   0.698  -3.946  0.00  0.00    +0.092 A 
ATOM     20  C   UNL     1      -2.059   0.978  -3.542  0.00  0.00    +0.135 A 
ATOM     21  N   UNL     1      -1.606   0.566  -2.369  0.00  0.00    -0.224 NA
BRANCH  20  22
ATOM     22  N   UNL     1      -1.228   1.696  -4.379  0.00  0.00    -0.342 N 
ATOM     23  H   UNL     1      -1.555   2.004  -5.239  0.00  0.00    +0.144 HD
ATOM     24  H   UNL     1      -0.318   1.892  -4.107  0.00  0.00    +0.144 HD
ENDBRANCH  20  22
BRANCH  19  25
ATOM     25  C   UNL     1      -3.862   1.153  -5.215  0.00  0.00    +0.103 C 
ATOM     26  N   UNL     1      -4.245   1.513  -6.221  0.00  0.00    -0.191 NA
ENDBRANCH  19  25
BRANCH  17  27
ATOM     27  C   UNL     1      -4.508  -1.201  -0.954  0.00  0.00    +0.102 C 
ATOM     28  N   UNL     1      -5.153  -1.795  -0.231  0.00  0.00    -0.191 NA
ENDBRANCH  17  27
ENDBRANCH  15  16
ENDBRANCH   2  15
TORSDOF 7
