REMARK  Name = ZINC09579860
REMARK  12 active torsions:
REMARK  status: ('A' for Active; 'I' for Inactive)
REMARK    1  A    between atoms: C_1  and  C_2
REMARK    2  A    between atoms: C_2  and  C_3
REMARK    3  A    between atoms: C_3  and  C_4
REMARK    4  A    between atoms: C_4  and  N_5
REMARK    5  A    between atoms: C_9  and  S_30
REMARK    6  A    between atoms: C_13  and  S_14
REMARK    7  A    between atoms: S_14  and  C_15
REMARK    8  A    between atoms: C_15  and  C_16
REMARK    9  A    between atoms: N_18  and  C_19
REMARK   10  A    between atoms: C_24  and  C_29
REMARK   11  A    between atoms: C_26  and  C_28
REMARK   12  A    between atoms: S_30  and  N_33
REMARK                            x       y       z     vdW  Elec       q    Type
REMARK                         _______ _______ _______ _____ _____    ______ ____
ROOT
ATOM      1  N   UNL     1       3.446  -0.880  -0.036  0.00  0.00    -0.319 N 
ATOM      2  C   UNL     1       2.421   0.053  -0.021  0.00  0.00    +0.070 A 
ATOM      3  C   UNL     1       2.384   1.439  -0.013  0.00  0.00    +0.030 A 
ATOM      4  C   UNL     1       1.169   2.093   0.002  0.00  0.00    +0.030 A 
ATOM      5  C   UNL     1      -0.017   1.373   0.010  0.00  0.00    +0.107 A 
ATOM      6  C   UNL     1       0.002  -0.004   0.002  0.00  0.00    +0.058 A 
ATOM      7  C   UNL     1       1.224  -0.681  -0.013  0.00  0.00    +0.092 A 
ATOM      8  N   UNL     1       1.561  -1.998  -0.024  0.00  0.00    -0.222 NA
ATOM      9  C   UNL     1       2.866  -2.117  -0.037  0.00  0.00    +0.170 A 
ENDROOT
BRANCH   5  10
ATOM     10  S   UNL     1      -1.558   2.226   0.021  0.00  0.00    +0.056 S 
ATOM     11  O   UNL     1      -1.313   3.515  -0.523  0.00  0.00    -0.153 OA
ATOM     12  O   UNL     1      -2.519   1.337  -0.530  0.00  0.00    -0.153 OA
BRANCH  10  13
ATOM     13  N   UNL     1      -1.979   2.455   1.607  0.00  0.00    -0.204 NA
ATOM     14  H   UNL     1      -2.508   3.227   1.862  0.00  0.00    +0.144 HD
ATOM     15  H   UNL     1      -1.697   1.817   2.280  0.00  0.00    +0.144 HD
ENDBRANCH  10  13
ENDBRANCH   5  10
BRANCH   1  16
ATOM     16  C   UNL     1       4.882  -0.593  -0.048  0.00  0.00    +0.124 C 
BRANCH  16  17
ATOM     17  C   UNL     1       5.396  -0.502   1.390  0.00  0.00    +0.021 C 
BRANCH  17  19
ATOM     18  C   UNL     1       7.410  -0.111   2.816  0.00  0.00    +0.004 C 
ATOM     19  C   UNL     1       6.896  -0.202   1.378  0.00  0.00    -0.002 C 
ENDBRANCH  17  19
ENDBRANCH  16  17
ENDBRANCH   1  16
BRANCH   9  20
ATOM     20  S   UNL     1       3.743  -3.646  -0.055  0.00  0.00    -0.078 S 
BRANCH  20  21
ATOM     21  C   UNL     1       2.353  -4.805  -0.048  0.00  0.00    +0.173 C 
BRANCH  21  22
ATOM     22  C   UNL     1       2.877  -6.218  -0.061  0.00  0.00    +0.224 C 
ATOM     23  O   UNL     1       4.073  -6.421  -0.075  0.00  0.00    -0.275 OA
ATOM     24  N   UNL     1       2.017  -7.256  -0.059  0.00  0.00    -0.312 N 
ATOM     25  H   UNL     1       1.061  -7.094  -0.048  0.00  0.00    +0.149 HD
BRANCH  24  26
ATOM     26  C   UNL     1       2.527  -8.629  -0.072  0.00  0.00    +0.076 C 
ATOM     27  C   UNL     1       2.837  -9.072   1.359  0.00  0.00    +0.022 C 
ATOM     28  C   UNL     1       3.369 -10.507   1.346  0.00  0.00    +0.002 C 
ATOM     29  C   UNL     1       2.314 -11.436   0.741  0.00  0.00    +0.003 C 
ATOM     30  C   UNL     1       2.005 -10.993  -0.690  0.00  0.00    -0.009 C 
ATOM     31  C   UNL     1       1.472  -9.559  -0.676  0.00  0.00    +0.009 C 
ATOM     32  C   UNL     1       1.163  -9.116  -2.108  0.00  0.00    +0.009 C 
ATOM     33  C   UNL     1       3.282 -11.055  -1.531  0.00  0.00    +0.008 C 
ENDBRANCH  24  26
ENDBRANCH  21  22
ENDBRANCH  20  21
ENDBRANCH   9  20
TORSDOF 9
