REMARK  Name = ZINC38732236
REMARK  8 active torsions:
REMARK  status: ('A' for Active; 'I' for Inactive)
REMARK    1  A    between atoms: C_1  and  O_2
REMARK    2  A    between atoms: O_2  and  C_3
REMARK    3  A    between atoms: C_3  and  C_5
REMARK    4  A    between atoms: C_5  and  C_7
REMARK    5  A    between atoms: C_5  and  N_17
REMARK    6  A    between atoms: C_7  and  C_8
REMARK    7  A    between atoms: C_18  and  C_20
REMARK    8  A    between atoms: C_26  and  C_28
REMARK                            x       y       z     vdW  Elec       q    Type
REMARK                         _______ _______ _______ _____ _____    ______ ____
ROOT
ATOM      1  C   UNL     1      -4.777  -3.104   1.188  0.00  0.00    +0.087 C 
ATOM      2  C   UNL     1      -4.902  -4.499   0.573  0.00  0.00    +0.013 C 
ATOM      3  C   UNL     1      -6.367  -4.938   0.597  0.00  0.00    +0.001 C 
ATOM      4  C   UNL     1      -6.866  -4.971   2.043  0.00  0.00    +0.001 C 
ATOM      5  C   UNL     1      -6.742  -3.576   2.658  0.00  0.00    +0.013 C 
ATOM      6  C   UNL     1      -5.276  -3.137   2.634  0.00  0.00    +0.087 C 
ENDROOT
BRANCH   6   7
ATOM      7  C   UNL     1      -5.153  -1.763   3.239  0.00  0.00    +0.219 C 
ATOM      8  O   UNL     1      -5.145  -0.783   2.524  0.00  0.00    -0.275 OA
ATOM      9  N   UNL     1      -5.051  -1.622   4.576  0.00  0.00    -0.298 N 
ATOM     10  C   UNL     1      -4.953  -2.801   5.447  0.00  0.00    +0.126 C 
ATOM     11  C   UNL     1      -3.690  -2.670   6.308  0.00  0.00    +0.125 C 
ATOM     12  N   UNL     1      -3.676  -1.334   6.920  0.00  0.00    -0.314 N 
ATOM     13  C   UNL     1      -3.774  -0.155   6.049  0.00  0.00    +0.125 C 
ATOM     14  C   UNL     1      -5.031  -0.285   5.188  0.00  0.00    +0.126 C 
ATOM     15  C   UNL     1      -3.571  -1.189   8.299  0.00  0.00    +0.099 A 
ATOM     16  C   UNL     1      -3.341  -2.307   9.094  0.00  0.00    +0.042 A 
ATOM     17  C   UNL     1      -3.240  -2.148  10.464  0.00  0.00    +0.005 A 
ATOM     18  C   UNL     1      -3.371  -0.871  10.995  0.00  0.00    +0.018 A 
ATOM     19  C   UNL     1      -3.597   0.194  10.146  0.00  0.00    +0.084 A 
ATOM     20  N   UNL     1      -3.685   0.013   8.842  0.00  0.00    -0.350 N 
ATOM     21  H   UNL     1      -3.841   0.779   8.268  0.00  0.00    +0.166 HD
ENDBRANCH   6   7
BRANCH   1  23
ATOM     22  N   UNL     1      -2.680  -2.570  -0.010  0.00  0.00    -0.302 N 
ATOM     23  C   UNL     1      -3.333  -2.672   1.164  0.00  0.00    +0.217 C 
ATOM     24  O   UNL     1      -2.760  -2.416   2.202  0.00  0.00    -0.275 OA
ATOM     25  H   UNL     1      -3.138  -2.775  -0.840  0.00  0.00    +0.150 HD
BRANCH  22  26
ATOM     26  C   UNL     1      -1.276  -2.150  -0.033  0.00  0.00    +0.186 C 
BRANCH  26  27
ATOM     27  C   UNL     1      -1.202  -0.645  -0.026  0.00  0.00    +0.328 C 
ATOM     28  O   UNL     1      -2.217   0.010  -0.005  0.00  0.00    -0.249 OA
BRANCH  27  30
ATOM     29  C   UNL     1      -0.013   1.397  -0.037  0.00  0.00    +0.280 C 
ATOM     30  O   UNL     1      -0.008  -0.032  -0.045  0.00  0.00    -0.467 OA
ENDBRANCH  27  30
ENDBRANCH  26  27
BRANCH  26  31
ATOM     31  C   UNL     1      -0.604  -2.688  -1.297  0.00  0.00    +0.071 C 
BRANCH  31  32
ATOM     32  C   UNL     1      -0.568  -4.194  -1.245  0.00  0.00    -0.020 A 
ATOM     33  C   UNL     1      -1.637  -5.106  -1.661  0.00  0.00    +0.003 A 
ATOM     34  C   UNL     1      -2.916  -4.924  -2.189  0.00  0.00    +0.010 A 
ATOM     35  C   UNL     1      -3.691  -6.012  -2.480  0.00  0.00    +0.001 A 
ATOM     36  C   UNL     1      -3.216  -7.296  -2.253  0.00  0.00    +0.002 A 
ATOM     37  C   UNL     1      -1.957  -7.498  -1.732  0.00  0.00    +0.026 A 
ATOM     38  C   UNL     1      -1.151  -6.405  -1.429  0.00  0.00    +0.047 A 
ATOM     39  N   UNL     1       0.118  -6.278  -0.912  0.00  0.00    -0.360 N 
ATOM     40  C   UNL     1       0.451  -4.955  -0.815  0.00  0.00    +0.087 A 
ATOM     41  H   UNL     1       0.693  -7.017  -0.658  0.00  0.00    +0.165 HD
ENDBRANCH  31  32
ENDBRANCH  26  31
ENDBRANCH  22  26
ENDBRANCH   1  23
TORSDOF 7
