REMARK  Name = ZINC13550768
REMARK  9 active torsions:
REMARK  status: ('A' for Active; 'I' for Inactive)
REMARK    1  A    between atoms: C_1  and  C_2
REMARK    2  A    between atoms: C_7  and  O_10
REMARK    3  A    between atoms: O_10  and  C_11
REMARK    4  A    between atoms: C_11  and  C_13
REMARK    5  A    between atoms: C_14  and  C_31
REMARK    6  A    between atoms: C_19  and  C_21
REMARK    7  A    between atoms: C_23  and  O_29
REMARK    8  A    between atoms: C_24  and  O_28
REMARK    9  A    between atoms: O_29  and  C_30
REMARK                            x       y       z     vdW  Elec       q    Type
REMARK                         _______ _______ _______ _____ _____    ______ ____
ROOT
ATOM      1  C   UNL     1       1.461   2.123  -0.757  0.00  0.00    +0.078 C 
ATOM      2  C   UNL     1       0.865   0.943  -1.036  0.00  0.00    +0.021 C 
ATOM      3  N   UNL     1      -0.464   0.880  -1.345  0.00  0.00    -0.273 N 
ATOM      4  C   UNL     1      -1.264   1.952  -1.400  0.00  0.00    +0.304 C 
ATOM      5  O   UNL     1      -2.435   1.796  -1.688  0.00  0.00    -0.252 OA
ATOM      6  N   UNL     1      -0.816   3.196  -1.141  0.00  0.00    -0.288 N 
ATOM      7  C   UNL     1       0.605   3.372  -0.798  0.00  0.00    +0.144 C 
ATOM      8  C   UNL     1       1.680  -0.324  -1.006  0.00  0.00    +0.061 C 
ATOM      9  H   UNL     1      -0.848   0.011  -1.538  0.00  0.00    +0.156 HD
ATOM     10  H   UNL     1      -1.415   3.958  -1.184  0.00  0.00    +0.151 HD
ENDROOT
BRANCH   7  11
ATOM     11  C   UNL     1       0.677   4.029   0.556  0.00  0.00    -0.018 A 
ATOM     12  C   UNL     1       0.010   3.470   1.631  0.00  0.00    +0.055 A 
ATOM     13  C   UNL     1       0.076   4.072   2.877  0.00  0.00    +0.163 A 
ATOM     14  C   UNL     1       0.814   5.240   3.044  0.00  0.00    +0.173 A 
ATOM     15  C   UNL     1       1.480   5.796   1.963  0.00  0.00    +0.063 A 
ATOM     16  C   UNL     1       1.414   5.186   0.722  0.00  0.00    +0.025 A 
ATOM     17 BR   UNL     1       2.484   7.383   2.185  0.00  0.00    -0.046 Br
BRANCH  14  18
ATOM     18  O   UNL     1       0.881   5.835   4.265  0.00  0.00    -0.503 OA
ATOM     19  H   UNL     1       1.616   5.528   4.812  0.00  0.00    +0.292 HD
ENDBRANCH  14  18
BRANCH  13  20
ATOM     20  O   UNL     1      -0.579   3.523   3.934  0.00  0.00    -0.491 OA
ATOM     21  C   UNL     1      -1.223   2.266   3.717  0.00  0.00    +0.277 C 
ENDBRANCH  13  20
ENDBRANCH   7  11
BRANCH   1  22
ATOM     22  C   UNL     1       2.837   2.189  -0.438  0.00  0.00    +0.339 C 
ATOM     23  O   UNL     1       3.486   1.166  -0.324  0.00  0.00    -0.245 OA
BRANCH  22  24
ATOM     24  O   UNL     1       3.431   3.388  -0.259  0.00  0.00    -0.458 OA
BRANCH  24  30
ATOM     25  C   UNL     1       7.117   5.889   1.817  0.00  0.00    +0.007 C 
ATOM     26  C   UNL     1       6.732   4.635   1.030  0.00  0.00    -0.011 C 
ATOM     27  C   UNL     1       7.480   4.620  -0.304  0.00  0.00    +0.003 C 
ATOM     28  C   UNL     1       7.095   3.366  -1.091  0.00  0.00    +0.004 C 
ATOM     29  C   UNL     1       5.587   3.370  -1.351  0.00  0.00    +0.045 C 
ATOM     30  C   UNL     1       4.840   3.384  -0.016  0.00  0.00    +0.177 C 
ATOM     31  C   UNL     1       5.225   4.638   0.770  0.00  0.00    +0.048 C 
ENDBRANCH  24  30
ENDBRANCH  22  24
ENDBRANCH   1  22
TORSDOF 6
