REMARK  Name = ZINC39946886
REMARK  12 active torsions:
REMARK  status: ('A' for Active; 'I' for Inactive)
REMARK    1  A    between atoms: C_1  and  C_2
REMARK    2  A    between atoms: C_2  and  C_3
REMARK    3  A    between atoms: C_2  and  C_33
REMARK    4  A    between atoms: C_2  and  O_37
REMARK    5  A    between atoms: C_9  and  O_31
REMARK    6  A    between atoms: N_15  and  C_27
REMARK    7  A    between atoms: C_22  and  O_25
REMARK    8  A    between atoms: C_27  and  C_28
REMARK    9  A    between atoms: O_31  and  C_32
REMARK   10  A    between atoms: C_33  and  C_34
REMARK   11  A    between atoms: C_33  and  C_35
REMARK   12  A    between atoms: C_33  and  C_36
REMARK                            x       y       z     vdW  Elec       q    Type
REMARK                         _______ _______ _______ _____ _____    ______ ____
ROOT
ATOM      1  C   UNL     1       0.472  -0.441   1.148  0.00  0.00    +0.057 C 
ATOM      2  C   UNL     1       2.004  -0.392   0.959  0.00  0.00    +0.015 C 
ATOM      3  C   UNL     1       2.638  -0.143   2.341  0.00  0.00    -0.027 C 
ATOM      4  C   UNL     1       2.388   1.320   2.678  0.00  0.00    +0.009 C 
ATOM      5  C   UNL     1       0.964   1.696   2.206  0.00  0.00    +0.039 C 
ATOM      6  C   UNL     1       0.063   0.420   2.362  0.00  0.00    +0.112 C 
ATOM      7  C   UNL     1       0.562  -0.161   3.647  0.00  0.00    +0.217 C 
ATOM      8  C   UNL     1       1.792  -1.004   3.283  0.00  0.00    +0.042 C 
ATOM      9  C   UNL     1       1.696  -2.420   2.793  0.00  0.00    -0.003 C 
ATOM     10  C   UNL     1       3.142  -2.966   2.807  0.00  0.00    -0.077 C 
ATOM     11  N   UNL     1       4.052  -2.090   2.072  0.00  0.00    +0.382 N 
ATOM     12  C   UNL     1       4.036  -0.686   2.510  0.00  0.00    -0.057 C 
ATOM     13  C   UNL     1       4.618  -0.551   3.918  0.00  0.00    +0.021 C 
ATOM     14  C   UNL     1       3.653  -0.850   5.020  0.00  0.00    -0.041 A 
ATOM     15  C   UNL     1       2.338  -1.015   4.676  0.00  0.00    +0.011 A 
ATOM     16  C   UNL     1       1.209  -1.086   5.499  0.00  0.00    +0.166 A 
ATOM     17  C   UNL     1       1.472  -1.190   6.859  0.00  0.00    +0.159 A 
ATOM     18  C   UNL     1       2.816  -1.150   7.243  0.00  0.00    +0.049 A 
ATOM     19  C   UNL     1       3.886  -0.971   6.374  0.00  0.00    +0.007 A 
ATOM     20  O   UNL     1       0.076  -0.938   4.714  0.00  0.00    -0.481 OA
ATOM     21  H   UNL     1       3.807  -2.123   1.094  0.00  0.00    -0.081 HD
ENDROOT
BRANCH   1  23
ATOM     22  C   UNL     1       0.314   1.500  -0.416  0.00  0.00    +0.042 C 
ATOM     23  C   UNL     1      -0.212   0.097  -0.110  0.00  0.00    +0.074 C 
BRANCH  23  24
ATOM     24  C   UNL     1       0.089  -0.830  -1.290  0.00  0.00    -0.009 C 
ATOM     25  C   UNL     1       1.556  -0.678  -1.696  0.00  0.00    +0.013 C 
ATOM     26  C   UNL     1      -0.180  -2.279  -0.882  0.00  0.00    +0.013 C 
ATOM     27  C   UNL     1      -0.808  -0.457  -2.472  0.00  0.00    +0.013 C 
ENDBRANCH  23  24
BRANCH  23  28
ATOM     28  O   UNL     1      -1.624   0.153   0.103  0.00  0.00    -0.388 OA
ATOM     29  H   UNL     1      -2.026  -0.704   0.302  0.00  0.00    +0.210 HD
ENDBRANCH  23  28
ENDBRANCH   1  23
BRANCH  17  30
ATOM     30  O   UNL     1       0.473  -1.324   7.771  0.00  0.00    -0.503 OA
ATOM     31  H   UNL     1       0.231  -2.241   7.958  0.00  0.00    +0.292 HD
ENDBRANCH  17  30
BRANCH   6  32
ATOM     32  O   UNL     1      -1.334   0.722   2.380  0.00  0.00    -0.373 OA
ATOM     33  C   UNL     1      -1.743   1.519   3.493  0.00  0.00    +0.194 C 
ENDBRANCH   6  32
BRANCH  11  34
ATOM     34  C   UNL     1       5.418  -2.609   2.222  0.00  0.00    -0.075 C 
BRANCH  34  35
ATOM     35  C   UNL     1       5.536  -3.952   1.499  0.00  0.00    -0.028 C 
ATOM     36  C   UNL     1       5.839  -5.188   2.349  0.00  0.00    +0.002 C 
ATOM     37  C   UNL     1       6.920  -4.603   1.438  0.00  0.00    +0.002 C 
ENDBRANCH  34  35
ENDBRANCH  11  34
TORSDOF 7
