REMARK  Name = ZINC39363081
REMARK  9 active torsions:
REMARK  status: ('A' for Active; 'I' for Inactive)
REMARK    1  A    between atoms: C_1  and  O_2
REMARK    2  A    between atoms: O_2  and  C_3
REMARK    3  A    between atoms: C_8  and  N_9
REMARK    4  A    between atoms: C_10  and  C_12
REMARK    5  A    between atoms: C_12  and  S_13
REMARK    6  A    between atoms: S_13  and  C_14
REMARK    7  A    between atoms: C_17  and  C_27
REMARK    8  A    between atoms: N_19  and  C_20
REMARK    9  A    between atoms: C_27  and  C_28
REMARK                            x       y       z     vdW  Elec       q    Type
REMARK                         _______ _______ _______ _____ _____    ______ ____
ROOT
ATOM      1  C   UNL     1      -1.386  -7.534   1.657  0.00  0.00    +0.180 C 
ATOM      2  N   UNL     1      -1.954  -6.933   2.647  0.00  0.00    -0.162 NA
ATOM      3  N   UNL     1      -2.564  -7.843   3.519  0.00  0.00    -0.246 N 
ATOM      4  C   UNL     1      -2.315  -9.181   2.955  0.00  0.00    +0.187 C 
ATOM      5  N   UNL     1      -1.542  -8.911   1.731  0.00  0.00    -0.258 N 
ATOM      6  H   UNL     1      -3.051  -7.635   4.331  0.00  0.00    +0.170 HD
ENDROOT
BRANCH   5   7
ATOM      7  C   UNL     1      -1.058  -9.856   0.822  0.00  0.00    +0.038 A 
ATOM      8  C   UNL     1      -1.944 -10.620   0.074  0.00  0.00    +0.025 A 
ATOM      9  C   UNL     1      -1.463 -11.553  -0.823  0.00  0.00    +0.022 A 
ATOM     10  C   UNL     1      -0.099 -11.728  -0.977  0.00  0.00    +0.041 A 
ATOM     11  C   UNL     1       0.787 -10.968  -0.233  0.00  0.00    +0.022 A 
ATOM     12  C   UNL     1       0.311 -10.029   0.661  0.00  0.00    +0.025 A 
ATOM     13 CL   UNL     1       0.502 -12.903  -2.105  0.00  0.00    -0.084 Cl
ENDBRANCH   5   7
BRANCH   1  14
ATOM     14  S   UNL     1      -0.522  -6.706   0.364  0.00  0.00    -0.079 S 
BRANCH  14  15
ATOM     15  C   UNL     1      -0.652  -4.950   0.803  0.00  0.00    +0.173 C 
BRANCH  15  17
ATOM     16  N   UNL     1       0.089  -2.777  -0.116  0.00  0.00    -0.282 N 
ATOM     17  C   UNL     1       0.056  -4.119  -0.235  0.00  0.00    +0.228 C 
ATOM     18  O   UNL     1       0.594  -4.657  -1.179  0.00  0.00    -0.275 OA
ATOM     19  H   UNL     1      -0.270  -2.352   0.678  0.00  0.00    +0.155 HD
BRANCH  16  25
ATOM     20  C   UNL     1       1.151  -0.730  -0.854  0.00  0.00    +0.141 A 
ATOM     21  C   UNL     1       1.704   0.035  -1.868  0.00  0.00    +0.047 A 
ATOM     22  C   UNL     1       1.747  -0.455  -3.159  0.00  0.00    +0.004 A 
ATOM     23  C   UNL     1       1.239  -1.710  -3.444  0.00  0.00    +0.002 A 
ATOM     24  C   UNL     1       0.687  -2.480  -2.438  0.00  0.00    +0.027 A 
ATOM     25  C   UNL     1       0.645  -1.996  -1.138  0.00  0.00    +0.076 A 
BRANCH  20  27
ATOM     26  C   UNL     1       1.647   1.057   0.635  0.00  0.00    +0.277 C 
ATOM     27  O   UNL     1       1.109  -0.249   0.417  0.00  0.00    -0.493 OA
ENDBRANCH  20  27
ENDBRANCH  16  25
ENDBRANCH  15  17
ENDBRANCH  14  15
ENDBRANCH   1  14
BRANCH   4  28
ATOM     28  C   UNL     1      -1.505 -10.034   3.933  0.00  0.00    +0.097 C 
BRANCH  28  29
ATOM     29  C   UNL     1      -2.333 -10.315   5.160  0.00  0.00    +0.029 A 
ATOM     30  N   UNL     1      -2.375  -9.408   6.184  0.00  0.00    -0.311 N 
ATOM     31  C   UNL     1      -3.112  -9.648   7.283  0.00  0.00    +0.327 A 
ATOM     32  O   UNL     1      -3.135  -8.829   8.181  0.00  0.00    -0.247 OA
ATOM     33  N   UNL     1      -3.825 -10.784   7.403  0.00  0.00    -0.275 N 
ATOM     34  C   UNL     1      -3.810 -11.703   6.417  0.00  0.00    +0.254 A 
ATOM     35  O   UNL     1      -4.455 -12.730   6.525  0.00  0.00    -0.268 OA
ATOM     36  C   UNL     1      -3.042 -11.460   5.253  0.00  0.00    +0.091 A 
ATOM     37  H   UNL     1      -4.351 -10.941   8.203  0.00  0.00    +0.173 HD
ATOM     38  H   UNL     1      -1.868  -8.583   6.116  0.00  0.00    +0.170 HD
ENDBRANCH  28  29
ENDBRANCH   4  28
TORSDOF 8
