REMARK  Name = ZINC02944456
REMARK  9 active torsions:
REMARK  status: ('A' for Active; 'I' for Inactive)
REMARK    1  A    between atoms: C_1  and  N_49
REMARK    2  A    between atoms: C_2  and  N_49
REMARK    3  A    between atoms: C_8  and  O_25
REMARK    4  A    between atoms: C_9  and  O_23
REMARK    5  A    between atoms: C_10  and  O_21
REMARK    6  A    between atoms: C_17  and  N_20
REMARK    7  A    between atoms: O_21  and  C_22
REMARK    8  A    between atoms: O_23  and  C_24
REMARK    9  A    between atoms: O_25  and  C_26
REMARK                            x       y       z     vdW  Elec       q    Type
REMARK                         _______ _______ _______ _____ _____    ______ ____
ROOT
ATOM      1  C   UNL     1       0.453  -0.975  -1.327  0.00  0.00    -0.040 C 
ATOM      2  C   UNL     1       1.059  -2.355  -1.175  0.00  0.00    -0.007 C 
ATOM      3  C   UNL     1       1.561  -2.886  -2.515  0.00  0.00    +0.035 C 
ATOM      4  C   UNL     1       2.308  -1.800  -3.245  0.00  0.00    -0.033 A 
ATOM      5  C   UNL     1       3.687  -1.821  -3.298  0.00  0.00    +0.054 A 
ATOM      6  C   UNL     1       4.372  -0.825  -3.982  0.00  0.00    +0.165 A 
ATOM      7  C   UNL     1       3.675   0.198  -4.616  0.00  0.00    +0.204 A 
ATOM      8  C   UNL     1       2.288   0.228  -4.563  0.00  0.00    +0.173 A 
ATOM      9  C   UNL     1       1.604  -0.775  -3.868  0.00  0.00    +0.031 A 
ATOM     10  C   UNL     1       0.114  -0.736  -3.792  0.00  0.00    -0.012 A 
ATOM     11  C   UNL     1      -0.463  -0.894  -2.532  0.00  0.00    -0.050 A 
ATOM     12  C   UNL     1      -1.782  -0.980  -2.286  0.00  0.00    +0.055 A 
ATOM     13  C   UNL     1      -2.883  -0.919  -3.091  0.00  0.00    +0.200 A 
ATOM     14  O   UNL     1      -3.957  -1.119  -2.539  0.00  0.00    -0.286 OA
ATOM     15  C   UNL     1      -2.944  -0.659  -4.458  0.00  0.00    +0.072 A 
ATOM     16  C   UNL     1      -1.868  -0.489  -5.278  0.00  0.00    +0.027 A 
ATOM     17  C   UNL     1      -0.560  -0.541  -4.971  0.00  0.00    +0.011 A 
ENDROOT
BRANCH   1  19
ATOM     18  C   UNL     1      -0.399   0.799   0.084  0.00  0.00    -0.100 C 
ATOM     19  N   UNL     1      -0.322  -0.661  -0.112  0.00  0.00    +0.382 N 
ATOM     20  H   UNL     1      -1.271  -1.041  -0.207  0.00  0.00    -0.085 HD
ATOM     21  H   UNL     1       0.137  -1.088   0.702  0.00  0.00    -0.085 HD
ENDBRANCH   1  19
BRANCH  15  22
ATOM     22  N   UNL     1      -4.201  -0.565  -5.031  0.00  0.00    -0.355 N 
ATOM     23  H   UNL     1      -4.289  -0.385  -5.980  0.00  0.00    +0.142 HD
ATOM     24  H   UNL     1      -4.993  -0.680  -4.483  0.00  0.00    +0.142 HD
ENDBRANCH  15  22
BRANCH   8  25
ATOM     25  O   UNL     1       1.600   1.225  -5.180  0.00  0.00    -0.491 OA
ATOM     26  C   UNL     1       1.418   2.438  -4.447  0.00  0.00    +0.277 C 
ENDBRANCH   8  25
BRANCH   7  27
ATOM     27  O   UNL     1       4.352   1.168  -5.289  0.00  0.00    -0.488 OA
ATOM     28  C   UNL     1       4.623   0.930  -6.672  0.00  0.00    +0.277 C 
ENDBRANCH   7  27
BRANCH   6  29
ATOM     29  O   UNL     1       5.730  -0.850  -4.030  0.00  0.00    -0.491 OA
ATOM     30  C   UNL     1       6.384  -1.928  -3.358  0.00  0.00    +0.277 C 
ENDBRANCH   6  29
TORSDOF 5
