REMARK  Name = ZINC20680246
REMARK  7 active torsions:
REMARK  status: ('A' for Active; 'I' for Inactive)
REMARK    1  A    between atoms: C_1  and  C_2
REMARK    2  A    between atoms: C_7  and  C_8
REMARK    3  A    between atoms: C_8  and  S_9
REMARK    4  A    between atoms: S_9  and  C_12
REMARK    5  A    between atoms: C_12  and  C_13
REMARK    6  A    between atoms: C_20  and  C_25
REMARK    7  A    between atoms: N_27  and  C_28
REMARK                            x       y       z     vdW  Elec       q    Type
REMARK                         _______ _______ _______ _____ _____    ______ ____
ROOT
ATOM      1  C   UNL     1      -9.960  -3.905   2.495  0.00  0.00    +0.178 C 
ATOM      2  C   UNL     1      -9.245  -4.627   1.380  0.00  0.00    +0.239 C 
ATOM      3  O   UNL     1      -9.661  -5.699   0.995  0.00  0.00    -0.273 OA
ATOM      4  N   UNL     1      -8.150  -4.093   0.809  0.00  0.00    -0.282 N 
ATOM      5  C   UNL     1      -7.731  -2.797   1.136  0.00  0.00    +0.055 A 
ATOM      6  C   UNL     1      -6.503  -2.329   0.709  0.00  0.00    +0.038 A 
ATOM      7  C   UNL     1      -6.091  -1.040   1.060  0.00  0.00    +0.039 A 
ATOM      8  C   UNL     1      -6.925  -0.225   1.830  0.00  0.00    +0.015 A 
ATOM      9  C   UNL     1      -8.153  -0.691   2.245  0.00  0.00    +0.025 A 
ATOM     10  C   UNL     1      -8.561  -1.972   1.901  0.00  0.00    +0.049 A 
ATOM     11  N   UNL     1      -9.807  -2.456   2.303  0.00  0.00    -0.330 N 
ATOM     12  H   UNL     1      -7.572  -4.675   0.076  0.00  0.00    +0.155 HD
ATOM     13  H   UNL     1     -10.662  -1.785   2.476  0.00  0.00    +0.147 HD
ENDROOT
BRANCH   7  14
ATOM     14  C   UNL     1      -4.777  -0.539   0.613  0.00  0.00    +0.244 C 
ATOM     15  O   UNL     1      -4.052  -1.249  -0.057  0.00  0.00    -0.270 OA
ATOM     16  N   UNL     1      -4.382   0.705   0.947  0.00  0.00    -0.308 N 
ATOM     17  H   UNL     1      -5.038   1.347   1.553  0.00  0.00    +0.149 HD
BRANCH  16  18
ATOM     18  C   UNL     1      -3.078   1.203   0.503  0.00  0.00    +0.073 C 
ATOM     19  C   UNL     1      -1.998   0.753   1.488  0.00  0.00    +0.022 C 
ATOM     20  C   UNL     1      -0.729   1.579   1.267  0.00  0.00    +0.002 C 
ATOM     21  C   UNL     1      -0.013   1.086   0.008  0.00  0.00    +0.000 C 
ATOM     22  C   UNL     1      -0.753   1.593  -1.231  0.00  0.00    +0.000 C 
ATOM     23  C   UNL     1      -1.125   3.064  -1.038  0.00  0.00    +0.000 C 
ATOM     24  C   UNL     1      -2.646   3.197  -0.940  0.00  0.00    +0.002 C 
ATOM     25  C   UNL     1      -3.109   2.732   0.442  0.00  0.00    +0.022 C 
ENDBRANCH  16  18
ENDBRANCH   7  14
BRANCH   1  26
ATOM     26  C   UNL     1      -9.353  -4.311   3.839  0.00  0.00    +0.198 C 
BRANCH  26  27
ATOM     27  S   UNL     1     -10.300  -3.547   5.185  0.00  0.00    -0.025 S 
ATOM     28  O   UNL     1     -10.139  -2.138   5.104  0.00  0.00    -0.174 OA
ATOM     29  O   UNL     1     -11.611  -4.095   5.179  0.00  0.00    -0.174 OA
BRANCH  27  30
ATOM     30  C   UNL     1      -9.438  -4.139   6.667  0.00  0.00    +0.201 C 
BRANCH  30  37
ATOM     31  C   UNL     1      -8.574  -1.615   7.776  0.00  0.00    +0.044 C 
ATOM     32  C   UNL     1      -9.699  -2.377   8.426  0.00  0.00    -0.046 A 
ATOM     33  C   UNL     1     -10.321  -1.867   9.550  0.00  0.00    +0.003 A 
ATOM     34  C   UNL     1     -11.350  -2.569  10.149  0.00  0.00    +0.000 A 
ATOM     35  C   UNL     1     -11.761  -3.779   9.622  0.00  0.00    +0.000 A 
ATOM     36  C   UNL     1     -11.142  -4.287   8.495  0.00  0.00    +0.005 A 
ATOM     37  C   UNL     1     -10.113  -3.585   7.896  0.00  0.00    -0.024 A 
ENDBRANCH  30  37
ENDBRANCH  27  30
ENDBRANCH  26  27
ENDBRANCH   1  26
TORSDOF 6
