REMARK  Name = ZINC40839973
REMARK  7 active torsions:
REMARK  status: ('A' for Active; 'I' for Inactive)
REMARK    1  A    between atoms: C_1  and  O_2
REMARK    2  A    between atoms: O_2  and  C_3
REMARK    3  A    between atoms: C_8  and  C_9
REMARK    4  A    between atoms: N_11  and  C_12
REMARK    5  A    between atoms: C_12  and  C_14
REMARK    6  A    between atoms: C_12  and  C_20
REMARK    7  A    between atoms: C_29  and  O_30
REMARK                            x       y       z     vdW  Elec       q    Type
REMARK                         _______ _______ _______ _____ _____    ______ ____
ROOT
ATOM      1  C   UNL     1      -3.390   0.845   2.916  0.00  0.00    +0.138 C 
ENDROOT
BRANCH   1   2
ATOM      2  C   UNL     1      -3.563   2.338   3.014  0.00  0.00    +0.026 A 
ATOM      3  C   UNL     1      -4.613   2.974   2.332  0.00  0.00    -0.009 A 
ATOM      4  C   UNL     1      -5.522   2.242   1.548  0.00  0.00    +0.009 A 
ATOM      5  C   UNL     1      -6.529   2.891   0.901  0.00  0.00    +0.001 A 
ATOM      6  C   UNL     1      -6.673   4.273   1.003  0.00  0.00    +0.001 A 
ATOM      7  C   UNL     1      -5.812   5.015   1.753  0.00  0.00    +0.008 A 
ATOM      8  C   UNL     1      -4.761   4.380   2.436  0.00  0.00    -0.017 A 
ATOM      9  C   UNL     1      -3.853   5.114   3.219  0.00  0.00    +0.012 A 
ATOM     10  C   UNL     1      -2.846   4.469   3.867  0.00  0.00    +0.046 A 
ATOM     11  C   UNL     1      -2.702   3.081   3.770  0.00  0.00    +0.123 A 
BRANCH  11  12
ATOM     12  O   UNL     1      -1.690   2.464   4.434  0.00  0.00    -0.506 OA
ATOM     13  H   UNL     1      -0.846   2.473   3.961  0.00  0.00    +0.292 HD
ENDBRANCH  11  12
ENDBRANCH   1   2
BRANCH   1  14
ATOM     14  C   UNL     1      -3.843   0.201   4.201  0.00  0.00    -0.023 A 
ATOM     15  C   UNL     1      -3.009   0.196   5.303  0.00  0.00    +0.006 A 
ATOM     16  C   UNL     1      -3.424  -0.394   6.482  0.00  0.00    +0.000 A 
ATOM     17  C   UNL     1      -4.675  -0.979   6.559  0.00  0.00    +0.000 A 
ATOM     18  C   UNL     1      -5.509  -0.973   5.457  0.00  0.00    +0.000 A 
ATOM     19  C   UNL     1      -5.096  -0.379   4.279  0.00  0.00    +0.006 A 
ENDBRANCH   1  14
BRANCH   1  22
ATOM     20  C   UNL     1      -1.629  -0.669   2.176  0.00  0.00    +0.250 C 
ATOM     21  O   UNL     1      -2.486  -1.490   1.911  0.00  0.00    -0.270 OA
ATOM     22  N   UNL     1      -1.978   0.530   2.683  0.00  0.00    -0.300 N 
ATOM     23  H   UNL     1      -1.294   1.185   2.895  0.00  0.00    +0.150 HD
BRANCH  20  29
ATOM     24  C   UNL     1       0.387  -0.686   0.710  0.00  0.00    +0.152 A 
ATOM     25  C   UNL     1       1.727  -0.983   0.502  0.00  0.00    +0.083 A 
ATOM     26  C   UNL     1       2.468  -1.576   1.506  0.00  0.00    +0.025 A 
ATOM     27  C   UNL     1       1.883  -1.878   2.725  0.00  0.00    +0.022 A 
ATOM     28  C   UNL     1       0.553  -1.590   2.948  0.00  0.00    +0.057 A 
ATOM     29  C   UNL     1      -0.208  -0.985   1.943  0.00  0.00    +0.098 A 
ATOM     30 CL   UNL     1      -0.174  -1.971   4.478  0.00  0.00    -0.083 Cl
ATOM     31 CL   UNL     1       2.472  -0.611  -1.021  0.00  0.00    -0.080 Cl
BRANCH  24  33
ATOM     32  C   UNL     1      -0.362   1.325  -0.310  0.00  0.00    +0.277 C 
ATOM     33  O   UNL     1      -0.342  -0.104  -0.276  0.00  0.00    -0.493 OA
ENDBRANCH  24  33
ENDBRANCH  20  29
ENDBRANCH   1  22
TORSDOF 6
