REMARK  Name = ZINC52813600
REMARK  5 active torsions:
REMARK  status: ('A' for Active; 'I' for Inactive)
REMARK    1  A    between atoms: C_1  and  C_2
REMARK    2  A    between atoms: C_4  and  N_16
REMARK    3  A    between atoms: C_7  and  N_8
REMARK    4  A    between atoms: C_9  and  C_15
REMARK    5  A    between atoms: C_11  and  C_13
REMARK                            x       y       z     vdW  Elec       q    Type
REMARK                         _______ _______ _______ _____ _____    ______ ____
ROOT
ATOM      1  C   UNL     1      -0.342   1.480   0.052  0.00  0.00    +0.047 C 
ATOM      2  C   UNL     1      -0.153  -0.015   0.022  0.00  0.00    -0.005 A 
ATOM      3  C   UNL     1      -0.252  -0.710  -1.171  0.00  0.00    +0.031 A 
ATOM      4  C   UNL     1      -0.071  -2.091  -1.151  0.00  0.00    +0.043 A 
ATOM      5  C   UNL     1       0.202  -2.720   0.057  0.00  0.00    +0.135 A 
ATOM      6  N   UNL     1       0.288  -2.025   1.174  0.00  0.00    -0.234 NA
ATOM      7  C   UNL     1       0.127  -0.712   1.190  0.00  0.00    +0.157 A 
ENDROOT
BRANCH   7   8
ATOM      8  N   UNL     1       0.236  -0.018   2.401  0.00  0.00    -0.217 N 
ATOM      9  C   UNL     1      -0.350  -0.363   3.577  0.00  0.00    +0.058 A 
ATOM     10  C   UNL     1       0.003   0.564   4.498  0.00  0.00    +0.062 A 
ATOM     11  C   UNL     1       0.827   1.505   3.869  0.00  0.00    +0.075 A 
ATOM     12  N   UNL     1       0.972   1.155   2.617  0.00  0.00    -0.169 NA
ATOM     13  C   UNL     1       1.447   2.712   4.525  0.00  0.00    +0.069 C 
ATOM     14 BR   UNL     1      -0.526   0.586   6.313  0.00  0.00    -0.047 Br
ATOM     15  C   UNL     1      -1.232  -1.562   3.814  0.00  0.00    +0.067 C 
ENDBRANCH   7   8
BRANCH   4  16
ATOM     16  N   UNL     1      -0.162  -2.834  -2.332  0.00  0.00    -0.357 N 
ATOM     17  H   UNL     1      -0.353  -2.389  -3.172  0.00  0.00    +0.142 HD
ATOM     18  H   UNL     1      -0.035  -3.796  -2.311  0.00  0.00    +0.142 HD
ENDBRANCH   4  16
TORSDOF 2
