REMARK  Name = ZINC15962372
REMARK  13 active torsions:
REMARK  status: ('A' for Active; 'I' for Inactive)
REMARK    1  A    between atoms: C_1  and  C_2
REMARK    2  A    between atoms: C_2  and  O_3
REMARK    3  A    between atoms: O_3  and  C_4
REMARK    4  A    between atoms: C_4  and  C_6
REMARK    5  A    between atoms: C_10  and  N_11
REMARK    6  A    between atoms: C_12  and  C_14
REMARK    7  A    between atoms: C_14  and  C_15
REMARK    8  A    between atoms: C_20  and  O_21
REMARK    9  A    between atoms: O_21  and  C_22
REMARK   10  A    between atoms: C_23  and  C_28
REMARK   11  A    between atoms: C_23  and  C_29
REMARK   12  A    between atoms: C_24  and  C_26
REMARK   13  A    between atoms: C_24  and  C_27
REMARK                            x       y       z     vdW  Elec       q    Type
REMARK                         _______ _______ _______ _____ _____    ______ ____
ROOT
ATOM      1  C   UNL     1      -3.985   0.944  -0.589  0.00  0.00    +0.091 A 
ATOM      2  C   UNL     1      -2.925   1.592   0.154  0.00  0.00    -0.024 A 
ATOM      3  C   UNL     1      -2.625   2.853  -0.235  0.00  0.00    -0.016 A 
ATOM      4  S   UNL     1      -3.723   3.177  -1.584  0.00  0.00    -0.079 S 
ATOM      5  C   UNL     1      -4.573   1.667  -1.622  0.00  0.00    +0.086 A 
ATOM      6  C   UNL     1      -1.588   3.745   0.365  0.00  0.00    -0.041 C 
ATOM      7  C   UNL     1      -0.730   1.580   1.268  0.00  0.00    -0.069 C 
ATOM      8  C   UNL     1      -2.143   0.985   1.311  0.00  0.00    +0.024 C 
ATOM      9  C   UNL     1      -0.013   1.086   0.008  0.00  0.00    -0.010 C 
ATOM     10  C   UNL     1       0.043   1.050   2.490  0.00  0.00    -0.010 C 
ATOM     11  C   UNL     1      -2.303   4.901   1.090  0.00  0.00    -0.005 C 
ATOM     12  C   UNL     1      -0.726   4.348  -0.753  0.00  0.00    -0.005 C 
ATOM     13  N   UNL     1      -0.715   3.062   1.364  0.00  0.00    +0.389 N 
ATOM     14  H   UNL     1      -1.032   3.328   2.304  0.00  0.00    -0.084 HD
ATOM     15  H   UNL     1       0.249   3.385   1.223  0.00  0.00    -0.084 HD
ENDROOT
BRANCH   5  16
ATOM     16  N   UNL     1      -5.593   1.274  -2.474  0.00  0.00    -0.279 N 
ATOM     17  C   UNL     1      -6.040   2.118  -3.425  0.00  0.00    +0.222 C 
ATOM     18  O   UNL     1      -5.548   3.221  -3.537  0.00  0.00    -0.275 OA
ATOM     19  H   UNL     1      -5.986   0.392  -2.384  0.00  0.00    +0.155 HD
BRANCH  17  20
ATOM     20  C   UNL     1      -7.149   1.690  -4.351  0.00  0.00    +0.135 C 
BRANCH  20  21
ATOM     21  C   UNL     1      -7.458   2.807  -5.314  0.00  0.00    +0.003 A 
ATOM     22  C   UNL     1      -8.482   3.693  -5.040  0.00  0.00    +0.008 A 
ATOM     23  C   UNL     1      -8.763   4.720  -5.921  0.00  0.00    +0.001 A 
ATOM     24  C   UNL     1      -8.027   4.858  -7.084  0.00  0.00    +0.004 A 
ATOM     25  C   UNL     1      -7.006   3.972  -7.365  0.00  0.00    +0.046 A 
ATOM     26  C   UNL     1      -6.718   2.943  -6.480  0.00  0.00    +0.124 A 
BRANCH  26  27
ATOM     27  O   UNL     1      -5.714   2.070  -6.755  0.00  0.00    -0.495 OA
ATOM     28  C   UNL     1      -4.995   2.271  -7.973  0.00  0.00    +0.277 C 
ENDBRANCH  26  27
ENDBRANCH  20  21
ENDBRANCH  17  20
ENDBRANCH   5  16
BRANCH   1  29
ATOM     29  C   UNL     1      -4.430  -0.416  -0.277  0.00  0.00    +0.342 C 
ATOM     30  O   UNL     1      -5.324  -0.593   0.528  0.00  0.00    -0.245 OA
BRANCH  29  31
ATOM     31  O   UNL     1      -3.847  -1.471  -0.881  0.00  0.00    -0.461 OA
BRANCH  31  33
ATOM     32  C   UNL     1      -3.563  -3.853  -1.305  0.00  0.00    +0.048 C 
ATOM     33  C   UNL     1      -4.339  -2.790  -0.524  0.00  0.00    +0.229 C 
ENDBRANCH  31  33
ENDBRANCH  29  31
ENDBRANCH   1  29
TORSDOF 7
