REMARK  Name = ZINC05274694
REMARK  5 active torsions:
REMARK  status: ('A' for Active; 'I' for Inactive)
REMARK    1  A    between atoms: C_1  and  C_2
REMARK    2  A    between atoms: C_2  and  C_10
REMARK    3  A    between atoms: C_3  and  C_4
REMARK    4  A    between atoms: C_21  and  N_45
REMARK    5  A    between atoms: C_22  and  O_24
REMARK                            x       y       z     vdW  Elec       q    Type
REMARK                         _______ _______ _______ _____ _____    ______ ____
ROOT
ATOM      1  C   UNL     1       3.676   6.006  -0.377  0.00  0.00    +0.220 C 
ATOM      2  N   UNL     1       3.870   7.038   0.659  0.00  0.00    -0.313 N 
ATOM      3  C   UNL     1       3.224   8.232   0.460  0.00  0.00    +0.080 A 
ATOM      4  C   UNL     1       2.850   8.680  -0.815  0.00  0.00    +0.067 A 
ATOM      5  C   UNL     1       2.191   9.970  -0.862  0.00  0.00    -0.027 A 
ATOM      6  C   UNL     1       2.007  10.581   0.334  0.00  0.00    -0.021 A 
ATOM      7  S   UNL     1       2.701   9.466   1.524  0.00  0.00    -0.080 S 
ATOM      8  C   UNL     1       1.358  11.908   0.564  0.00  0.00    -0.036 C 
ATOM      9  C   UNL     1       0.701  11.731  -1.760  0.00  0.00    -0.074 C 
ATOM     10  C   UNL     1       1.711  10.646  -2.142  0.00  0.00    +0.018 C 
ATOM     11  C   UNL     1       0.488  13.848  -0.605  0.00  0.00    -0.096 C 
ATOM     12  C   UNL     1       3.181   7.801  -1.966  0.00  0.00    +0.220 C 
ATOM     13  N   UNL     1       3.598   6.592  -1.709  0.00  0.00    -0.223 NA
ATOM     14  H   UNL     1       4.425   6.881   1.439  0.00  0.00    +0.149 HD
ATOM     15  N   UNL     1       1.295  12.616  -0.738  0.00  0.00    +0.381 N 
ATOM     16  H   UNL     1       2.247  12.870  -1.027  0.00  0.00    -0.082 HD
ENDROOT
BRANCH   1  18
ATOM     17  C   UNL     1       1.083   5.994  -0.078  0.00  0.00    +0.043 C 
ATOM     18  C   UNL     1       2.398   5.259  -0.093  0.00  0.00    -0.030 C 
ATOM     19  C   UNL     1       2.432   3.955   0.143  0.00  0.00    +0.010 C 
BRANCH  19  20
ATOM     20  C   UNL     1       1.206   3.251   0.575  0.00  0.00    -0.025 A 
ATOM     21  C   UNL     1       0.942   1.959   0.118  0.00  0.00    +0.008 A 
ATOM     22  C   UNL     1      -0.203   1.307   0.526  0.00  0.00    +0.001 A 
ATOM     23  C   UNL     1      -1.091   1.933   1.382  0.00  0.00    +0.000 A 
ATOM     24  C   UNL     1      -0.833   3.211   1.843  0.00  0.00    +0.001 A 
ATOM     25  C   UNL     1       0.309   3.874   1.443  0.00  0.00    +0.008 A 
ENDBRANCH  19  20
ENDBRANCH   1  18
BRANCH  12  26
ATOM     26  O   UNL     1       3.053   8.240  -3.239  0.00  0.00    -0.492 OA
ATOM     27  H   UNL     1       3.295   7.585  -3.908  0.00  0.00    +0.294 HD
ENDBRANCH  12  26
TORSDOF 3
