REMARK  Name = ZINC39602537
REMARK  9 active torsions:
REMARK  status: ('A' for Active; 'I' for Inactive)
REMARK    1  A    between atoms: C_1  and  C_2
REMARK    2  A    between atoms: C_2  and  C_3
REMARK    3  A    between atoms: C_2  and  C_4
REMARK    4  A    between atoms: C_4  and  C_6
REMARK    5  A    between atoms: C_4  and  O_33
REMARK    6  A    between atoms: C_10  and  C_19
REMARK    7  A    between atoms: N_21  and  C_22
REMARK    8  A    between atoms: C_25  and  C_27
REMARK    9  A    between atoms: O_33  and  C_34
REMARK                            x       y       z     vdW  Elec       q    Type
REMARK                         _______ _______ _______ _____ _____    ______ ____
ROOT
ATOM      1  C   UNL     1      -1.816  -0.383  -1.505  0.00  0.00    +0.257 C 
ATOM      2  O   UNL     1      -2.195  -1.259  -2.252  0.00  0.00    -0.272 OA
ATOM      3  N   UNL     1      -1.789   0.897  -1.926  0.00  0.00    -0.297 N 
ATOM      4  C   UNL     1      -1.256   2.079  -1.207  0.00  0.00    +0.121 C 
ATOM      5  C   UNL     1      -0.559   2.919  -2.300  0.00  0.00    +0.100 C 
ATOM      6  C   UNL     1      -1.240   2.498  -3.613  0.00  0.00    -0.004 C 
ATOM      7  C   UNL     1      -2.281   1.440  -3.215  0.00  0.00    +0.115 C 
ATOM      8  C   UNL     1      -1.926   3.697  -4.261  0.00  0.00    -0.010 C 
ATOM      9  C   UNL     1      -2.546   3.266  -5.593  0.00  0.00    -0.082 C 
ATOM     10  N   UNL     1      -1.499   2.740  -6.476  0.00  0.00    +0.379 N 
ATOM     11  C   UNL     1      -0.908   1.532  -5.888  0.00  0.00    -0.082 C 
ATOM     12  C   UNL     1      -0.218   1.889  -4.568  0.00  0.00    -0.010 C 
ATOM     13  H   UNL     1      -1.899   2.513  -7.374  0.00  0.00    -0.086 HD
ATOM     14  H   UNL     1      -0.781   3.439  -6.598  0.00  0.00    -0.086 HD
ENDROOT
BRANCH   5  15
ATOM     15  C   UNL     1       0.914   2.602  -2.346  0.00  0.00    +0.218 C 
ATOM     16  O   UNL     1       1.301   1.480  -2.098  0.00  0.00    -0.275 OA
ATOM     17  N   UNL     1       1.801   3.566  -2.663  0.00  0.00    -0.312 N 
ATOM     18  H   UNL     1       1.491   4.464  -2.861  0.00  0.00    +0.149 HD
BRANCH  17  19
ATOM     19  C   UNL     1       3.232   3.258  -2.707  0.00  0.00    +0.081 C 
ATOM     20  C   UNL     1       4.038   3.812  -3.885  0.00  0.00    +0.033 C 
ATOM     21  C   UNL     1       4.211   4.414  -2.488  0.00  0.00    +0.041 C 
BRANCH  21  22
ATOM     22  C   UNL     1       5.492   4.112  -1.754  0.00  0.00    -0.042 A 
ATOM     23  C   UNL     1       6.379   3.183  -2.265  0.00  0.00    +0.004 A 
ATOM     24  C   UNL     1       7.554   2.906  -1.591  0.00  0.00    +0.000 A 
ATOM     25  C   UNL     1       7.841   3.558  -0.407  0.00  0.00    +0.000 A 
ATOM     26  C   UNL     1       6.955   4.488   0.104  0.00  0.00    +0.000 A 
ATOM     27  C   UNL     1       5.782   4.768  -0.572  0.00  0.00    +0.004 A 
ENDBRANCH  21  22
ENDBRANCH  17  19
ENDBRANCH   5  15
BRANCH   1  28
ATOM     28  C   UNL     1      -1.374  -0.725  -0.105  0.00  0.00    +0.261 C 
BRANCH  28  30
ATOM     29  C   UNL     1      -3.678  -1.426   0.563  0.00  0.00    +0.011 C 
ATOM     30  C   UNL     1      -2.525  -0.468   0.870  0.00  0.00    +0.033 C 
ATOM     31  C   UNL     1      -2.039  -0.697   2.303  0.00  0.00    +0.011 C 
ENDBRANCH  28  30
BRANCH  28  32
ATOM     32  O   UNL     1      -0.255   0.088   0.253  0.00  0.00    -0.479 OA
BRANCH  32  33
ATOM     33  C   UNL     1       0.726  -0.502   0.987  0.00  0.00    +0.122 A 
ATOM     34  C   UNL     1       0.634  -1.846   1.318  0.00  0.00    +0.045 A 
ATOM     35  C   UNL     1       1.632  -2.442   2.063  0.00  0.00    +0.004 A 
ATOM     36  C   UNL     1       2.722  -1.701   2.480  0.00  0.00    +0.000 A 
ATOM     37  C   UNL     1       2.816  -0.361   2.152  0.00  0.00    +0.004 A 
ATOM     38  C   UNL     1       1.823   0.239   1.402  0.00  0.00    +0.045 A 
ENDBRANCH  32  33
ENDBRANCH  28  32
ENDBRANCH   1  28
TORSDOF 7
