REMARK  Name = ZINC14304204
REMARK  10 active torsions:
REMARK  status: ('A' for Active; 'I' for Inactive)
REMARK    1  A    between atoms: C_1  and  C_2
REMARK    2  A    between atoms: C_2  and  C_3
REMARK    3  A    between atoms: C_3  and  C_4
REMARK    4  A    between atoms: C_4  and  C_5
REMARK    5  A    between atoms: C_5  and  C_7
REMARK    6  A    between atoms: C_5  and  N_20
REMARK    7  A    between atoms: N_9  and  N_10
REMARK    8  A    between atoms: C_11  and  C_13
REMARK    9  A    between atoms: C_15  and  C_19
REMARK   10  A    between atoms: C_17  and  C_18
REMARK                            x       y       z     vdW  Elec       q    Type
REMARK                         _______ _______ _______ _____ _____    ______ ____
ROOT
ATOM      1  C   UNL     1      -2.848  -2.593   0.015  0.00  0.00    +0.159 C 
ENDROOT
BRANCH   1   2
ATOM      2  N   UNL     1      -3.496  -2.221   1.275  0.00  0.00    -0.316 N 
ATOM      3  C   UNL     1      -4.091  -0.985   1.405  0.00  0.00    +0.150 C 
ATOM      4  N   UNL     1      -4.087  -0.149   0.417  0.00  0.00    -0.113 NA
ATOM      5  S   UNL     1      -4.895   1.210   0.964  0.00  0.00    +0.101 S 
ATOM      6  O   UNL     1      -3.950   2.267   1.059  0.00  0.00    -0.146 OA
ATOM      7  O   UNL     1      -6.113   1.311   0.239  0.00  0.00    -0.146 OA
ATOM      8  C   UNL     1      -5.288   0.688   2.611  0.00  0.00    +0.123 A 
ATOM      9  C   UNL     1      -4.745  -0.603   2.667  0.00  0.00    +0.043 A 
ATOM     10  C   UNL     1      -4.892  -1.314   3.868  0.00  0.00    +0.013 A 
ATOM     11  C   UNL     1      -5.552  -0.746   4.935  0.00  0.00    +0.001 A 
ATOM     12  C   UNL     1      -6.082   0.528   4.848  0.00  0.00    +0.002 A 
ATOM     13  C   UNL     1      -5.938   1.250   3.670  0.00  0.00    +0.030 A 
ATOM     14  H   UNL     1      -3.506  -2.845   2.018  0.00  0.00    +0.148 HD
ENDBRANCH   1   2
BRANCH   1  15
ATOM     15  C   UNL     1      -2.831  -4.094  -0.117  0.00  0.00    +0.249 C 
ATOM     16  O   UNL     1      -3.312  -4.785   0.756  0.00  0.00    -0.272 OA
ATOM     17  N   UNL     1      -2.280  -4.669  -1.204  0.00  0.00    -0.233 N 
ATOM     18  H   UNL     1      -1.895  -4.116  -1.902  0.00  0.00    +0.173 HD
BRANCH  17  19
ATOM     19  N   UNL     1      -2.264  -6.064  -1.327  0.00  0.00    -0.230 N 
ATOM     20  C   UNL     1      -1.713  -6.639  -2.415  0.00  0.00    +0.263 C 
ATOM     21  O   UNL     1      -1.230  -5.946  -3.290  0.00  0.00    -0.269 OA
ATOM     22  H   UNL     1      -2.649  -6.617  -0.629  0.00  0.00    +0.173 HD
BRANCH  20  23
ATOM     23  C   UNL     1      -1.696  -8.107  -2.544  0.00  0.00    +0.079 A 
ATOM     24  C   UNL     1      -2.236  -9.089  -1.593  0.00  0.00    +0.057 A 
ATOM     25  C   UNL     1      -1.993 -10.294  -2.130  0.00  0.00    +0.103 A 
ATOM     26  O   UNL     1      -1.363 -10.134  -3.304  0.00  0.00    -0.464 OA
ATOM     27  C   UNL     1      -1.181  -8.838  -3.574  0.00  0.00    +0.114 A 
ATOM     28  C   UNL     1      -0.516  -8.279  -4.806  0.00  0.00    +0.087 C 
ATOM     29  C   UNL     1      -2.367 -11.617  -1.512  0.00  0.00    +0.086 C 
ENDBRANCH  20  23
ENDBRANCH  17  19
ENDBRANCH   1  15
BRANCH   1  30
ATOM     30  C   UNL     1      -1.413  -2.063   0.004  0.00  0.00    +0.032 C 
BRANCH  30  31
ATOM     31  C   UNL     1      -1.433  -0.534   0.013  0.00  0.00    +0.002 C 
BRANCH  31  33
ATOM     32  C   UNL     1      -0.019   1.526   0.010  0.00  0.00    +0.004 C 
ATOM     33  C   UNL     1       0.002  -0.004   0.002  0.00  0.00    -0.003 C 
ENDBRANCH  31  33
ENDBRANCH  30  31
ENDBRANCH   1  30
TORSDOF 7
