REMARK  Name = ZINC66340431
REMARK  4 active torsions:
REMARK  status: ('A' for Active; 'I' for Inactive)
REMARK    1  A    between atoms: C_4  and  S_23
REMARK    2  A    between atoms: C_6  and  C_7
REMARK    3  A    between atoms: C_15  and  C_17
REMARK    4  A    between atoms: S_23  and  N_26
REMARK                            x       y       z     vdW  Elec       q    Type
REMARK                         _______ _______ _______ _____ _____    ______ ____
ROOT
ATOM      1  C   UNL     1      -1.482   0.148   1.760  0.00  0.00    +0.247 C 
ATOM      2  O   UNL     1      -1.412  -1.015   2.109  0.00  0.00    -0.270 OA
ATOM      3  N   UNL     1      -2.670   0.672   1.398  0.00  0.00    -0.295 N 
ATOM      4  C   UNL     1      -2.752   2.038   0.861  0.00  0.00    +0.127 C 
ATOM      5  C   UNL     1      -3.451   1.987  -0.503  0.00  0.00    +0.127 C 
ATOM      6  N   UNL     1      -4.687   1.203  -0.369  0.00  0.00    -0.298 N 
ATOM      7  C   UNL     1      -4.604  -0.163   0.167  0.00  0.00    +0.127 C 
ATOM      8  C   UNL     1      -3.905  -0.114   1.526  0.00  0.00    +0.127 C 
ATOM      9  C   UNL     1      -5.874   1.727  -0.731  0.00  0.00    +0.219 C 
ATOM     10  O   UNL     1      -5.921   2.822  -1.251  0.00  0.00    -0.275 OA
ENDROOT
BRANCH   1  16
ATOM     11  C   UNL     1      -0.323   2.317   2.147  0.00  0.00    +0.016 A 
ATOM     12  C   UNL     1       0.815   3.095   2.120  0.00  0.00    +0.041 A 
ATOM     13  C   UNL     1       2.015   2.557   1.681  0.00  0.00    +0.150 A 
ATOM     14  C   UNL     1       2.077   1.234   1.267  0.00  0.00    +0.141 A 
ATOM     15  C   UNL     1       0.945   0.448   1.290  0.00  0.00    +0.044 A 
ATOM     16  C   UNL     1      -0.266   0.986   1.732  0.00  0.00    +0.039 A 
ATOM     17  F   UNL     1       3.127   3.323   1.656  0.00  0.00    -0.203 F 
BRANCH  14  18
ATOM     18  S   UNL     1       3.606   0.558   0.710  0.00  0.00    +0.059 S 
ATOM     19  O   UNL     1       4.581   0.900   1.686  0.00  0.00    -0.153 OA
ATOM     20  O   UNL     1       3.343  -0.787   0.335  0.00  0.00    -0.153 OA
BRANCH  18  21
ATOM     21  N   UNL     1       4.021   1.363  -0.676  0.00  0.00    -0.203 NA
ATOM     22  H   UNL     1       3.445   2.063  -1.022  0.00  0.00    +0.144 HD
ATOM     23  H   UNL     1       4.840   1.135  -1.143  0.00  0.00    +0.144 HD
ENDBRANCH  18  21
ENDBRANCH  14  18
ENDBRANCH   1  16
BRANCH   9  24
ATOM     24  C   UNL     1      -7.145   0.953  -0.490  0.00  0.00    +0.075 C 
ATOM     25  C   UNL     1      -7.442   0.070  -1.704  0.00  0.00    +0.013 C 
ATOM     26  C   UNL     1      -8.731  -0.716  -1.460  0.00  0.00    +0.001 C 
ATOM     27  C   UNL     1      -9.890   0.259  -1.243  0.00  0.00    +0.000 C 
ATOM     28  C   UNL     1      -9.593   1.142  -0.029  0.00  0.00    +0.001 C 
ATOM     29  C   UNL     1      -8.303   1.928  -0.273  0.00  0.00    +0.013 C 
ENDBRANCH   9  24
TORSDOF 4
