REMARK  Name = ZINC13023323
REMARK  10 active torsions:
REMARK  status: ('A' for Active; 'I' for Inactive)
REMARK    1  A    between atoms: C_1  and  C_2
REMARK    2  A    between atoms: C_4  and  C_40
REMARK    3  A    between atoms: C_7  and  C_14
REMARK    4  A    between atoms: C_14  and  C_16
REMARK    5  A    between atoms: C_14  and  N_70
REMARK    6  A    between atoms: N_20  and  C_21
REMARK    7  A    between atoms: C_21  and  C_22
REMARK    8  A    between atoms: N_29  and  C_32
REMARK    9  A    between atoms: C_37  and  O_38
REMARK   10  A    between atoms: O_38  and  C_39
REMARK                            x       y       z     vdW  Elec       q    Type
REMARK                         _______ _______ _______ _____ _____    ______ ____
ROOT
ATOM      1  C   UNL     1       4.942  -2.785  -0.059  0.00  0.00    +0.039 C 
ENDROOT
BRANCH   1   8
ATOM      2  C   UNL     1      -2.070   0.845   1.072  0.00  0.00    +0.044 C 
ATOM      3  C   UNL     1      -0.772   0.079   1.076  0.00  0.00    -0.048 A 
ATOM      4  C   UNL     1      -0.385  -0.611   2.217  0.00  0.00    +0.007 A 
ATOM      5  C   UNL     1       0.790  -1.308   2.244  0.00  0.00    -0.041 A 
ATOM      6  C   UNL     1       1.612  -1.324   1.112  0.00  0.00    +0.002 A 
ATOM      7  C   UNL     1       2.878  -2.058   1.107  0.00  0.00    +0.018 A 
ATOM      8  C   UNL     1       3.634  -2.038  -0.019  0.00  0.00    +0.011 A 
ATOM      9  C   UNL     1       3.199  -1.322  -1.155  0.00  0.00    +0.251 A 
ATOM     10  O   UNL     1       3.893  -1.317  -2.156  0.00  0.00    -0.268 OA
ATOM     11  N   UNL     1       2.038  -0.644  -1.159  0.00  0.00    -0.322 N 
ATOM     12  H   UNL     1       1.768  -0.162  -1.956  0.00  0.00    +0.169 HD
ATOM     13  C   UNL     1       1.224  -0.625  -0.046  0.00  0.00    +0.050 A 
ATOM     14  C   UNL     1       0.022   0.077  -0.050  0.00  0.00    +0.029 A 
ATOM     15  C   UNL     1       1.199  -2.054   3.487  0.00  0.00    +0.044 C 
ENDBRANCH   1   8
BRANCH   1  21
ATOM     16  C   UNL     1       3.756  -4.702  -0.943  0.00  0.00    -0.058 C 
ATOM     17  C   UNL     1       3.700  -5.687  -2.113  0.00  0.00    +0.086 C 
ATOM     18  N   UNL     1       4.961  -6.439  -2.179  0.00  0.00    -0.331 N 
ATOM     19  C   UNL     1       6.103  -5.531  -2.360  0.00  0.00    +0.086 C 
ATOM     20  C   UNL     1       6.159  -4.547  -1.190  0.00  0.00    -0.058 C 
ATOM     21  N   UNL     1       4.895  -3.782  -1.149  0.00  0.00    +0.391 N 
ATOM     22  H   UNL     1       4.772  -3.293  -2.043  0.00  0.00    -0.080 HD
BRANCH  18  23
ATOM     23  C   UNL     1       4.919  -7.401  -3.194  0.00  0.00    +0.072 A 
ATOM     24  C   UNL     1       3.875  -7.403  -4.107  0.00  0.00    +0.027 A 
ATOM     25  C   UNL     1       3.838  -8.352  -5.112  0.00  0.00    +0.002 A 
ATOM     26  C   UNL     1       4.835  -9.306  -5.204  0.00  0.00    +0.004 A 
ATOM     27  C   UNL     1       5.876  -9.312  -4.294  0.00  0.00    +0.047 A 
ATOM     28  C   UNL     1       5.923  -8.363  -3.287  0.00  0.00    +0.141 A 
BRANCH  28  29
ATOM     29  O   UNL     1       6.946  -8.369  -2.391  0.00  0.00    -0.493 OA
ATOM     30  C   UNL     1       7.939  -9.384  -2.547  0.00  0.00    +0.277 C 
ENDBRANCH  28  29
ENDBRANCH  18  23
ENDBRANCH   1  21
BRANCH   1  31
ATOM     31  C   UNL     1       5.174  -3.463   1.267  0.00  0.00    +0.143 A 
ATOM     32  N   UNL     1       4.577  -4.543   1.708  0.00  0.00    -0.115 NA
ATOM     33  N   UNL     1       5.046  -4.807   2.879  0.00  0.00    -0.023 NA
ATOM     34  N   UNL     1       5.927  -3.924   3.196  0.00  0.00    -0.044 NA
ATOM     35  N   UNL     1       6.038  -3.080   2.225  0.00  0.00    -0.223 N 
BRANCH  35  36
ATOM     36  C   UNL     1       6.935  -1.923   2.177  0.00  0.00    +0.221 C 
BRANCH  36  37
ATOM     37  C   UNL     1       6.232  -0.719   2.750  0.00  0.00    +0.126 A 
ATOM     38  C   UNL     1       6.238  -0.345   4.042  0.00  0.00    +0.046 A 
ATOM     39  C   UNL     1       5.460   0.831   4.132  0.00  0.00    +0.041 A 
ATOM     40  C   UNL     1       5.016   1.101   2.891  0.00  0.00    +0.195 A 
ATOM     41  O   UNL     1       5.487   0.159   2.058  0.00  0.00    -0.466 OA
ENDBRANCH  36  37
ENDBRANCH  35  36
ENDBRANCH   1  31
TORSDOF 7
