REMARK  Name = ZINC04208938
REMARK  19 active torsions:
REMARK  status: ('A' for Active; 'I' for Inactive)
REMARK    1  A    between atoms: C_1  and  C_2
REMARK    2  A    between atoms: C_3  and  C_41
REMARK    3  A    between atoms: C_4  and  C_18
REMARK    4  A    between atoms: C_7  and  C_8
REMARK    5  A    between atoms: C_10  and  C_16
REMARK    6  A    between atoms: C_11  and  C_15
REMARK    7  A    between atoms: C_20  and  C_35
REMARK    8  A    between atoms: C_21  and  C_34
REMARK    9  A    between atoms: C_22  and  C_24
REMARK   10  A    between atoms: C_26  and  C_33
REMARK   11  A    between atoms: C_27  and  C_31
REMARK   12  A    between atoms: C_35  and  C_36
REMARK   13  A    between atoms: C_36  and  C_37
REMARK   14  A    between atoms: C_37  and  O_39
REMARK   15  A    between atoms: O_39  and  C_40
REMARK   16  A    between atoms: C_41  and  C_42
REMARK   17  A    between atoms: C_42  and  C_43
REMARK   18  A    between atoms: C_43  and  O_45
REMARK   19  A    between atoms: O_45  and  C_46
REMARK                            x       y       z     vdW  Elec       q    Type
REMARK                         _______ _______ _______ _____ _____    ______ ____
ROOT
ATOM      1  C   UNL     1       3.270   2.909  -5.389  0.00  0.00    +0.046 C 
ATOM      2  C   UNL     1       3.414   2.657  -3.911  0.00  0.00    -0.022 A 
ATOM      3  C   UNL     1       3.947   3.532  -2.984  0.00  0.00    -0.019 A 
ATOM      4  C   UNL     1       3.895   2.906  -1.734  0.00  0.00    +0.045 A 
ATOM      5  N   UNL     1       3.325   1.663  -1.905  0.00  0.00    -0.355 N 
ATOM      6  H   UNL     1       3.161   1.012  -1.204  0.00  0.00    +0.166 HD
ATOM      7  C   UNL     1       3.028   1.502  -3.232  0.00  0.00    +0.045 A 
ENDROOT
BRANCH   7   8
ATOM      8  C   UNL     1       2.432   0.360  -3.814  0.00  0.00    +0.049 C 
ATOM      9  C   UNL     1       2.840  -0.888  -3.441  0.00  0.00    +0.043 C 
ATOM     10  C   UNL     1       3.996  -1.217  -2.589  0.00  0.00    +0.004 C 
ATOM     11  C   UNL     1       4.015  -2.596  -2.487  0.00  0.00    +0.020 C 
ATOM     12  C   UNL     1       2.934  -3.102  -3.231  0.00  0.00    +0.245 C 
ATOM     13  O   UNL     1       2.660  -4.284  -3.352  0.00  0.00    -0.270 OA
ATOM     14  N   UNL     1       2.243  -2.092  -3.786  0.00  0.00    -0.281 N 
ATOM     15  C   UNL     1       5.018  -3.414  -1.714  0.00  0.00    +0.050 C 
ATOM     16  H   UNL     1       1.454  -2.189  -4.341  0.00  0.00    +0.155 HD
BRANCH  10  17
ATOM     17  C   UNL     1       4.939  -0.270  -1.972  0.00  0.00    +0.002 C 
ATOM     18  C   UNL     1       5.273  -0.403  -0.691  0.00  0.00    +0.009 C 
ENDBRANCH  10  17
ENDBRANCH   7   8
BRANCH   4  19
ATOM     19  C   UNL     1       4.337   3.448  -0.524  0.00  0.00    +0.054 C 
ATOM     20  C   UNL     1       3.502   3.423   0.603  0.00  0.00    +0.070 C 
ATOM     21  C   UNL     1       2.101   3.198   0.594  0.00  0.00    -0.017 C 
ATOM     22  C   UNL     1       1.686   3.261   1.885  0.00  0.00    -0.020 C 
ATOM     23  C   UNL     1       2.834   3.516   2.676  0.00  0.00    +0.070 C 
ATOM     24  N   UNL     1       3.890   3.608   1.871  0.00  0.00    -0.247 NA
ATOM     25  C   UNL     1       0.274   3.090   2.383  0.00  0.00    +0.046 C 
BRANCH  23  26
ATOM     26  C   UNL     1       2.854   3.655   4.085  0.00  0.00    +0.051 C 
ATOM     27  C   UNL     1       3.922   3.171   4.811  0.00  0.00    +0.039 C 
ATOM     28  C   UNL     1       4.941   2.340   4.311  0.00  0.00    -0.017 C 
ATOM     29  C   UNL     1       5.817   2.084   5.351  0.00  0.00    +0.041 C 
ATOM     30  C   UNL     1       5.293   2.788   6.529  0.00  0.00    +0.249 C 
ATOM     31  O   UNL     1       5.790   2.798   7.641  0.00  0.00    -0.270 OA
ATOM     32  N   UNL     1       4.163   3.421   6.157  0.00  0.00    -0.281 N 
ATOM     33  C   UNL     1       5.058   1.825   2.900  0.00  0.00    +0.046 C 
ATOM     34  H   UNL     1       3.606   3.963   6.737  0.00  0.00    +0.155 HD
BRANCH  29  35
ATOM     35  C   UNL     1       7.037   1.261   5.290  0.00  0.00    +0.006 C 
ATOM     36  C   UNL     1       7.785   1.099   6.378  0.00  0.00    +0.009 C 
ENDBRANCH  29  35
ENDBRANCH  23  26
BRANCH  21  37
ATOM     37  C   UNL     1       1.239   2.943  -0.615  0.00  0.00    +0.049 C 
BRANCH  37  38
ATOM     38  C   UNL     1       0.851   4.278  -1.255  0.00  0.00    +0.125 C 
BRANCH  38  39
ATOM     39  C   UNL     1      -0.107   4.030  -2.391  0.00  0.00    +0.307 C 
ATOM     40  O   UNL     1      -0.373   2.899  -2.722  0.00  0.00    -0.251 OA
BRANCH  39  41
ATOM     41  O   UNL     1      -0.662   5.067  -3.039  0.00  0.00    -0.468 OA
ATOM     42  C   UNL     1      -1.571   4.754  -4.128  0.00  0.00    +0.280 C 
ENDBRANCH  39  41
ENDBRANCH  38  39
ENDBRANCH  37  38
ENDBRANCH  21  37
ENDBRANCH   4  19
BRANCH   3  43
ATOM     43  C   UNL     1       4.489   4.909  -3.268  0.00  0.00    +0.048 C 
BRANCH  43  44
ATOM     44  C   UNL     1       5.981   4.814  -3.591  0.00  0.00    +0.125 C 
BRANCH  44  45
ATOM     45  C   UNL     1       6.523   6.191  -3.876  0.00  0.00    +0.307 C 
ATOM     46  O   UNL     1       5.790   7.151  -3.825  0.00  0.00    -0.251 OA
BRANCH  45  47
ATOM     47  O   UNL     1       7.819   6.352  -4.185  0.00  0.00    -0.468 OA
ATOM     48  C   UNL     1       8.271   7.706  -4.447  0.00  0.00    +0.280 C 
ENDBRANCH  45  47
ENDBRANCH  44  45
ENDBRANCH  43  44
ENDBRANCH   3  43
TORSDOF 13
