REMARK  Name = ZINC59122467
REMARK  5 active torsions:
REMARK  status: ('A' for Active; 'I' for Inactive)
REMARK    1  A    between atoms: C_1  and  C_2
REMARK    2  A    between atoms: N_4  and  C_28
REMARK    3  A    between atoms: C_13  and  C_22
REMARK    4  A    between atoms: N_15  and  C_16
REMARK    5  A    between atoms: C_31  and  N_34
REMARK                            x       y       z     vdW  Elec       q    Type
REMARK                         _______ _______ _______ _____ _____    ______ ____
ROOT
ATOM      1  C   UNL     1       0.331   1.606   0.449  0.00  0.00    +0.075 C 
ATOM      2  C   UNL     1       0.235   0.109   0.306  0.00  0.00    +0.093 C 
ATOM      3  N   UNL     1       0.093  -0.611  -0.834  0.00  0.00    -0.175 NA
ATOM      4  N   UNL     1       0.020  -1.878  -0.864  0.00  0.00    -0.184 N 
ATOM      5  C   UNL     1       0.102  -2.524   0.452  0.00  0.00    +0.220 C 
ATOM      6  S   UNL     1       0.289  -1.053   1.529  0.00  0.00    -0.055 S 
ATOM      7  C   UNL     1       1.305  -3.407   0.570  0.00  0.00    +0.017 A 
ATOM      8  C   UNL     1       2.454  -3.162  -0.148  0.00  0.00    +0.009 A 
ATOM      9  C   UNL     1       3.548  -3.999  -0.013  0.00  0.00    +0.000 A 
ATOM     10  C   UNL     1       3.496  -5.085   0.843  0.00  0.00    +0.001 A 
ATOM     11  C   UNL     1       2.350  -5.343   1.569  0.00  0.00    +0.010 A 
ATOM     12  C   UNL     1       1.246  -4.505   1.437  0.00  0.00    +0.010 A 
ATOM     13  C   UNL     1       0.002  -4.759   2.196  0.00  0.00    +0.097 C 
ATOM     14  N   UNL     1      -1.107  -4.148   1.866  0.00  0.00    -0.176 NA
ATOM     15  N   UNL     1      -1.115  -3.250   0.783  0.00  0.00    -0.184 N 
ENDROOT
BRANCH  15  16
ATOM     16  C   UNL     1      -2.276  -3.057   0.035  0.00  0.00    +0.055 A 
ATOM     17  C   UNL     1      -2.994  -4.152  -0.431  0.00  0.00    +0.025 A 
ATOM     18  C   UNL     1      -4.144  -3.957  -1.171  0.00  0.00    +0.002 A 
ATOM     19  C   UNL     1      -4.580  -2.675  -1.450  0.00  0.00    +0.000 A 
ATOM     20  C   UNL     1      -3.867  -1.583  -0.988  0.00  0.00    +0.002 A 
ATOM     21  C   UNL     1      -2.720  -1.770  -0.242  0.00  0.00    +0.025 A 
ENDBRANCH  15  16
BRANCH  13  22
ATOM     22  C   UNL     1       0.012  -5.707   3.334  0.00  0.00    +0.002 A 
ATOM     23  C   UNL     1       1.140  -5.812   4.148  0.00  0.00    +0.010 A 
ATOM     24  C   UNL     1       1.142  -6.697   5.207  0.00  0.00    +0.001 A 
ATOM     25  C   UNL     1       0.030  -7.479   5.461  0.00  0.00    +0.000 A 
ATOM     26  C   UNL     1      -1.092  -7.379   4.657  0.00  0.00    +0.001 A 
ATOM     27  C   UNL     1      -1.109  -6.494   3.599  0.00  0.00    +0.010 A 
ENDBRANCH  13  22
BRANCH   4  28
ATOM     28  C   UNL     1      -0.123  -2.584  -2.028  0.00  0.00    +0.055 A 
ATOM     29  C   UNL     1      -0.204  -3.984  -1.997  0.00  0.00    +0.027 A 
ATOM     30  C   UNL     1      -0.349  -4.687  -3.172  0.00  0.00    +0.034 A 
ATOM     31  C   UNL     1      -0.413  -4.014  -4.383  0.00  0.00    +0.126 A 
ATOM     32  C   UNL     1      -0.333  -2.630  -4.422  0.00  0.00    +0.034 A 
ATOM     33  C   UNL     1      -0.196  -1.912  -3.256  0.00  0.00    +0.027 A 
BRANCH  31  34
ATOM     34  N   UNL     1      -0.568  -4.778  -5.642  0.00  0.00    +0.056 N 
ATOM     35  O   UNL     1      -0.644  -6.093  -5.609  0.00  0.00    -0.126 OA
ATOM     36  O   UNL     1      -0.629  -4.143  -6.794  0.00  0.00    -0.126 OA
ENDBRANCH  31  34
ENDBRANCH   4  28
TORSDOF 4
