REMARK  Name = ZINC02956112
REMARK  5 active torsions:
REMARK  status: ('A' for Active; 'I' for Inactive)
REMARK    1  A    between atoms: C_1  and  O_2
REMARK    2  A    between atoms: O_2  and  C_3
REMARK    3  A    between atoms: C_8  and  N_9
REMARK    4  A    between atoms: C_13  and  C_15
REMARK    5  A    between atoms: C_20  and  O_26
REMARK                            x       y       z     vdW  Elec       q    Type
REMARK                         _______ _______ _______ _____ _____    ______ ____
ROOT
ATOM      1  N   UNL     1       6.330  -0.090  -0.059  0.00  0.00    -0.289 N 
ATOM      2  C   UNL     1       4.977   0.201   0.029  0.00  0.00    +0.186 A 
ATOM      3  N   UNL     1       3.950  -0.594   0.304  0.00  0.00    -0.125 NA
ATOM      4  N   UNL     1       2.765  -0.162   0.344  0.00  0.00    -0.139 NA
ATOM      5  C   UNL     1       2.476   1.113   0.115  0.00  0.00    +0.141 A 
ATOM      6  S   UNL     1       4.117   1.754  -0.203  0.00  0.00    -0.030 S 
ATOM      7  H   UNL     1       6.972   0.625  -0.185  0.00  0.00    +0.154 HD
ENDROOT
BRANCH   5   8
ATOM      8  C   UNL     1       1.173   1.805   0.116  0.00  0.00    +0.094 A 
ATOM      9  C   UNL     1       0.009   1.110   0.385  0.00  0.00    +0.029 A 
ATOM     10  C   UNL     1      -1.223   1.811   0.370  0.00  0.00    +0.018 A 
ATOM     11  C   UNL     1      -2.423   1.133   0.634  0.00  0.00    +0.015 A 
ATOM     12  C   UNL     1      -3.606   1.811   0.618  0.00  0.00    +0.046 A 
ATOM     13  C   UNL     1      -3.633   3.176   0.341  0.00  0.00    +0.120 A 
ATOM     14  C   UNL     1      -2.458   3.865   0.088  0.00  0.00    +0.092 A 
ATOM     15  C   UNL     1      -1.245   3.191   0.095  0.00  0.00    +0.143 A 
ATOM     16  O   UNL     1      -0.102   3.862  -0.167  0.00  0.00    -0.422 OA
ATOM     17  C   UNL     1       1.089   3.241  -0.169  0.00  0.00    +0.347 A 
ATOM     18  O   UNL     1       2.102   3.872  -0.409  0.00  0.00    -0.244 OA
BRANCH  13  19
ATOM     19  O   UNL     1      -4.818   3.838   0.328  0.00  0.00    -0.507 OA
ATOM     20  H   UNL     1      -5.072   4.207   1.185  0.00  0.00    +0.292 HD
ENDBRANCH  13  19
ENDBRANCH   5   8
BRANCH   1  26
ATOM     21  C   UNL     1       8.130  -1.698   0.120  0.00  0.00    +0.141 A 
ATOM     22  C   UNL     1       8.557  -3.012   0.218  0.00  0.00    +0.047 A 
ATOM     23  C   UNL     1       7.634  -4.041   0.220  0.00  0.00    +0.004 A 
ATOM     24  C   UNL     1       6.282  -3.763   0.130  0.00  0.00    +0.002 A 
ATOM     25  C   UNL     1       5.847  -2.455   0.037  0.00  0.00    +0.027 A 
ATOM     26  C   UNL     1       6.768  -1.416   0.035  0.00  0.00    +0.075 A 
BRANCH  21  28
ATOM     27  C   UNL     1      10.416  -1.048   0.202  0.00  0.00    +0.277 C 
ATOM     28  O   UNL     1       9.037  -0.685   0.112  0.00  0.00    -0.493 OA
ENDBRANCH  21  28
ENDBRANCH   1  26
TORSDOF 4
