REMARK  Name = ZINC24899455
REMARK  6 active torsions:
REMARK  status: ('A' for Active; 'I' for Inactive)
REMARK    1  A    between atoms: C_1  and  C_2
REMARK    2  A    between atoms: C_12  and  C_14
REMARK    3  A    between atoms: C_14  and  N_15
REMARK    4  A    between atoms: N_18  and  C_21
REMARK    5  A    between atoms: C_21  and  C_22
REMARK    6  A    between atoms: C_22  and  C_23
REMARK                            x       y       z     vdW  Elec       q    Type
REMARK                         _______ _______ _______ _____ _____    ______ ____
ROOT
ATOM      1  C   UNL     1      -2.723   1.794  -4.897  0.00  0.00    +0.157 C 
ENDROOT
BRANCH   1  13
ATOM      2  C   UNL     1      -8.595  -2.172  -8.474  0.00  0.00    +0.044 C 
ATOM      3  C   UNL     1      -7.572  -1.250  -7.862  0.00  0.00    -0.048 A 
ATOM      4  C   UNL     1      -7.099  -0.167  -8.582  0.00  0.00    +0.005 A 
ATOM      5  C   UNL     1      -6.163   0.683  -8.028  0.00  0.00    +0.025 A 
ATOM      6  C   UNL     1      -5.692   0.451  -6.741  0.00  0.00    +0.059 A 
ATOM      7  C   UNL     1      -6.171  -0.642  -6.026  0.00  0.00    +0.134 A 
ATOM      8  C   UNL     1      -7.106  -1.486  -6.580  0.00  0.00    +0.034 A 
ATOM      9  S   UNL     1      -5.550  -0.918  -4.399  0.00  0.00    +0.102 S 
ATOM     10  O   UNL     1      -6.520  -0.404  -3.496  0.00  0.00    -0.146 OA
ATOM     11  O   UNL     1      -5.099  -2.265  -4.354  0.00  0.00    -0.146 OA
ATOM     12  N   UNL     1      -4.204   0.040  -4.261  0.00  0.00    -0.117 NA
ATOM     13  C   UNL     1      -3.973   0.979  -5.104  0.00  0.00    +0.135 C 
ATOM     14  N   UNL     1      -4.750   1.300  -6.167  0.00  0.00    -0.299 N 
ATOM     15  H   UNL     1      -4.598   2.310  -6.577  0.00  0.00    +0.153 HD
ENDBRANCH   1  13
BRANCH   1  16
ATOM     16  N   UNL     1      -2.012   1.308  -3.707  0.00  0.00    -0.299 NA
ATOM     17  C   UNL     1      -0.677   1.914  -3.606  0.00  0.00    +0.066 C 
ATOM     18  C   UNL     1       0.059   1.323  -2.401  0.00  0.00    -0.063 C 
ATOM     19  N   UNL     1      -0.723   1.572  -1.182  0.00  0.00    +0.382 N 
ATOM     20  C   UNL     1      -2.058   0.966  -1.283  0.00  0.00    -0.063 C 
ATOM     21  C   UNL     1      -2.794   1.557  -2.488  0.00  0.00    +0.066 C 
ATOM     22  H   UNL     1      -0.851   2.660  -1.077  0.00  0.00    -0.082 HD
BRANCH  19  23
ATOM     23  C   UNL     1      -0.013   1.086   0.008  0.00  0.00    -0.074 C 
BRANCH  23  24
ATOM     24  C   UNL     1      -0.729   1.579   1.267  0.00  0.00    +0.024 C 
BRANCH  24  25
ATOM     25  C   UNL     1       0.000   1.080   2.488  0.00  0.00    -0.012 A 
ATOM     26  C   UNL     1       1.013   1.663   3.175  0.00  0.00    +0.011 A 
ATOM     27  C   UNL     1       1.532   1.016   4.281  0.00  0.00    +0.008 A 
ATOM     28  C   UNL     1       1.019  -0.187   4.639  0.00  0.00    +0.045 A 
ATOM     29  S   UNL     1      -0.241  -0.436   3.400  0.00  0.00    -0.102 S 
ENDBRANCH  24  25
ENDBRANCH  23  24
ENDBRANCH  19  23
ENDBRANCH   1  16
TORSDOF 5
