REMARK  Name = ZINC19237022
REMARK  7 active torsions:
REMARK  status: ('A' for Active; 'I' for Inactive)
REMARK    1  A    between atoms: C_1  and  C_2
REMARK    2  A    between atoms: C_7  and  C_8
REMARK    3  A    between atoms: N_16  and  C_19
REMARK    4  A    between atoms: C_25  and  C_27
REMARK    5  A    between atoms: C_25  and  C_33
REMARK    6  A    between atoms: C_33  and  O_35
REMARK    7  A    between atoms: O_35  and  C_36
REMARK                            x       y       z     vdW  Elec       q    Type
REMARK                         _______ _______ _______ _____ _____    ______ ____
ROOT
ATOM      1  C   UNL     1       0.447   5.350   1.518  0.00  0.00    +0.098 C 
ATOM      2  C   UNL     1       1.802   5.613   0.970  0.00  0.00    +0.112 C 
ATOM      3  C   UNL     1       2.338   4.141   0.764  0.00  0.00    +0.125 C 
ATOM      4  C   UNL     1       3.656   4.494   0.190  0.00  0.00    +0.233 C 
ATOM      5  O   UNL     1       4.263   3.901  -0.676  0.00  0.00    -0.274 OA
ATOM      6  N   UNL     1       4.044   5.632   0.846  0.00  0.00    -0.210 N 
ATOM      7  C   UNL     1       3.007   6.237   1.510  0.00  0.00    +0.232 C 
ATOM      8  O   UNL     1       3.075   7.099   2.359  0.00  0.00    -0.274 OA
ATOM      9  C   UNL     1       1.151   3.592   0.010  0.00  0.00    +0.155 C 
ATOM     10  N   UNL     1      -0.012   4.106   0.811  0.00  0.00    -0.290 NA
ATOM     11  H   UNL     1      -0.330   3.359   1.553  0.00  0.00    +0.124 HD
ENDROOT
BRANCH   1  18
ATOM     12  C   UNL     1       0.414   7.601   3.329  0.00  0.00    +0.044 C 
ATOM     13  C   UNL     1       0.501   6.198   3.872  0.00  0.00    -0.046 A 
ATOM     14  C   UNL     1       0.565   5.987   5.237  0.00  0.00    +0.003 A 
ATOM     15  C   UNL     1       0.644   4.700   5.735  0.00  0.00    +0.000 A 
ATOM     16  C   UNL     1       0.659   3.624   4.868  0.00  0.00    +0.000 A 
ATOM     17  C   UNL     1       0.591   3.834   3.504  0.00  0.00    +0.005 A 
ATOM     18  C   UNL     1       0.517   5.121   3.006  0.00  0.00    -0.027 A 
ENDBRANCH   1  18
BRANCH   6  19
ATOM     19  C   UNL     1       5.356   6.126   0.838  0.00  0.00    +0.044 A 
ATOM     20  C   UNL     1       6.350   5.450   0.143  0.00  0.00    +0.024 A 
ATOM     21  C   UNL     1       7.641   5.941   0.134  0.00  0.00    +0.002 A 
ATOM     22  C   UNL     1       7.946   7.100   0.824  0.00  0.00    +0.000 A 
ATOM     23  C   UNL     1       6.960   7.772   1.522  0.00  0.00    +0.002 A 
ATOM     24  C   UNL     1       5.666   7.289   1.531  0.00  0.00    +0.024 A 
ENDBRANCH   6  19
BRANCH   9  25
ATOM     25  C   UNL     1       1.171   2.086   0.002  0.00  0.00    -0.016 A 
ATOM     26  C   UNL     1      -0.017   1.378   0.010  0.00  0.00    +0.006 A 
ATOM     27  C   UNL     1       0.002  -0.004   0.002  0.00  0.00    +0.000 A 
ATOM     28  C   UNL     1       1.208  -0.679  -0.014  0.00  0.00    +0.000 A 
ATOM     29  C   UNL     1       2.396   0.029  -0.021  0.00  0.00    +0.000 A 
ATOM     30  C   UNL     1       2.377   1.411  -0.014  0.00  0.00    +0.006 A 
ENDBRANCH   9  25
BRANCH   9  31
ATOM     31  C   UNL     1       1.113   4.133  -1.396  0.00  0.00    +0.333 C 
ATOM     32  O   UNL     1       2.138   4.460  -1.945  0.00  0.00    -0.248 OA
BRANCH  31  33
ATOM     33  O   UNL     1      -0.060   4.250  -2.039  0.00  0.00    -0.466 OA
ATOM     34  C   UNL     1      -0.020   4.777  -3.391  0.00  0.00    +0.280 C 
ENDBRANCH  31  33
ENDBRANCH   9  31
TORSDOF 5
