REMARK  Name = ZINC20718777
REMARK  9 active torsions:
REMARK  status: ('A' for Active; 'I' for Inactive)
REMARK    1  A    between atoms: C_1  and  C_2
REMARK    2  A    between atoms: C_2  and  C_3
REMARK    3  A    between atoms: C_2  and  C_4
REMARK    4  A    between atoms: C_2  and  N_5
REMARK    5  A    between atoms: N_5  and  S_6
REMARK    6  A    between atoms: S_6  and  C_9
REMARK    7  A    between atoms: C_22  and  C_25
REMARK    8  A    between atoms: C_34  and  O_35
REMARK    9  A    between atoms: O_35  and  C_36
REMARK                            x       y       z     vdW  Elec       q    Type
REMARK                         _______ _______ _______ _____ _____    ______ ____
ROOT
ATOM      1  C   UNL     1       2.362   3.371   1.308  0.00  0.00    +0.106 A 
ATOM      2  C   UNL     1       2.552   2.894   2.592  0.00  0.00    +0.030 A 
ATOM      3  C   UNL     1       1.466   2.641   3.405  0.00  0.00    +0.025 A 
ATOM      4  C   UNL     1       0.175   2.860   2.940  0.00  0.00    +0.031 A 
ATOM      5  C   UNL     1      -0.010   3.329   1.634  0.00  0.00    -0.018 A 
ATOM      6  C   UNL     1       1.082   3.588   0.834  0.00  0.00    +0.034 A 
ATOM      7  C   UNL     1      -1.400   3.505   1.163  0.00  0.00    +0.049 C 
ATOM      8  C   UNL     1      -1.751   4.474   0.093  0.00  0.00    -0.023 C 
ATOM      9  C   UNL     1      -2.981   4.922   0.314  0.00  0.00    -0.030 C 
ATOM     10  C   UNL     1      -3.543   4.298   1.593  0.00  0.00    +0.033 C 
ATOM     11  C   UNL     1      -2.260   3.981   2.372  0.00  0.00    +0.029 C 
ATOM     12  C   UNL     1      -2.303   2.802   3.327  0.00  0.00    +0.109 C 
ATOM     13  N   UNL     1      -0.911   2.610   3.788  0.00  0.00    -0.336 N 
ATOM     14  H   UNL     1      -0.713   2.265   4.814  0.00  0.00    +0.147 HD
ENDROOT
BRANCH  12  15
ATOM     15  C   UNL     1      -2.788   1.569   2.609  0.00  0.00    +0.022 A 
ATOM     16  C   UNL     1      -4.164   1.350   2.432  0.00  0.00    -0.009 A 
ATOM     17  C   UNL     1      -5.116   2.265   2.915  0.00  0.00    +0.009 A 
ATOM     18  C   UNL     1      -6.441   2.019   2.730  0.00  0.00    +0.001 A 
ATOM     19  C   UNL     1      -6.872   0.870   2.069  0.00  0.00    +0.001 A 
ATOM     20  C   UNL     1      -5.980  -0.039   1.589  0.00  0.00    +0.008 A 
ATOM     21  C   UNL     1      -4.603   0.182   1.760  0.00  0.00    -0.017 A 
ATOM     22  C   UNL     1      -3.652  -0.735   1.277  0.00  0.00    +0.012 A 
ATOM     23  C   UNL     1      -2.327  -0.492   1.460  0.00  0.00    +0.046 A 
ATOM     24  C   UNL     1      -1.892   0.660   2.123  0.00  0.00    +0.126 A 
BRANCH  24  25
ATOM     25  O   UNL     1      -0.561   0.875   2.290  0.00  0.00    -0.495 OA
ATOM     26  C   UNL     1       0.329  -0.058   1.675  0.00  0.00    +0.277 C 
ENDBRANCH  24  25
ENDBRANCH  12  15
BRANCH   1  27
ATOM     27  S   UNL     1       3.752   3.703   0.277  0.00  0.00    +0.059 S 
ATOM     28  O   UNL     1       4.863   3.042   0.867  0.00  0.00    -0.153 OA
ATOM     29  O   UNL     1       3.337   3.449  -1.058  0.00  0.00    -0.153 OA
BRANCH  27  30
ATOM     30  N   UNL     1       4.060   5.327   0.377  0.00  0.00    -0.185 NA
ATOM     31  H   UNL     1       3.758   5.983  -0.453  0.00  0.00    +0.149 HD
BRANCH  30  33
ATOM     32  C   UNL     1       5.930   5.393   1.951  0.00  0.00    +0.029 C 
ATOM     33  C   UNL     1       4.524   5.908   1.639  0.00  0.00    +0.032 C 
ATOM     34  C   UNL     1       4.555   7.433   1.517  0.00  0.00    +0.029 C 
ATOM     35  C   UNL     1       3.571   5.506   2.766  0.00  0.00    +0.029 C 
ENDBRANCH  30  33
ENDBRANCH  27  30
ENDBRANCH   1  27
TORSDOF 5
