REMARK  Name = ZINC09642454
REMARK  8 active torsions:
REMARK  status: ('A' for Active; 'I' for Inactive)
REMARK    1  A    between atoms: C_1  and  C_2
REMARK    2  A    between atoms: C_3  and  C_30
REMARK    3  A    between atoms: C_11  and  C_13
REMARK    4  A    between atoms: C_13  and  C_15
REMARK    5  A    between atoms: C_13  and  S_16
REMARK    6  A    between atoms: S_16  and  C_17
REMARK    7  A    between atoms: C_20  and  C_23
REMARK    8  A    between atoms: N_21  and  N_22
REMARK                            x       y       z     vdW  Elec       q    Type
REMARK                         _______ _______ _______ _____ _____    ______ ____
ROOT
ATOM      1  S   UNL     1      -2.617   5.008   1.218  0.00  0.00    -0.074 S 
ENDROOT
BRANCH   1   2
ATOM      2  C   UNL     1      -4.183   5.803   1.080  0.00  0.00    +0.209 A 
ATOM      3  N   UNL     1      -5.262   5.309   0.516  0.00  0.00    -0.121 NA
ATOM      4  N   UNL     1      -6.227   6.153   0.594  0.00  0.00    -0.127 NA
ATOM      5  C   UNL     1      -5.822   7.242   1.205  0.00  0.00    +0.182 A 
ATOM      6  N   UNL     1      -4.500   7.052   1.534  0.00  0.00    -0.224 N 
BRANCH   5   7
ATOM      7  C   UNL     1      -6.633   8.446   1.485  0.00  0.00    +0.022 A 
ATOM      8  C   UNL     1      -6.008   9.651   1.812  0.00  0.00    +0.012 A 
ATOM      9  C   UNL     1      -6.770  10.771   2.072  0.00  0.00    +0.002 A 
ATOM     10  C   UNL     1      -8.150  10.703   2.010  0.00  0.00    +0.020 A 
ATOM     11  C   UNL     1      -8.776   9.512   1.686  0.00  0.00    +0.042 A 
ATOM     12  C   UNL     1      -8.025   8.384   1.418  0.00  0.00    +0.031 A 
ATOM     13 CL   UNL     1     -10.509   9.436   1.609  0.00  0.00    -0.084 Cl
ENDBRANCH   5   7
BRANCH   6  14
ATOM     14  N   UNL     1      -3.676   7.928   2.182  0.00  0.00    -0.295 N 
ATOM     15  H   UNL     1      -3.268   8.587   1.536  0.00  0.00    +0.163 HD
ATOM     16  H   UNL     1      -4.167   8.405   2.923  0.00  0.00    +0.163 HD
ENDBRANCH   6  14
ENDBRANCH   1   2
BRANCH   1  17
ATOM     17  C   UNL     1      -2.991   3.435   0.403  0.00  0.00    +0.117 C 
ATOM     18  C   UNL     1      -3.308   3.688  -1.072  0.00  0.00    +0.027 C 
BRANCH  17  29
ATOM     19  C   UNL     1       1.668  -1.355   0.955  0.00  0.00    +0.045 C 
ATOM     20  C   UNL     1       1.639   0.143   0.790  0.00  0.00    -0.026 A 
ATOM     21  C   UNL     1       2.783   0.841   0.721  0.00  0.00    -0.008 A 
ATOM     22  S   UNL     1       2.229   2.525   0.533  0.00  0.00    -0.073 S 
ATOM     23  C   UNL     1       0.477   2.242   0.554  0.00  0.00    +0.116 A 
ATOM     24  C   UNL     1       0.373   0.848   0.706  0.00  0.00    +0.075 A 
ATOM     25  C   UNL     1      -0.962   0.328   0.755  0.00  0.00    +0.260 A 
ATOM     26  O   UNL     1      -1.156  -0.868   0.884  0.00  0.00    -0.267 OA
ATOM     27  N   UNL     1      -1.997   1.182   0.651  0.00  0.00    -0.309 N 
ATOM     28  H   UNL     1      -2.903   0.836   0.680  0.00  0.00    +0.170 HD
ATOM     29  C   UNL     1      -1.800   2.518   0.510  0.00  0.00    +0.124 A 
ATOM     30  N   UNL     1      -0.596   3.022   0.462  0.00  0.00    -0.225 NA
ATOM     31  C   UNL     1       4.198   0.325   0.786  0.00  0.00    +0.052 C 
ENDBRANCH  17  29
ENDBRANCH   1  17
TORSDOF 5
