REMARK  Name = ZINC58991230
REMARK  11 active torsions:
REMARK  status: ('A' for Active; 'I' for Inactive)
REMARK    1  A    between atoms: C_1  and  C_2
REMARK    2  A    between atoms: C_2  and  C_24
REMARK    3  A    between atoms: N_3  and  N_4
REMARK    4  A    between atoms: C_5  and  C_7
REMARK    5  A    between atoms: C_7  and  C_8
REMARK    6  A    between atoms: C_8  and  C_9
REMARK    7  A    between atoms: C_9  and  S_10
REMARK    8  A    between atoms: S_10  and  C_11
REMARK    9  A    between atoms: C_14  and  C_17
REMARK   10  A    between atoms: N_15  and  N_16
REMARK   11  A    between atoms: C_22  and  O_23
REMARK                            x       y       z     vdW  Elec       q    Type
REMARK                         _______ _______ _______ _____ _____    ______ ____
ROOT
ATOM      1  C   UNL     1      -2.386  -3.880   4.013  0.00  0.00    +0.020 C 
ENDROOT
BRANCH   1   2
ATOM      2  C   UNL     1      -2.168  -3.508   2.544  0.00  0.00    +0.098 C 
BRANCH   2   4
ATOM      3  N   UNL     1      -1.008  -1.741   1.260  0.00  0.00    -0.207 N 
ATOM      4  C   UNL     1      -1.330  -2.258   2.462  0.00  0.00    +0.232 C 
ATOM      5  O   UNL     1      -0.945  -1.718   3.477  0.00  0.00    -0.274 OA
ATOM      6  H   UNL     1      -1.316  -2.173   0.448  0.00  0.00    +0.177 HD
BRANCH   3   9
ATOM      7  C   UNL     1       0.988   1.111  -0.071  0.00  0.00    +0.068 C 
ATOM      8  C   UNL     1       0.025  -0.043   0.028  0.00  0.00    +0.063 C 
ATOM      9  N   UNL     1      -0.230  -0.579   1.183  0.00  0.00    -0.185 NA
BRANCH   8  10
ATOM     10  C   UNL     1      -0.629  -0.564  -1.186  0.00  0.00    -0.002 A 
ATOM     11  C   UNL     1      -1.974  -0.975  -1.133  0.00  0.00    +0.010 A 
ATOM     12  C   UNL     1      -2.598  -1.458  -2.238  0.00  0.00    +0.009 A 
ATOM     13  C   UNL     1      -1.900  -1.553  -3.456  0.00  0.00    -0.018 A 
ATOM     14  C   UNL     1      -2.524  -2.049  -4.612  0.00  0.00    +0.008 A 
ATOM     15  C   UNL     1      -1.824  -2.129  -5.777  0.00  0.00    +0.001 A 
ATOM     16  C   UNL     1      -0.492  -1.725  -5.842  0.00  0.00    +0.001 A 
ATOM     17  C   UNL     1       0.147  -1.239  -4.744  0.00  0.00    +0.008 A 
ATOM     18  C   UNL     1      -0.544  -1.141  -3.522  0.00  0.00    -0.017 A 
ATOM     19  C   UNL     1       0.083  -0.640  -2.372  0.00  0.00    +0.018 A 
ENDBRANCH   8  10
ENDBRANCH   3   9
ENDBRANCH   2   4
ENDBRANCH   1   2
BRANCH   1  20
ATOM     20  C   UNL     1      -3.236  -5.149   4.096  0.00  0.00    +0.078 C 
BRANCH  20  21
ATOM     21  S   UNL     1      -3.495  -5.590   5.837  0.00  0.00    -0.084 S 
BRANCH  21  22
ATOM     22  C   UNL     1      -4.478  -7.051   5.765  0.00  0.00    +0.209 A 
ATOM     23  N   UNL     1      -4.899  -7.654   4.677  0.00  0.00    -0.121 NA
ATOM     24  N   UNL     1      -5.591  -8.691   4.987  0.00  0.00    -0.127 NA
ATOM     25  C   UNL     1      -5.654  -8.815   6.292  0.00  0.00    +0.185 A 
ATOM     26  N   UNL     1      -4.938  -7.771   6.831  0.00  0.00    -0.224 N 
BRANCH  25  27
ATOM     27  C   UNL     1      -6.357  -9.877   7.042  0.00  0.00    +0.062 A 
ATOM     28  C   UNL     1      -7.324  -9.543   7.991  0.00  0.00    +0.015 A 
ATOM     29  C   UNL     1      -7.976 -10.540   8.687  0.00  0.00    +0.001 A 
ATOM     30  C   UNL     1      -7.676 -11.870   8.448  0.00  0.00    +0.004 A 
ATOM     31  C   UNL     1      -6.719 -12.212   7.511  0.00  0.00    +0.046 A 
ATOM     32  C   UNL     1      -6.060 -11.224   6.799  0.00  0.00    +0.128 A 
BRANCH  32  33
ATOM     33  O   UNL     1      -5.124 -11.559   5.873  0.00  0.00    -0.506 OA
ATOM     34  H   UNL     1      -4.228 -11.631   6.227  0.00  0.00    +0.292 HD
ENDBRANCH  32  33
ENDBRANCH  25  27
BRANCH  26  35
ATOM     35  N   UNL     1      -4.733  -7.507   8.156  0.00  0.00    -0.295 N 
ATOM     36  H   UNL     1      -5.505  -6.985   8.544  0.00  0.00    +0.163 HD
ATOM     37  H   UNL     1      -4.576  -8.358   8.674  0.00  0.00    +0.163 HD
ENDBRANCH  26  35
ENDBRANCH  21  22
ENDBRANCH  20  21
ENDBRANCH   1  20
TORSDOF 10
