REMARK  Name = ZINC58442370
REMARK  9 active torsions:
REMARK  status: ('A' for Active; 'I' for Inactive)
REMARK    1  A    between atoms: C_1  and  C_2
REMARK    2  A    between atoms: C_2  and  C_3
REMARK    3  A    between atoms: C_2  and  C_4
REMARK    4  A    between atoms: C_4  and  C_5
REMARK    5  A    between atoms: C_5  and  C_7
REMARK    6  A    between atoms: C_5  and  N_23
REMARK    7  A    between atoms: N_9  and  N_10
REMARK    8  A    between atoms: C_11  and  C_13
REMARK    9  A    between atoms: C_24  and  C_26
REMARK                            x       y       z     vdW  Elec       q    Type
REMARK                         _______ _______ _______ _____ _____    ______ ____
ROOT
ATOM      1  C   UNL     1       0.746  -0.514   3.721  0.00  0.00    +0.249 C 
ATOM      2  O   UNL     1       0.277  -1.297   4.520  0.00  0.00    -0.272 OA
ATOM      3  N   UNL     1       1.972   0.008   3.929  0.00  0.00    -0.233 N 
ATOM      4  H   UNL     1       2.346   0.634   3.290  0.00  0.00    +0.173 HD
ENDROOT
BRANCH   3   5
ATOM      5  N   UNL     1       2.704  -0.355   5.066  0.00  0.00    -0.230 N 
ATOM      6  C   UNL     1       3.929   0.166   5.274  0.00  0.00    +0.260 C 
ATOM      7  O   UNL     1       4.399   0.951   4.473  0.00  0.00    -0.269 OA
ATOM      8  H   UNL     1       2.329  -0.982   5.705  0.00  0.00    +0.173 HD
BRANCH   6   9
ATOM      9  C   UNL     1       4.701  -0.216   6.473  0.00  0.00    +0.042 A 
ATOM     10  C   UNL     1       4.165  -1.122   7.391  0.00  0.00    +0.017 A 
ATOM     11  C   UNL     1       4.887  -1.476   8.509  0.00  0.00    +0.050 A 
ATOM     12  C   UNL     1       6.149  -0.936   8.729  0.00  0.00    +0.162 A 
ATOM     13  C   UNL     1       6.690  -0.034   7.816  0.00  0.00    +0.163 A 
ATOM     14  C   UNL     1       5.971   0.323   6.689  0.00  0.00    +0.062 A 
ATOM     15  O   UNL     1       7.927   0.499   8.013  0.00  0.00    -0.485 OA
ATOM     16  C   UNL     1       8.466   0.402   9.335  0.00  0.00    +0.270 C 
ATOM     17  C   UNL     1       8.248  -1.032   9.839  0.00  0.00    +0.270 C 
ATOM     18  O   UNL     1       6.842  -1.297   9.841  0.00  0.00    -0.485 OA
ENDBRANCH   6   9
ENDBRANCH   3   5
BRANCH   1  19
ATOM     19  C   UNL     1      -0.042  -0.124   2.497  0.00  0.00    +0.161 C 
BRANCH  19  20
ATOM     20  N   UNL     1      -1.330  -0.821   2.503  0.00  0.00    -0.300 N 
ATOM     21  C   UNL     1      -2.382  -0.298   1.842  0.00  0.00    +0.245 C 
ATOM     22  O   UNL     1      -2.262   0.752   1.241  0.00  0.00    -0.270 OA
ATOM     23  H   UNL     1      -1.426  -1.658   2.983  0.00  0.00    +0.150 HD
BRANCH  21  24
ATOM     24  C   UNL     1      -3.682  -1.001   1.848  0.00  0.00    +0.037 A 
ATOM     25  C   UNL     1      -3.825  -2.204   2.542  0.00  0.00    +0.014 A 
ATOM     26  C   UNL     1      -5.040  -2.855   2.544  0.00  0.00    +0.021 A 
ATOM     27  C   UNL     1      -6.118  -2.319   1.860  0.00  0.00    +0.041 A 
ATOM     28  C   UNL     1      -5.982  -1.126   1.169  0.00  0.00    +0.021 A 
ATOM     29  C   UNL     1      -4.773  -0.462   1.165  0.00  0.00    +0.014 A 
ATOM     30 CL   UNL     1      -7.645  -3.145   1.866  0.00  0.00    -0.084 Cl
ENDBRANCH  21  24
ENDBRANCH  19  20
BRANCH  19  31
ATOM     31  C   UNL     1       0.742  -0.511   1.242  0.00  0.00    +0.034 C 
BRANCH  31  33
ATOM     32  C   UNL     1      -0.019   1.526   0.010  0.00  0.00    +0.007 C 
ATOM     33  C   UNL     1       0.002  -0.004   0.002  0.00  0.00    -0.015 C 
ATOM     34  C   UNL     1       0.718  -0.497  -1.257  0.00  0.00    +0.007 C 
ENDBRANCH  31  33
ENDBRANCH  19  31
ENDBRANCH   1  19
TORSDOF 7
