REMARK  Name = ZINC15274880
REMARK  6 active torsions:
REMARK  status: ('A' for Active; 'I' for Inactive)
REMARK    1  A    between atoms: C_1  and  C_2
REMARK    2  A    between atoms: C_2  and  C_4
REMARK    3  A    between atoms: C_2  and  S_16
REMARK    4  A    between atoms: N_6  and  C_7
REMARK    5  A    between atoms: S_16  and  C_17
REMARK    6  A    between atoms: N_27  and  C_28
REMARK                            x       y       z     vdW  Elec       q    Type
REMARK                         _______ _______ _______ _____ _____    ______ ____
ROOT
ATOM      1  C   UNL     1      -6.390   2.207   0.334  0.00  0.00    +0.177 A 
ATOM      2  N   UNL     1      -6.155   3.421  -0.100  0.00  0.00    -0.223 NA
ATOM      3  C   UNL     1      -7.138   4.340  -0.193  0.00  0.00    +0.079 A 
ATOM      4  C   UNL     1      -6.887   5.636  -0.655  0.00  0.00    +0.028 A 
ATOM      5  C   UNL     1      -7.912   6.536  -0.733  0.00  0.00    +0.002 A 
ATOM      6  C   UNL     1      -9.203   6.183  -0.361  0.00  0.00    +0.001 A 
ATOM      7  C   UNL     1      -9.480   4.924   0.095  0.00  0.00    +0.015 A 
ATOM      8  C   UNL     1      -8.453   3.985   0.185  0.00  0.00    +0.065 A 
ATOM      9  C   UNL     1      -8.691   2.618   0.667  0.00  0.00    +0.267 A 
ATOM     10  O   UNL     1      -9.802   2.253   1.007  0.00  0.00    -0.267 OA
ATOM     11  N   UNL     1      -7.631   1.778   0.715  0.00  0.00    -0.254 N 
ENDROOT
BRANCH  11  12
ATOM     12  C   UNL     1      -7.806   0.462   1.163  0.00  0.00    +0.070 A 
ATOM     13  C   UNL     1      -7.663   0.161   2.511  0.00  0.00    +0.028 A 
ATOM     14  C   UNL     1      -7.840  -1.136   2.950  0.00  0.00    +0.002 A 
ATOM     15  C   UNL     1      -8.149  -2.138   2.048  0.00  0.00    +0.002 A 
ATOM     16  C   UNL     1      -8.287  -1.843   0.704  0.00  0.00    +0.022 A 
ATOM     17  C   UNL     1      -8.116  -0.546   0.259  0.00  0.00    +0.065 A 
ATOM     18 CL   UNL     1      -8.289  -0.176  -1.429  0.00  0.00    -0.081 Cl
ENDBRANCH  11  12
BRANCH   1  19
ATOM     19  S   UNL     1      -5.045   1.072   0.422  0.00  0.00    -0.075 S 
BRANCH  19  21
ATOM     20  C   UNL     1      -3.966   2.496  -1.645  0.00  0.00    +0.029 C 
ATOM     21  C   UNL     1      -3.704   2.126  -0.184  0.00  0.00    +0.137 C 
BRANCH  21  22
ATOM     22  C   UNL     1      -2.396   1.385  -0.081  0.00  0.00    +0.230 C 
ATOM     23  O   UNL     1      -2.385   0.172  -0.088  0.00  0.00    -0.274 OA
ATOM     24  N   UNL     1      -1.239   2.069   0.019  0.00  0.00    -0.282 N 
ATOM     25  H   UNL     1      -1.253   3.035   0.105  0.00  0.00    +0.155 HD
BRANCH  24  26
ATOM     26  C   UNL     1      -0.016   1.385  -0.002  0.00  0.00    +0.072 A 
ATOM     27  C   UNL     1       0.075   0.144  -0.617  0.00  0.00    +0.029 A 
ATOM     28  C   UNL     1       1.283  -0.527  -0.642  0.00  0.00    +0.043 A 
ATOM     29  C   UNL     1       2.403   0.036  -0.055  0.00  0.00    +0.161 A 
ATOM     30  C   UNL     1       2.316   1.275   0.561  0.00  0.00    +0.195 A 
ATOM     31  C   UNL     1       1.107   1.951   0.589  0.00  0.00    +0.182 A 
ATOM     32  F   UNL     1       1.021   3.159   1.188  0.00  0.00    -0.200 F 
ATOM     33  F   UNL     1       3.410   1.823   1.134  0.00  0.00    -0.199 F 
ATOM     34  F   UNL     1       3.582  -0.623  -0.081  0.00  0.00    -0.202 F 
ENDBRANCH  24  26
ENDBRANCH  21  22
ENDBRANCH  19  21
ENDBRANCH   1  19
TORSDOF 5
