REMARK  Name = ZINC38582606
REMARK  7 active torsions:
REMARK  status: ('A' for Active; 'I' for Inactive)
REMARK    1  A    between atoms: C_1  and  O_2
REMARK    2  A    between atoms: O_2  and  C_3
REMARK    3  A    between atoms: C_3  and  C_5
REMARK    4  A    between atoms: C_7  and  N_16
REMARK    5  A    between atoms: C_17  and  C_19
REMARK    6  A    between atoms: C_19  and  N_20
REMARK    7  A    between atoms: N_23  and  C_26
REMARK                            x       y       z     vdW  Elec       q    Type
REMARK                         _______ _______ _______ _____ _____    ______ ____
ROOT
ATOM      1  N   UNL     1       1.736  -2.513   1.006  0.00  0.00    -0.288 N 
ATOM      2  C   UNL     1       2.811  -2.930   1.704  0.00  0.00    +0.200 C 
ATOM      3  O   UNL     1       3.788  -3.348   1.121  0.00  0.00    -0.278 OA
ATOM      4  H   UNL     1       0.988  -2.102   1.466  0.00  0.00    +0.155 HD
ENDROOT
BRANCH   1   6
ATOM      5  C   UNL     1       2.680  -3.442  -1.203  0.00  0.00    +0.234 C 
ATOM      6  C   UNL     1       1.701  -2.669  -0.347  0.00  0.00    +0.053 C 
ATOM      7  C   UNL     1       0.762  -2.153  -1.224  0.00  0.00    +0.019 A 
ATOM      8  C   UNL     1      -0.389  -1.352  -1.028  0.00  0.00    +0.026 A 
ATOM      9  C   UNL     1      -1.143  -0.987  -2.094  0.00  0.00    +0.019 A 
ATOM     10  C   UNL     1      -0.814  -1.382  -3.394  0.00  0.00    +0.017 A 
ATOM     11  C   UNL     1       0.272  -2.149  -3.656  0.00  0.00    +0.027 A 
ATOM     12  C   UNL     1       1.111  -2.571  -2.592  0.00  0.00    +0.045 A 
ATOM     13  N   UNL     1       2.207  -3.307  -2.584  0.00  0.00    -0.367 N 
ATOM     14 BR   UNL     1      -2.677   0.084  -1.816  0.00  0.00    -0.050 Br
ATOM     15  H   UNL     1       2.631  -3.695  -3.365  0.00  0.00    +0.161 HD
BRANCH   5  16
ATOM     16  C   UNL     1       2.689  -4.894  -0.798  0.00  0.00    +0.335 C 
ATOM     17  O   UNL     1       1.966  -5.683  -1.359  0.00  0.00    -0.248 OA
BRANCH  16  19
ATOM     18  C   UNL     1       3.458  -6.700   0.519  0.00  0.00    +0.280 C 
ATOM     19  O   UNL     1       3.501  -5.310   0.187  0.00  0.00    -0.466 OA
ENDBRANCH  16  19
ENDBRANCH   5  16
ENDBRANCH   1   6
BRANCH   2  20
ATOM     20  C   UNL     1       2.797  -2.875   3.211  0.00  0.00    +0.019 C 
BRANCH  20  21
ATOM     21  N   UNL     1       4.075  -3.381   3.730  0.00  0.00    +0.387 N 
ATOM     22  C   UNL     1       4.215  -4.801   3.384  0.00  0.00    -0.059 C 
ATOM     23  C   UNL     1       5.595  -5.300   3.824  0.00  0.00    +0.086 C 
ATOM     24  N   UNL     1       5.763  -5.005   5.255  0.00  0.00    -0.333 N 
ATOM     25  C   UNL     1       5.483  -3.637   5.718  0.00  0.00    +0.086 C 
ATOM     26  C   UNL     1       4.108  -3.216   5.189  0.00  0.00    -0.059 C 
ATOM     27  H   UNL     1       4.834  -2.860   3.317  0.00  0.00    -0.081 HD
BRANCH  24  28
ATOM     28  C   UNL     1       6.177  -5.996   6.150  0.00  0.00    +0.030 A 
ATOM     29  C   UNL     1       6.338  -7.304   5.713  0.00  0.00    +0.026 A 
ATOM     30  C   UNL     1       6.748  -8.282   6.598  0.00  0.00    +0.040 A 
ATOM     31  C   UNL     1       6.998  -7.958   7.921  0.00  0.00    +0.124 A 
ATOM     32  C   UNL     1       6.839  -6.654   8.359  0.00  0.00    +0.040 A 
ATOM     33  C   UNL     1       6.434  -5.673   7.476  0.00  0.00    +0.026 A 
ATOM     34  F   UNL     1       7.399  -8.916   8.785  0.00  0.00    -0.205 F 
ENDBRANCH  24  28
ENDBRANCH  20  21
ENDBRANCH   2  20
TORSDOF 6
