REMARK  Name = ZINC10657829
REMARK  9 active torsions:
REMARK  status: ('A' for Active; 'I' for Inactive)
REMARK    1  A    between atoms: C_1  and  C_2
REMARK    2  A    between atoms: C_4  and  C_26
REMARK    3  A    between atoms: C_6  and  S_10
REMARK    4  A    between atoms: C_7  and  C_8
REMARK    5  A    between atoms: S_10  and  C_11
REMARK    6  A    between atoms: C_11  and  C_13
REMARK    7  A    between atoms: C_11  and  C_14
REMARK    8  A    between atoms: C_18  and  C_24
REMARK    9  A    between atoms: C_19  and  C_23
REMARK                            x       y       z     vdW  Elec       q    Type
REMARK                         _______ _______ _______ _____ _____    ______ ____
ROOT
ATOM      1  C   UNL     1       0.518  -6.106   2.934  0.00  0.00    +0.145 A 
ATOM      2  N   UNL     1       1.310  -5.905   3.973  0.00  0.00    -0.216 NA
ATOM      3  C   UNL     1       1.285  -6.688   5.039  0.00  0.00    +0.128 A 
ATOM      4  C   UNL     1       0.379  -7.784   5.074  0.00  0.00    +0.050 A 
ATOM      5  C   UNL     1       0.161  -8.776   6.112  0.00  0.00    -0.028 A 
ATOM      6  C   UNL     1      -0.761  -9.731   5.922  0.00  0.00    -0.008 A 
ATOM      7  S   UNL     1      -1.415  -9.361   4.305  0.00  0.00    -0.074 S 
ATOM      8  C   UNL     1      -0.433  -7.934   3.929  0.00  0.00    +0.114 A 
ATOM      9  N   UNL     1      -0.346  -7.102   2.910  0.00  0.00    -0.224 NA
ATOM     10  C   UNL     1      -1.151 -10.850   6.853  0.00  0.00    +0.052 C 
ATOM     11  C   UNL     1       0.961  -8.732   7.388  0.00  0.00    +0.045 C 
ATOM     12  N   UNL     1       2.131  -6.444   6.106  0.00  0.00    -0.343 N 
ATOM     13  H   UNL     1       2.945  -5.934   5.973  0.00  0.00    +0.144 HD
ATOM     14  H   UNL     1       1.909  -6.782   6.988  0.00  0.00    +0.144 HD
ENDROOT
BRANCH   1  15
ATOM     15  C   UNL     1       0.601  -5.173   1.753  0.00  0.00    +0.117 C 
ATOM     16  C   UNL     1       1.861  -5.486   0.944  0.00  0.00    +0.027 C 
BRANCH  15  17
ATOM     17  S   UNL     1       0.670  -3.458   2.341  0.00  0.00    -0.094 S 
BRANCH  17  23
ATOM     18  C   UNL     1       0.636   1.151  -0.219  0.00  0.00    +0.045 C 
ATOM     19  C   UNL     1       0.601  -0.355  -0.246  0.00  0.00    -0.029 A 
ATOM     20  C   UNL     1       0.523  -1.040  -1.446  0.00  0.00    +0.027 A 
ATOM     21  C   UNL     1       0.493  -2.423  -1.441  0.00  0.00    +0.040 A 
ATOM     22  N   UNL     1       0.538  -3.103  -0.312  0.00  0.00    -0.244 NA
ATOM     23  C   UNL     1       0.613  -2.499   0.864  0.00  0.00    +0.115 A 
ATOM     24  C   UNL     1       0.653  -1.095   0.940  0.00  0.00    +0.086 A 
ATOM     25  C   UNL     1       0.408  -3.166  -2.749  0.00  0.00    +0.065 C 
BRANCH  24  26
ATOM     26  C   UNL     1       0.740  -0.435   2.208  0.00  0.00    +0.102 C 
ATOM     27  N   UNL     1       0.809   0.088   3.214  0.00  0.00    -0.191 NA
ENDBRANCH  24  26
ENDBRANCH  17  23
ENDBRANCH  15  17
ENDBRANCH   1  15
TORSDOF 4
