REMARK  Name = ZINC27061832
REMARK  4 active torsions:
REMARK  status: ('A' for Active; 'I' for Inactive)
REMARK    1  A    between atoms: C_4  and  C_7
REMARK    2  A    between atoms: C_9  and  C_21
REMARK    3  A    between atoms: C_10  and  N_12
REMARK    4  A    between atoms: N_12  and  C_13
REMARK                            x       y       z     vdW  Elec       q    Type
REMARK                         _______ _______ _______ _____ _____    ______ ____
ROOT
ATOM      1  C   UNL     1      -2.021   5.216   0.624  0.00  0.00    +0.231 A 
ATOM      2  N   UNL     1      -2.413   5.045   1.859  0.00  0.00    -0.196 NA
ATOM      3  C   UNL     1      -1.996   3.822   2.281  0.00  0.00    +0.201 A 
ATOM      4  C   UNL     1      -1.306   3.244   1.226  0.00  0.00    +0.225 A 
ATOM      5  O   UNL     1      -1.341   4.129   0.212  0.00  0.00    -0.421 OA
ENDROOT
BRANCH   1   9
ATOM      6  C   UNL     1      -2.772   8.671  -1.729  0.00  0.00    +0.000 A 
ATOM      7  C   UNL     1      -3.242   8.608  -0.429  0.00  0.00    +0.001 A 
ATOM      8  C   UNL     1      -3.001   7.488   0.341  0.00  0.00    +0.013 A 
ATOM      9  C   UNL     1      -2.283   6.418  -0.195  0.00  0.00    +0.037 A 
ATOM     10  C   UNL     1      -1.807   6.491  -1.506  0.00  0.00    +0.013 A 
ATOM     11  C   UNL     1      -2.059   7.614  -2.266  0.00  0.00    +0.001 A 
ENDBRANCH   1   9
BRANCH   4  12
ATOM     12  N   UNL     1      -0.708   2.004   1.215  0.00  0.00    -0.308 N 
ATOM     13  H   UNL     1      -0.747   1.367   2.111  0.00  0.00    +0.149 HD
BRANCH  12  14
ATOM     14  C   UNL     1      -0.019   1.534   0.011  0.00  0.00    +0.096 C 
ATOM     15  C   UNL     1       0.002  -0.004   0.002  0.00  0.00    +0.046 C 
ATOM     16  C   UNL     1       0.996  -0.469  -1.101  0.00  0.00    +0.168 C 
ATOM     17  S   UNL     1       2.358   0.748  -0.862  0.00  0.00    -0.029 S 
ATOM     18  O   UNL     1       3.316   0.199   0.034  0.00  0.00    -0.174 OA
ATOM     19  O   UNL     1       2.781   1.224  -2.132  0.00  0.00    -0.174 OA
ATOM     20  C   UNL     1       1.429   2.081  -0.000  0.00  0.00    +0.188 C 
ENDBRANCH  12  14
ENDBRANCH   4  12
BRANCH   3  21
ATOM     21  C   UNL     1      -2.223   3.242   3.571  0.00  0.00    +0.124 C 
ATOM     22  N   UNL     1      -2.403   2.782   4.594  0.00  0.00    -0.189 NA
ENDBRANCH   3  21
TORSDOF 4
