REMARK  Name = ZINC09088443
REMARK  4 active torsions:
REMARK  status: ('A' for Active; 'I' for Inactive)
REMARK    1  A    between atoms: C_10  and  C_11
REMARK    2  A    between atoms: C_12  and  O_13
REMARK    3  A    between atoms: C_23  and  C_25
REMARK    4  A    between atoms: C_28  and  N_31
REMARK                            x       y       z     vdW  Elec       q    Type
REMARK                         _______ _______ _______ _____ _____    ______ ____
ROOT
ATOM      1  C   UNL     1      -2.508  -0.071   0.024  0.00  0.00    +0.053 A 
ATOM      2  C   UNL     1      -3.070   0.222   1.262  0.00  0.00    +0.135 A 
ATOM      3  C   UNL     1      -4.330   0.880   1.584  0.00  0.00    +0.031 A 
ATOM      4  C   UNL     1      -4.711   1.079   2.920  0.00  0.00    +0.012 A 
ATOM      5  C   UNL     1      -5.893   1.697   3.209  0.00  0.00    +0.001 A 
ATOM      6  C   UNL     1      -6.741   2.142   2.205  0.00  0.00    +0.001 A 
ATOM      7  C   UNL     1      -6.395   1.962   0.879  0.00  0.00    +0.016 A 
ATOM      8  C   UNL     1      -5.203   1.339   0.576  0.00  0.00    +0.025 A 
ATOM      9  S   UNL     1      -4.673   1.063  -1.095  0.00  0.00    -0.073 S 
ATOM     10  C   UNL     1      -3.093   0.242  -1.207  0.00  0.00    +0.084 A 
ATOM     11  N   UNL     1      -2.498  -0.063  -2.411  0.00  0.00    -0.275 N 
ATOM     12  C   UNL     1      -3.109   0.264  -3.567  0.00  0.00    +0.249 C 
ATOM     13  O   UNL     1      -4.186   0.827  -3.547  0.00  0.00    -0.270 OA
ATOM     14  H   UNL     1      -1.523  -0.573  -2.430  0.00  0.00    +0.156 HD
ENDROOT
BRANCH   1  24
ATOM     15  C   UNL     1       2.380   1.421  -0.012  0.00  0.00    +0.001 A 
ATOM     16  C   UNL     1       1.157   2.088   0.002  0.00  0.00    +0.001 A 
ATOM     17  C   UNL     1      -0.017   1.398   0.010  0.00  0.00    +0.009 A 
ATOM     18  C   UNL     1       0.002  -0.004   0.002  0.00  0.00    -0.010 A 
ATOM     19  C   UNL     1       1.244  -0.684  -0.013  0.00  0.00    -0.017 A 
ATOM     20  C   UNL     1       2.436   0.061  -0.020  0.00  0.00    +0.008 A 
ATOM     21  C   UNL     1       1.265  -2.089  -0.021  0.00  0.00    +0.008 A 
ATOM     22  C   UNL     1       0.096  -2.790  -0.015  0.00  0.00    +0.001 A 
ATOM     23  C   UNL     1      -1.132  -2.139   0.000  0.00  0.00    +0.009 A 
ATOM     24  C   UNL     1      -1.198  -0.755   0.009  0.00  0.00    -0.004 A 
ENDBRANCH   1  24
BRANCH  12  25
ATOM     25  C   UNL     1      -2.470  -0.063  -4.859  0.00  0.00    +0.037 A 
ATOM     26  C   UNL     1      -1.231  -0.705  -4.886  0.00  0.00    +0.015 A 
ATOM     27  C   UNL     1      -0.643  -1.012  -6.095  0.00  0.00    +0.033 A 
ATOM     28  C   UNL     1      -1.273  -0.675  -7.280  0.00  0.00    +0.126 A 
ATOM     29  C   UNL     1      -2.499  -0.035  -7.261  0.00  0.00    +0.033 A 
ATOM     30  C   UNL     1      -3.101   0.274  -6.058  0.00  0.00    +0.015 A 
BRANCH  28  31
ATOM     31  N   UNL     1      -0.633  -1.002  -8.574  0.00  0.00    +0.056 N 
ATOM     32  O   UNL     1      -1.186  -0.707  -9.618  0.00  0.00    -0.126 OA
ATOM     33  O   UNL     1       0.446  -1.567  -8.594  0.00  0.00    -0.126 OA
ENDBRANCH  28  31
ENDBRANCH  12  25
BRANCH   2  34
ATOM     34  O   UNL     1      -2.406  -0.126   2.226  0.00  0.00    -0.505 OA
ATOM     35  H   UNL     1      -2.774   0.066   3.245  0.00  0.00    +0.292 HD
ENDBRANCH   2  34
TORSDOF 4
