REMARK  Name = ZINC39938853
REMARK  4 active torsions:
REMARK  status: ('A' for Active; 'I' for Inactive)
REMARK    1  A    between atoms: C_4  and  C_7
REMARK    2  A    between atoms: C_9  and  C_17
REMARK    3  A    between atoms: C_17  and  C_19
REMARK    4  A    between atoms: C_19  and  N_20
REMARK                            x       y       z     vdW  Elec       q    Type
REMARK                         _______ _______ _______ _____ _____    ______ ____
ROOT
ATOM      1  C   UNL     1       4.194  -0.399  -2.594  0.00  0.00    +0.180 C 
ATOM      2  O   UNL     1       4.099   0.809  -2.523  0.00  0.00    -0.291 OA
ENDROOT
BRANCH   1   4
ATOM      3  C   UNL     1       3.711  -0.707  -0.038  0.00  0.00    +0.144 C 
ATOM      4  C   UNL     1       4.019  -1.190  -1.438  0.00  0.00    +0.032 C 
ATOM      5  C   UNL     1       4.095  -2.568  -1.348  0.00  0.00    +0.007 A 
ATOM      6  C   UNL     1       4.350  -3.582  -2.301  0.00  0.00    +0.010 A 
ATOM      7  C   UNL     1       4.362  -4.881  -1.927  0.00  0.00    +0.001 A 
ATOM      8  C   UNL     1       4.128  -5.286  -0.603  0.00  0.00    +0.002 A 
ATOM      9  C   UNL     1       3.876  -4.398   0.383  0.00  0.00    +0.026 A 
ATOM     10  C   UNL     1       3.844  -2.962   0.060  0.00  0.00    +0.044 A 
ATOM     11  N   UNL     1       3.628  -1.909   0.798  0.00  0.00    -0.373 N 
ATOM     12  H   UNL     1       3.442  -1.918   1.750  0.00  0.00    +0.161 HD
BRANCH   3  16
ATOM     13  C   UNL     1      -0.017   1.378   0.010  0.00  0.00    +0.000 A 
ATOM     14  C   UNL     1       1.171   2.086   0.002  0.00  0.00    +0.000 A 
ATOM     15  C   UNL     1       2.377   1.411  -0.013  0.00  0.00    +0.006 A 
ATOM     16  C   UNL     1       2.396   0.029  -0.020  0.00  0.00    -0.021 A 
ATOM     17  C   UNL     1       1.208  -0.679  -0.012  0.00  0.00    +0.006 A 
ATOM     18  C   UNL     1       0.002  -0.004   0.002  0.00  0.00    +0.000 A 
ENDBRANCH   3  16
ENDBRANCH   1   4
BRANCH   1  19
ATOM     19  C   UNL     1       4.498  -1.055  -3.916  0.00  0.00    +0.197 C 
BRANCH  19  20
ATOM     20  N   UNL     1       4.634  -0.027  -4.951  0.00  0.00    -0.216 N 
ATOM     21  C   UNL     1       3.610   0.436  -5.699  0.00  0.00    +0.252 C 
ATOM     22  O   UNL     1       2.448   0.093  -5.644  0.00  0.00    -0.272 OA
ATOM     23  C   UNL     1       4.217   1.470  -6.618  0.00  0.00    +0.144 C 
ATOM     24  C   UNL     1       4.037   1.056  -8.075  0.00  0.00    +0.081 C 
ATOM     25  C   UNL     1       4.418   2.247  -8.966  0.00  0.00    +0.232 C 
ATOM     26  O   UNL     1       3.506   3.315  -8.709  0.00  0.00    -0.492 OA
ATOM     27  C   UNL     1       3.283   3.666  -7.416  0.00  0.00    +0.126 A 
ATOM     28  C   UNL     1       3.602   2.818  -6.367  0.00  0.00    +0.027 A 
ATOM     29  C   UNL     1       3.354   3.213  -5.064  0.00  0.00    +0.010 A 
ATOM     30  C   UNL     1       2.792   4.449  -4.804  0.00  0.00    +0.001 A 
ATOM     31  C   UNL     1       2.475   5.297  -5.848  0.00  0.00    +0.004 A 
ATOM     32  C   UNL     1       2.719   4.909  -7.150  0.00  0.00    +0.046 A 
ATOM     33  N   UNL     1       5.640   1.478  -6.257  0.00  0.00    -0.281 N 
ATOM     34  C   UNL     1       5.787   0.574  -5.269  0.00  0.00    +0.310 C 
ATOM     35  O   UNL     1       6.848   0.329  -4.729  0.00  0.00    -0.252 OA
ATOM     36  H   UNL     1       6.336   2.028  -6.649  0.00  0.00    +0.152 HD
ENDBRANCH  19  20
ENDBRANCH   1  19
TORSDOF 4
