REMARK  Name = ZINC31868354
REMARK  8 active torsions:
REMARK  status: ('A' for Active; 'I' for Inactive)
REMARK    1  A    between atoms: C_1  and  C_2
REMARK    2  A    between atoms: C_6  and  C_11
REMARK    3  A    between atoms: N_7  and  C_10
REMARK    4  A    between atoms: C_13  and  C_14
REMARK    5  A    between atoms: N_16  and  C_17
REMARK    6  A    between atoms: C_17  and  C_18
REMARK    7  A    between atoms: C_17  and  C_19
REMARK    8  A    between atoms: C_17  and  C_20
REMARK                            x       y       z     vdW  Elec       q    Type
REMARK                         _______ _______ _______ _____ _____    ______ ____
ROOT
ATOM      1  C   UNL     1       1.895  -2.440   3.114  0.00  0.00    +0.046 C 
ATOM      2  C   UNL     1       1.182  -2.990   1.906  0.00  0.00    -0.017 A 
ATOM      3  C   UNL     1       1.088  -4.371   1.718  0.00  0.00    +0.076 A 
ATOM      4  C   UNL     1       0.407  -4.788   0.551  0.00  0.00    +0.116 A 
ATOM      5  N   UNL     1       0.253  -6.072   0.252  0.00  0.00    -0.227 NA
ATOM      6  C   UNL     1       0.723  -7.015   1.022  0.00  0.00    +0.110 A 
ATOM      7  N   UNL     1       1.393  -6.738   2.168  0.00  0.00    -0.299 N 
ATOM      8  C   UNL     1       1.607  -5.469   2.566  0.00  0.00    +0.262 A 
ATOM      9  O   UNL     1       2.211  -5.230   3.596  0.00  0.00    -0.267 OA
ATOM     10  C   UNL     1       1.897  -7.842   2.989  0.00  0.00    +0.153 C 
ATOM     11  C   UNL     1       0.514  -8.454   0.627  0.00  0.00    +0.086 C 
ATOM     12  S   UNL     1      -0.069  -3.258  -0.212  0.00  0.00    -0.064 S 
ATOM     13  C   UNL     1       0.624  -2.142   0.996  0.00  0.00    +0.079 A 
ENDROOT
BRANCH  13  14
ATOM     14  C   UNL     1       0.604  -0.675   1.004  0.00  0.00    +0.251 C 
ATOM     15  O   UNL     1       1.132  -0.065   1.915  0.00  0.00    -0.270 OA
ATOM     16  N   UNL     1       0.002  -0.004   0.002  0.00  0.00    -0.306 N 
ATOM     17  H   UNL     1      -0.474  -0.556  -0.822  0.00  0.00    +0.150 HD
BRANCH  16  18
ATOM     18  C   UNL     1      -0.018   1.461   0.010  0.00  0.00    +0.026 C 
ATOM     19  C   UNL     1       1.418   1.990  -0.001  0.00  0.00    +0.031 C 
ATOM     20  C   UNL     1      -0.758   1.968  -1.230  0.00  0.00    +0.031 C 
ATOM     21  C   UNL     1      -0.734   1.954   1.269  0.00  0.00    +0.031 C 
ENDBRANCH  16  18
ENDBRANCH  13  14
TORSDOF 2
