REMARK  Name = ZINC39711168
REMARK  14 active torsions:
REMARK  status: ('A' for Active; 'I' for Inactive)
REMARK    1  A    between atoms: C_1  and  C_2
REMARK    2  A    between atoms: C_2  and  C_3
REMARK    3  A    between atoms: C_3  and  C_4
REMARK    4  A    between atoms: C_3  and  C_5
REMARK    5  A    between atoms: C_3  and  N_6
REMARK    6  A    between atoms: C_7  and  C_12
REMARK    7  A    between atoms: C_12  and  C_14
REMARK    8  A    between atoms: C_12  and  N_28
REMARK    9  A    between atoms: C_18  and  C_27
REMARK   10  A    between atoms: C_20  and  C_26
REMARK   11  A    between atoms: N_28  and  C_29
REMARK   12  A    between atoms: N_28  and  C_37
REMARK   13  A    between atoms: C_29  and  C_30
REMARK   14  A    between atoms: C_37  and  C_38
REMARK                            x       y       z     vdW  Elec       q    Type
REMARK                         _______ _______ _______ _____ _____    ______ ____
ROOT
ATOM      1  C   UNL     1       3.476  -2.787  -1.612  0.00  0.00    -0.010 C 
ENDROOT
BRANCH   1   2
ATOM      2  C   UNL     1       3.768  -3.268  -0.189  0.00  0.00    +0.088 C 
ATOM      3  C   UNL     1       4.990  -2.525   0.312  0.00  0.00    -0.006 C 
ATOM      4  C   UNL     1       6.061  -3.274   0.702  0.00  0.00    -0.004 A 
ATOM      5  C   UNL     1       7.281  -2.638   1.199  0.00  0.00    -0.042 A 
ATOM      6  C   UNL     1       8.323  -3.423   1.576  0.00  0.00    +0.007 A 
ATOM      7  C   UNL     1       8.249  -4.814   1.498  0.00  0.00    -0.048 A 
ATOM      8  C   UNL     1       7.145  -5.465   1.046  0.00  0.00    +0.027 A 
ATOM      9  C   UNL     1       6.010  -4.745   0.631  0.00  0.00    +0.041 A 
ATOM     10  N   UNL     1       4.933  -5.394   0.191  0.00  0.00    -0.285 N 
ATOM     11  C   UNL     1       3.836  -4.779  -0.216  0.00  0.00    +0.223 C 
ATOM     12  O   UNL     1       2.884  -5.426  -0.609  0.00  0.00    -0.275 OA
ATOM     13  C   UNL     1       9.441  -5.627   1.932  0.00  0.00    +0.044 C 
ATOM     14  C   UNL     1       7.381  -1.137   1.290  0.00  0.00    +0.044 C 
ATOM     15  H   UNL     1       4.955  -6.363   0.166  0.00  0.00    +0.155 HD
ENDBRANCH   1   2
BRANCH   1  17
ATOM     16  N   UNL     1       1.239  -2.082  -0.828  0.00  0.00    -0.211 N 
ATOM     17  C   UNL     1       1.968  -2.834  -1.867  0.00  0.00    +0.183 C 
ATOM     18  N   UNL     1       1.450  -4.205  -1.704  0.00  0.00    -0.229 N 
ATOM     19  N   UNL     1       0.524  -4.144  -0.656  0.00  0.00    -0.064 NA
ATOM     20  N   UNL     1       0.416  -3.014  -0.186  0.00  0.00    -0.061 NA
ATOM     21  H   UNL     1       1.699  -4.989  -2.219  0.00  0.00    +0.172 HD
BRANCH  16  22
ATOM     22  C   UNL     1       1.356  -0.653  -0.527  0.00  0.00    +0.050 C 
ATOM     23  C   UNL     1       0.935   0.163  -1.751  0.00  0.00    +0.033 C 
ATOM     24  C   UNL     1       2.807  -0.325  -0.170  0.00  0.00    +0.033 C 
BRANCH  22  26
ATOM     25  C   UNL     1       0.644   1.165   1.032  0.00  0.00    +0.006 C 
ATOM     26  C   UNL     1       0.449  -0.305   0.655  0.00  0.00    +0.023 C 
ENDBRANCH  22  26
ENDBRANCH  16  22
ENDBRANCH   1  17
BRANCH   1  27
ATOM     27  N   UNL     1       4.163  -3.658  -2.574  0.00  0.00    +0.392 N 
ATOM     28  H   UNL     1       3.909  -4.618  -2.400  0.00  0.00    -0.080 HD
BRANCH  27  29
ATOM     29  C   UNL     1       5.616  -3.500  -2.427  0.00  0.00    -0.042 C 
BRANCH  29  30
ATOM     30  C   UNL     1       6.321  -4.537  -3.263  0.00  0.00    -0.064 A 
ATOM     31  C   UNL     1       6.498  -5.817  -2.772  0.00  0.00    +0.004 A 
ATOM     32  C   UNL     1       7.144  -6.769  -3.538  0.00  0.00    +0.038 A 
ATOM     33  C   UNL     1       7.614  -6.440  -4.798  0.00  0.00    +0.123 A 
ATOM     34  C   UNL     1       7.437  -5.157  -5.288  0.00  0.00    +0.038 A 
ATOM     35  C   UNL     1       6.786  -4.209  -4.523  0.00  0.00    +0.004 A 
ATOM     36  F   UNL     1       8.246  -7.369  -5.547  0.00  0.00    -0.205 F 
ENDBRANCH  29  30
ENDBRANCH  27  29
BRANCH  27  37
ATOM     37  C   UNL     1       3.767  -3.287  -3.939  0.00  0.00    -0.002 C 
BRANCH  37  38
ATOM     38  C   UNL     1       3.995  -1.812  -4.146  0.00  0.00    +0.089 A 
ATOM     39  C   UNL     1       5.077  -1.257  -4.722  0.00  0.00    +0.042 A 
ATOM     40  C   UNL     1       4.875   0.143  -4.708  0.00  0.00    +0.041 A 
ATOM     41  C   UNL     1       3.682   0.359  -4.125  0.00  0.00    +0.195 A 
ATOM     42  O   UNL     1       3.151  -0.829  -3.792  0.00  0.00    -0.470 OA
ENDBRANCH  37  38
ENDBRANCH  27  37
ENDBRANCH   1  27
TORSDOF 9
