REMARK  Name = ZINC39652629
REMARK  10 active torsions:
REMARK  status: ('A' for Active; 'I' for Inactive)
REMARK    1  A    between atoms: C_1  and  C_2
REMARK    2  A    between atoms: C_2  and  O_3
REMARK    3  A    between atoms: O_3  and  C_4
REMARK    4  A    between atoms: C_9  and  C_10
REMARK    5  A    between atoms: C_10  and  C_11
REMARK    6  A    between atoms: C_11  and  N_12
REMARK    7  A    between atoms: C_13  and  C_15
REMARK    8  A    between atoms: C_26  and  C_28
REMARK    9  A    between atoms: C_33  and  O_34
REMARK   10  A    between atoms: O_34  and  C_35
REMARK                            x       y       z     vdW  Elec       q    Type
REMARK                         _______ _______ _______ _____ _____    ______ ____
ROOT
ATOM      1  C   UNL     1      -7.205   1.181  -2.517  0.00  0.00    +0.100 C 
ATOM      2  C   UNL     1      -6.941   2.429  -1.646  0.00  0.00    +0.121 C 
ATOM      3  N   UNL     1      -6.484   3.464  -2.603  0.00  0.00    -0.296 N 
ATOM      4  C   UNL     1      -7.338   3.264  -3.798  0.00  0.00    +0.115 C 
ATOM      5  C   UNL     1      -7.469   1.733  -3.928  0.00  0.00    -0.004 C 
ATOM      6  C   UNL     1      -8.875   1.361  -4.387  0.00  0.00    -0.010 C 
ATOM      7  C   UNL     1      -9.093   1.870  -5.815  0.00  0.00    -0.082 C 
ATOM      8  N   UNL     1      -8.091   1.274  -6.707  0.00  0.00    +0.379 N 
ATOM      9  C   UNL     1      -6.747   1.713  -6.315  0.00  0.00    -0.082 C 
ATOM     10  C   UNL     1      -6.430   1.197  -4.908  0.00  0.00    -0.010 C 
ATOM     11  C   UNL     1      -5.512   4.381  -2.426  0.00  0.00    +0.250 C 
ATOM     12  O   UNL     1      -4.830   4.358  -1.419  0.00  0.00    -0.270 OA
ATOM     13  H   UNL     1      -8.146   0.268  -6.648  0.00  0.00    -0.086 HD
ATOM     14  H   UNL     1      -8.274   1.563  -7.657  0.00  0.00    -0.086 HD
ENDROOT
BRANCH  11  15
ATOM     15  C   UNL     1      -5.275   5.412  -3.454  0.00  0.00    +0.078 A 
ATOM     16  C   UNL     1      -6.347   5.945  -4.175  0.00  0.00    +0.017 A 
ATOM     17  C   UNL     1      -6.119   6.908  -5.133  0.00  0.00    +0.001 A 
ATOM     18  C   UNL     1      -4.832   7.352  -5.386  0.00  0.00    +0.004 A 
ATOM     19  C   UNL     1      -3.763   6.835  -4.681  0.00  0.00    +0.046 A 
ATOM     20  C   UNL     1      -3.975   5.868  -3.708  0.00  0.00    +0.132 A 
BRANCH  20  21
ATOM     21  O   UNL     1      -2.927   5.362  -3.011  0.00  0.00    -0.494 OA
ATOM     22  C   UNL     1      -1.630   5.875  -3.326  0.00  0.00    +0.277 C 
ENDBRANCH  20  21
ENDBRANCH  11  15
BRANCH   1  24
ATOM     23  N   UNL     1      -6.151  -1.052  -2.658  0.00  0.00    -0.315 N 
ATOM     24  C   UNL     1      -5.997   0.280  -2.524  0.00  0.00    +0.218 C 
ATOM     25  O   UNL     1      -4.886   0.754  -2.408  0.00  0.00    -0.275 OA
ATOM     26  H   UNL     1      -7.039  -1.431  -2.751  0.00  0.00    +0.149 HD
BRANCH  23  27
ATOM     27  C   UNL     1      -4.976  -1.928  -2.665  0.00  0.00    +0.109 C 
BRANCH  27  28
ATOM     28  C   UNL     1      -5.425  -3.381  -2.830  0.00  0.00    +0.057 C 
BRANCH  28  34
ATOM     29  C   UNL     1      -3.675  -4.725  -1.639  0.00  0.00    +0.124 A 
ATOM     30  C   UNL     1      -2.565  -5.559  -1.648  0.00  0.00    +0.046 A 
ATOM     31  C   UNL     1      -2.001  -5.941  -2.849  0.00  0.00    +0.004 A 
ATOM     32  C   UNL     1      -2.540  -5.494  -4.041  0.00  0.00    +0.000 A 
ATOM     33  C   UNL     1      -3.644  -4.663  -4.035  0.00  0.00    +0.007 A 
ATOM     34  C   UNL     1      -4.217  -4.282  -2.836  0.00  0.00    -0.004 A 
BRANCH  29  35
ATOM     35  O   UNL     1      -4.232  -4.348  -0.458  0.00  0.00    -0.492 OA
BRANCH  35  37
ATOM     36  C   UNL     1      -4.382  -4.314   1.954  0.00  0.00    +0.048 C 
ATOM     37  C   UNL     1      -3.621  -4.842   0.736  0.00  0.00    +0.225 C 
ENDBRANCH  35  37
ENDBRANCH  29  35
ENDBRANCH  28  34
ENDBRANCH  27  28
ENDBRANCH  23  27
ENDBRANCH   1  24
TORSDOF 8
