REMARK  Name = ZINC20610765
REMARK  7 active torsions:
REMARK  status: ('A' for Active; 'I' for Inactive)
REMARK    1  A    between atoms: C_1  and  C_2
REMARK    2  A    between atoms: C_2  and  C_4
REMARK    3  A    between atoms: C_2  and  O_36
REMARK    4  A    between atoms: N_12  and  C_15
REMARK    5  A    between atoms: C_15  and  C_16
REMARK    6  A    between atoms: C_19  and  O_22
REMARK    7  A    between atoms: O_22  and  C_23
REMARK                            x       y       z     vdW  Elec       q    Type
REMARK                         _______ _______ _______ _____ _____    ______ ____
ROOT
ATOM      1  C   UNL     1      -1.433  -0.534   0.013  0.00  0.00    +0.096 C 
ATOM      2  C   UNL     1      -1.436  -2.077   0.043  0.00  0.00    +0.109 C 
ATOM      3  C   UNL     1      -2.633  -2.454   0.961  0.00  0.00    +0.123 C 
ATOM      4  C   UNL     1      -3.593  -3.141   0.016  0.00  0.00    +0.229 C 
ATOM      5  O   UNL     1      -4.674  -3.596   0.324  0.00  0.00    -0.275 OA
ATOM      6  N   UNL     1      -3.064  -3.169  -1.212  0.00  0.00    -0.237 N 
ATOM      7  C   UNL     1      -1.841  -2.600  -1.316  0.00  0.00    +0.228 C 
ATOM      8  O   UNL     1      -1.175  -2.516  -2.326  0.00  0.00    -0.275 OA
ATOM      9  C   UNL     1      -3.207  -1.110   1.421  0.00  0.00    +0.136 C 
ATOM     10  N   UNL     1      -2.127  -0.124   1.263  0.00  0.00    -0.293 NA
ATOM     11  C   UNL     1      -4.405  -0.710   0.609  0.00  0.00    +0.005 A 
ATOM     12  C   UNL     1      -4.607  -0.482  -0.735  0.00  0.00    +0.008 A 
ATOM     13  C   UNL     1      -5.859  -0.114  -1.195  0.00  0.00    +0.002 A 
ATOM     14  C   UNL     1      -6.907   0.024  -0.303  0.00  0.00    +0.022 A 
ATOM     15  C   UNL     1      -6.710  -0.205   1.044  0.00  0.00    +0.062 A 
ATOM     16  C   UNL     1      -5.452  -0.576   1.516  0.00  0.00    +0.057 A 
ATOM     17  N   UNL     1      -5.009  -0.858   2.810  0.00  0.00    -0.282 N 
ATOM     18  C   UNL     1      -3.701  -1.180   2.840  0.00  0.00    +0.243 C 
ATOM     19  O   UNL     1      -3.050  -1.471   3.821  0.00  0.00    -0.273 OA
ATOM     20 CL   UNL     1      -8.033  -0.029   2.154  0.00  0.00    -0.082 Cl
ATOM     21  H   UNL     1      -1.499  -0.161   2.053  0.00  0.00    +0.124 HD
ATOM     22  H   UNL     1      -5.577  -0.825   3.596  0.00  0.00    +0.155 HD
ENDROOT
BRANCH   1  24
ATOM     23  C   UNL     1      -0.019   1.526   0.010  0.00  0.00    +0.039 C 
ATOM     24  C   UNL     1       0.002  -0.004   0.002  0.00  0.00    +0.129 C 
BRANCH  24  25
ATOM     25  O   UNL     1       0.671  -0.465  -1.174  0.00  0.00    -0.390 OA
ATOM     26  H   UNL     1       1.588  -0.167  -1.247  0.00  0.00    +0.210 HD
ENDBRANCH  24  25
ENDBRANCH   1  24
BRANCH   6  27
ATOM     27  C   UNL     1      -3.751  -3.774  -2.357  0.00  0.00    +0.151 C 
BRANCH  27  28
ATOM     28  C   UNL     1      -4.599  -2.733  -3.041  0.00  0.00    -0.029 A 
ATOM     29  C   UNL     1      -5.910  -2.541  -2.644  0.00  0.00    +0.009 A 
ATOM     30  C   UNL     1      -6.689  -1.588  -3.270  0.00  0.00    +0.046 A 
ATOM     31  C   UNL     1      -6.157  -0.823  -4.298  0.00  0.00    +0.120 A 
ATOM     32  C   UNL     1      -4.841  -1.017  -4.694  0.00  0.00    +0.046 A 
ATOM     33  C   UNL     1      -4.064  -1.968  -4.061  0.00  0.00    +0.009 A 
BRANCH  31  34
ATOM     34  O   UNL     1      -6.922   0.115  -4.915  0.00  0.00    -0.495 OA
ATOM     35  C   UNL     1      -6.307   0.865  -5.965  0.00  0.00    +0.277 C 
ENDBRANCH  31  34
ENDBRANCH  27  28
ENDBRANCH   6  27
TORSDOF 5
