REMARK  Name = ZINC14456946
REMARK  9 active torsions:
REMARK  status: ('A' for Active; 'I' for Inactive)
REMARK    1  A    between atoms: C_1  and  C_2
REMARK    2  A    between atoms: C_5  and  N_9
REMARK    3  A    between atoms: C_7  and  C_8
REMARK    4  A    between atoms: N_9  and  S_10
REMARK    5  A    between atoms: S_10  and  C_13
REMARK    6  A    between atoms: C_26  and  C_29
REMARK    7  A    between atoms: C_32  and  O_36
REMARK    8  A    between atoms: C_33  and  O_35
REMARK    9  A    between atoms: O_36  and  C_37
REMARK                            x       y       z     vdW  Elec       q    Type
REMARK                         _______ _______ _______ _____ _____    ______ ____
ROOT
ATOM      1  C   UNL     1       4.131   0.313  -2.235  0.00  0.00    +0.109 A 
ATOM      2  C   UNL     1       3.413   0.078  -3.393  0.00  0.00    +0.030 A 
ATOM      3  C   UNL     1       2.062   0.353  -3.438  0.00  0.00    +0.025 A 
ATOM      4  C   UNL     1       1.412   0.867  -2.322  0.00  0.00    +0.031 A 
ATOM      5  C   UNL     1       2.148   1.116  -1.159  0.00  0.00    -0.018 A 
ATOM      6  C   UNL     1       3.496   0.832  -1.121  0.00  0.00    +0.034 A 
ATOM      7  C   UNL     1       1.425   1.687  -0.003  0.00  0.00    +0.049 C 
ATOM      8  C   UNL     1       1.888   1.485   1.394  0.00  0.00    -0.023 C 
ATOM      9  C   UNL     1       0.830   1.474   2.195  0.00  0.00    -0.030 C 
ATOM     10  C   UNL     1      -0.450   1.636   1.372  0.00  0.00    +0.033 C 
ATOM     11  C   UNL     1      -0.013   1.086   0.008  0.00  0.00    +0.029 C 
ATOM     12  C   UNL     1      -0.692   1.638  -1.233  0.00  0.00    +0.105 C 
ATOM     13  N   UNL     1       0.033   1.102  -2.380  0.00  0.00    -0.336 N 
ATOM     14  H   UNL     1      -0.451   0.898  -3.196  0.00  0.00    +0.147 HD
ENDROOT
BRANCH  12  15
ATOM     15  C   UNL     1      -2.134   1.202  -1.274  0.00  0.00    -0.023 A 
ATOM     16  C   UNL     1      -2.458  -0.068  -1.715  0.00  0.00    +0.009 A 
ATOM     17  C   UNL     1      -3.779  -0.472  -1.755  0.00  0.00    +0.050 A 
ATOM     18  C   UNL     1      -4.782   0.395  -1.353  0.00  0.00    +0.161 A 
ATOM     19  C   UNL     1      -4.456   1.673  -0.909  0.00  0.00    +0.159 A 
ATOM     20  C   UNL     1      -3.129   2.071  -0.867  0.00  0.00    +0.054 A 
BRANCH  19  21
ATOM     21  O   UNL     1      -5.436   2.528  -0.513  0.00  0.00    -0.503 OA
ATOM     22  H   UNL     1      -5.652   2.471   0.428  0.00  0.00    +0.292 HD
ENDBRANCH  19  21
BRANCH  18  23
ATOM     23  O   UNL     1      -6.082  -0.001  -1.392  0.00  0.00    -0.491 OA
ATOM     24  C   UNL     1      -6.343  -1.326  -1.859  0.00  0.00    +0.277 C 
ENDBRANCH  18  23
ENDBRANCH  12  15
BRANCH   1  25
ATOM     25  S   UNL     1       5.855  -0.048  -2.178  0.00  0.00    +0.072 S 
ATOM     26  O   UNL     1       6.321  -0.013  -3.520  0.00  0.00    -0.150 OA
ATOM     27  O   UNL     1       6.408   0.772  -1.158  0.00  0.00    -0.150 OA
BRANCH  25  28
ATOM     28  N   UNL     1       6.011  -1.614  -1.663  0.00  0.00    -0.216 N 
ATOM     29  H   UNL     1       6.436  -1.804  -0.813  0.00  0.00    +0.174 HD
BRANCH  28  34
ATOM     30  C   UNL     1       4.058  -5.862  -4.873  0.00  0.00    +0.044 C 
ATOM     31  C   UNL     1       4.577  -4.732  -4.020  0.00  0.00    -0.047 A 
ATOM     32  C   UNL     1       5.306  -3.709  -4.598  0.00  0.00    +0.005 A 
ATOM     33  C   UNL     1       5.782  -2.673  -3.820  0.00  0.00    +0.025 A 
ATOM     34  C   UNL     1       5.529  -2.660  -2.454  0.00  0.00    +0.048 A 
ATOM     35  C   UNL     1       4.802  -3.692  -1.875  0.00  0.00    +0.028 A 
ATOM     36  C   UNL     1       4.323  -4.722  -2.661  0.00  0.00    -0.046 A 
ATOM     37  C   UNL     1       3.529  -5.839  -2.035  0.00  0.00    +0.044 C 
ENDBRANCH  28  34
ENDBRANCH  25  28
ENDBRANCH   1  25
TORSDOF 6
