REMARK  Name = ZINC01428027
REMARK  7 active torsions:
REMARK  status: ('A' for Active; 'I' for Inactive)
REMARK    1  A    between atoms: C_1  and  C_2
REMARK    2  A    between atoms: C_3  and  C_25
REMARK    3  A    between atoms: C_7  and  C_15
REMARK    4  A    between atoms: C_9  and  C_13
REMARK    5  A    between atoms: C_10  and  N_12
REMARK    6  A    between atoms: C_25  and  O_27
REMARK    7  A    between atoms: O_27  and  C_28
REMARK                            x       y       z     vdW  Elec       q    Type
REMARK                         _______ _______ _______ _____ _____    ______ ____
ROOT
ATOM      1  C   UNL     1       5.786  -0.076  -5.250  0.00  0.00    +0.052 C 
ATOM      2  C   UNL     1       5.454  -0.053  -3.780  0.00  0.00    +0.005 A 
ATOM      3  C   UNL     1       6.094   0.636  -2.769  0.00  0.00    +0.111 A 
ATOM      4  C   UNL     1       5.573   0.491  -1.423  0.00  0.00    +0.155 A 
ATOM      5  C   UNL     1       4.492  -0.325  -1.309  0.00  0.00    +0.046 A 
ATOM      6  S   UNL     1       4.176  -0.883  -2.954  0.00  0.00    -0.093 S 
ATOM      7  C   UNL     1       3.771  -0.638  -0.037  0.00  0.00    +0.105 C 
ATOM      8  C   UNL     1       4.622  -0.147   1.111  0.00  0.00    +0.099 C 
ATOM      9  C   UNL     1       5.686   0.662   0.902  0.00  0.00    +0.199 C 
ATOM     10  O   UNL     1       6.085   1.102  -0.303  0.00  0.00    -0.440 OA
ENDROOT
BRANCH   7  11
ATOM     11  C   UNL     1       2.437   0.064  -0.020  0.00  0.00    -0.026 A 
ATOM     12  C   UNL     1       2.380   1.424  -0.022  0.00  0.00    +0.005 A 
ATOM     13  C   UNL     1       1.157   2.090  -0.008  0.00  0.00    +0.001 A 
ATOM     14  C   UNL     1      -0.017   1.401   0.009  0.00  0.00    +0.008 A 
ATOM     15  C   UNL     1       0.002  -0.004   0.012  0.00  0.00    -0.018 A 
ATOM     16  C   UNL     1       1.247  -0.682  -0.003  0.00  0.00    -0.014 A 
ATOM     17  C   UNL     1       1.266  -2.087  -0.001  0.00  0.00    +0.009 A 
ATOM     18  C   UNL     1       0.093  -2.777   0.015  0.00  0.00    +0.001 A 
ATOM     19  C   UNL     1      -1.131  -2.110   0.030  0.00  0.00    +0.001 A 
ATOM     20  C   UNL     1      -1.189  -0.750   0.029  0.00  0.00    +0.008 A 
ENDBRANCH   7  11
BRANCH   9  21
ATOM     21  N   UNL     1       6.409   1.061   1.998  0.00  0.00    -0.328 N 
ATOM     22  H   UNL     1       6.151   0.763   2.884  0.00  0.00    +0.145 HD
ATOM     23  H   UNL     1       7.178   1.641   1.887  0.00  0.00    +0.145 HD
ENDBRANCH   9  21
BRANCH   8  24
ATOM     24  C   UNL     1       4.296  -0.546   2.448  0.00  0.00    +0.101 C 
ATOM     25  N   UNL     1       4.038  -0.863   3.507  0.00  0.00    -0.191 NA
ENDBRANCH   8  24
BRANCH   3  26
ATOM     26  C   UNL     1       7.260   1.485  -3.046  0.00  0.00    +0.343 C 
ATOM     27  O   UNL     1       8.380   1.013  -3.003  0.00  0.00    -0.245 OA
BRANCH  26  28
ATOM     28  O   UNL     1       7.089   2.788  -3.348  0.00  0.00    -0.464 OA
ATOM     29  C   UNL     1       8.286   3.566  -3.610  0.00  0.00    +0.280 C 
ENDBRANCH  26  28
ENDBRANCH   3  26
TORSDOF 5
