REMARK  Name = ZINC41585605
REMARK  7 active torsions:
REMARK  status: ('A' for Active; 'I' for Inactive)
REMARK    1  A    between atoms: C_1  and  C_2
REMARK    2  A    between atoms: C_2  and  C_3
REMARK    3  A    between atoms: C_6  and  C_9
REMARK    4  A    between atoms: C_16  and  O_34
REMARK    5  A    between atoms: C_17  and  C_20
REMARK    6  A    between atoms: C_20  and  N_21
REMARK    7  A    between atoms: N_24  and  C_27
REMARK                            x       y       z     vdW  Elec       q    Type
REMARK                         _______ _______ _______ _____ _____    ______ ____
ROOT
ATOM      1  C   UNL     1       2.697  -1.868  -4.708  0.00  0.00    +0.058 C 
ATOM      2  C   UNL     1       4.049  -1.976  -4.730  0.00  0.00    +0.176 C 
ATOM      3  C   UNL     1       4.958  -1.759  -3.593  0.00  0.00    +0.231 C 
ATOM      4  O   UNL     1       4.664  -1.451  -2.451  0.00  0.00    -0.283 OA
ATOM      5  C   UNL     1       6.304  -2.000  -4.145  0.00  0.00    +0.068 A 
ATOM      6  C   UNL     1       7.584  -1.957  -3.591  0.00  0.00    +0.019 A 
ATOM      7  C   UNL     1       8.672  -2.235  -4.369  0.00  0.00    +0.046 A 
ATOM      8  C   UNL     1       8.506  -2.559  -5.713  0.00  0.00    +0.125 A 
ATOM      9  C   UNL     1       7.241  -2.605  -6.276  0.00  0.00    +0.051 A 
ATOM     10  C   UNL     1       6.124  -2.325  -5.499  0.00  0.00    +0.147 A 
ATOM     11  O   UNL     1       4.807  -2.307  -5.801  0.00  0.00    -0.451 OA
ENDROOT
BRANCH   1  15
ATOM     12  C   UNL     1       0.752  -0.312  -1.276  0.00  0.00    -0.048 A 
ATOM     13  C   UNL     1       0.171  -1.349  -1.986  0.00  0.00    +0.004 A 
ATOM     14  C   UNL     1       0.797  -1.861  -3.102  0.00  0.00    +0.008 A 
ATOM     15  C   UNL     1       2.023  -1.328  -3.518  0.00  0.00    -0.021 A 
ATOM     16  C   UNL     1       2.603  -0.280  -2.796  0.00  0.00    +0.008 A 
ATOM     17  C   UNL     1       1.961   0.224  -1.684  0.00  0.00    +0.004 A 
BRANCH  12  19
ATOM     18  C   UNL     1      -0.874   1.379  -0.472  0.00  0.00    +0.009 C 
ATOM     19  C   UNL     1       0.060   0.241  -0.057  0.00  0.00    +0.032 C 
ENDBRANCH  12  19
ENDBRANCH   1  15
BRANCH   8  20
ATOM     20  O   UNL     1       9.593  -2.833  -6.478  0.00  0.00    -0.506 OA
ATOM     21  H   UNL     1       9.844  -3.767  -6.486  0.00  0.00    +0.292 HD
ENDBRANCH   8  20
BRANCH   9  22
ATOM     22  C   UNL     1       7.076  -2.957  -7.732  0.00  0.00    +0.127 C 
BRANCH  22  23
ATOM     23  N   UNL     1       6.922  -4.412  -7.870  0.00  0.00    -0.295 NA
ATOM     24  C   UNL     1       8.150  -5.111  -7.470  0.00  0.00    +0.103 C 
ATOM     25  C   UNL     1       7.891  -6.622  -7.454  0.00  0.00    +0.120 C 
ATOM     26  N   UNL     1       7.348  -7.016  -8.763  0.00  0.00    -0.327 N 
ATOM     27  C   UNL     1       6.199  -6.268  -9.294  0.00  0.00    +0.120 C 
ATOM     28  C   UNL     1       6.525  -4.772  -9.237  0.00  0.00    +0.103 C 
BRANCH  26  29
ATOM     29  C   UNL     1       7.910  -8.075  -9.483  0.00  0.00    +0.030 A 
ATOM     30  C   UNL     1       8.912  -8.849  -8.913  0.00  0.00    +0.026 A 
ATOM     31  C   UNL     1       9.466  -9.895  -9.626  0.00  0.00    +0.040 A 
ATOM     32  C   UNL     1       9.022 -10.171 -10.908  0.00  0.00    +0.124 A 
ATOM     33  C   UNL     1       8.023  -9.401 -11.478  0.00  0.00    +0.040 A 
ATOM     34  C   UNL     1       7.463  -8.357 -10.767  0.00  0.00    +0.026 A 
ATOM     35  F   UNL     1       9.565 -11.194 -11.604  0.00  0.00    -0.205 F 
ENDBRANCH  26  29
ENDBRANCH  22  23
ENDBRANCH   9  22
TORSDOF 6
