REMARK  Name = ZINC58492329
REMARK  9 active torsions:
REMARK  status: ('A' for Active; 'I' for Inactive)
REMARK    1  A    between atoms: C_1  and  C_2
REMARK    2  A    between atoms: C_3  and  C_34
REMARK    3  A    between atoms: N_4  and  C_28
REMARK    4  A    between atoms: C_5  and  N_9
REMARK    5  A    between atoms: C_6  and  C_7
REMARK    6  A    between atoms: C_10  and  C_12
REMARK    7  A    between atoms: C_12  and  S_13
REMARK    8  A    between atoms: S_13  and  C_14
REMARK    9  A    between atoms: C_25  and  C_27
REMARK                            x       y       z     vdW  Elec       q    Type
REMARK                         _______ _______ _______ _____ _____    ______ ____
ROOT
ATOM      1  N   UNL     1       0.054  -3.375   1.435  0.00  0.00    -0.270 N 
ATOM      2  C   UNL     1      -0.528  -3.411   2.650  0.00  0.00    +0.229 C 
ATOM      3  O   UNL     1      -1.149  -2.451   3.054  0.00  0.00    -0.275 OA
ATOM      4  H   UNL     1       0.477  -4.170   1.076  0.00  0.00    +0.156 HD
ENDROOT
BRANCH   1   9
ATOM      5  C   UNL     1       0.033   1.496   0.089  0.00  0.00    +0.047 C 
ATOM      6  C   UNL     1       0.040  -0.010   0.057  0.00  0.00    -0.011 A 
ATOM      7  C   UNL     1       0.044  -0.789  -1.037  0.00  0.00    +0.022 A 
ATOM      8  N   UNL     1       0.051  -2.105  -0.656  0.00  0.00    -0.329 N 
ATOM      9  C   UNL     1       0.050  -2.199   0.699  0.00  0.00    +0.124 A 
ATOM     10  C   UNL     1       0.048  -0.911   1.216  0.00  0.00    +0.095 A 
ATOM     11  C   UNL     1       0.043  -0.294  -2.460  0.00  0.00    +0.064 C 
BRANCH   8  12
ATOM     12  C   UNL     1       0.056  -3.244  -1.576  0.00  0.00    +0.089 C 
ATOM     13  C   UNL     1      -1.120  -4.168  -1.252  0.00  0.00    +0.025 C 
ATOM     14  C   UNL     1      -1.114  -5.358  -2.213  0.00  0.00    +0.002 C 
ATOM     15  C   UNL     1       0.198  -6.130  -2.060  0.00  0.00    +0.000 C 
ATOM     16  C   UNL     1       1.374  -5.207  -2.384  0.00  0.00    +0.002 C 
ATOM     17  C   UNL     1       1.368  -4.017  -1.423  0.00  0.00    +0.025 C 
ENDBRANCH   8  12
BRANCH  10  18
ATOM     18  C   UNL     1       0.052  -0.537   2.599  0.00  0.00    +0.103 C 
ATOM     19  N   UNL     1       0.055  -0.241   3.695  0.00  0.00    -0.191 NA
ENDBRANCH  10  18
ENDBRANCH   1   9
BRANCH   2  20
ATOM     20  C   UNL     1      -0.408  -4.646   3.506  0.00  0.00    +0.173 C 
BRANCH  20  21
ATOM     21  S   UNL     1      -1.165  -4.334   5.126  0.00  0.00    -0.077 S 
BRANCH  21  22
ATOM     22  C   UNL     1      -0.946  -5.850   5.997  0.00  0.00    +0.192 A 
ATOM     23  N   UNL     1      -0.335  -6.837   5.394  0.00  0.00    -0.222 NA
ATOM     24  C   UNL     1      -0.130  -8.031   5.999  0.00  0.00    +0.077 A 
ATOM     25  C   UNL     1       0.525  -9.078   5.344  0.00  0.00    +0.028 A 
ATOM     26  C   UNL     1       0.715 -10.277   5.992  0.00  0.00    +0.002 A 
ATOM     27  C   UNL     1       0.263 -10.462   7.292  0.00  0.00    +0.001 A 
ATOM     28  C   UNL     1      -0.386  -9.447   7.959  0.00  0.00    +0.014 A 
ATOM     29  C   UNL     1      -0.588  -8.224   7.323  0.00  0.00    +0.045 A 
ATOM     30  C   UNL     1      -1.272  -7.107   7.983  0.00  0.00    +0.168 A 
ATOM     31  N   UNL     1      -1.418  -5.943   7.278  0.00  0.00    -0.188 N 
ATOM     32  N   UNL     1      -2.086  -5.056   8.133  0.00  0.00    -0.148 NA
ATOM     33  C   UNL     1      -2.295  -5.691   9.259  0.00  0.00    +0.149 A 
ATOM     34  N   UNL     1      -1.814  -6.928   9.169  0.00  0.00    -0.211 NA
ATOM     35  C   UNL     1      -2.987  -5.114  10.467  0.00  0.00    +0.090 C 
ENDBRANCH  21  22
ENDBRANCH  20  21
ENDBRANCH   2  20
TORSDOF 6
