REMARK  Name = ZINC12138711
REMARK  5 active torsions:
REMARK  status: ('A' for Active; 'I' for Inactive)
REMARK    1  A    between atoms: C_3  and  C_6
REMARK    2  A    between atoms: N_8  and  C_9
REMARK    3  A    between atoms: C_9  and  N_11
REMARK    4  A    between atoms: N_11  and  C_12
REMARK    5  A    between atoms: C_15  and  C_18
REMARK                            x       y       z     vdW  Elec       q    Type
REMARK                         _______ _______ _______ _____ _____    ______ ____
ROOT
ATOM      1  C   UNL     1       2.329   6.812   2.866  0.00  0.00    +0.033 A 
ATOM      2  C   UNL     1       2.936   7.098   1.646  0.00  0.00    +0.024 A 
ATOM      3  C   UNL     1       2.629   6.351   0.532  0.00  0.00    +0.015 A 
ATOM      4  C   UNL     1       1.707   5.305   0.625  0.00  0.00    +0.037 A 
ATOM      5  C   UNL     1       1.095   5.024   1.850  0.00  0.00    +0.015 A 
ATOM      6  C   UNL     1       1.411   5.771   2.962  0.00  0.00    +0.024 A 
ENDROOT
BRANCH   4   7
ATOM      7  C   UNL     1       1.377   4.501  -0.568  0.00  0.00    +0.247 C 
ATOM      8  O   UNL     1       0.214   4.312  -0.870  0.00  0.00    -0.270 OA
ATOM      9  N   UNL     1       2.363   3.978  -1.323  0.00  0.00    -0.298 N 
ATOM     10  C   UNL     1       2.011   2.992  -2.363  0.00  0.00    +0.108 C 
ATOM     11  C   UNL     1       2.782   3.231  -3.673  0.00  0.00    +0.019 C 
ATOM     12  C   UNL     1       2.865   4.709  -3.965  0.00  0.00    +0.002 C 
ATOM     13  C   UNL     1       4.149   5.272  -3.363  0.00  0.00    +0.002 C 
ATOM     14  C   UNL     1       4.039   5.650  -1.945  0.00  0.00    +0.019 C 
ATOM     15  C   UNL     1       3.723   4.405  -1.079  0.00  0.00    +0.108 C 
ENDBRANCH   4   7
BRANCH   1  16
ATOM     16  N   UNL     1       2.642   7.570   3.992  0.00  0.00    -0.297 N 
ATOM     17  H   UNL     1       2.816   7.131   4.840  0.00  0.00    +0.154 HD
BRANCH  16  18
ATOM     18  C   UNL     1       2.704   8.914   3.905  0.00  0.00    +0.141 C 
ATOM     19  S   UNL     1       2.509   9.683   2.388  0.00  0.00    -0.018 S 
BRANCH  18  22
ATOM     20  C   UNL     1       2.980  10.995   4.925  0.00  0.00    +0.285 C 
ATOM     21  O   UNL     1       2.841  11.542   3.847  0.00  0.00    -0.266 OA
ATOM     22  N   UNL     1       2.918   9.652   5.012  0.00  0.00    -0.261 N 
ATOM     23  H   UNL     1       3.029   9.216   5.872  0.00  0.00    +0.157 HD
BRANCH  20  26
ATOM     24  C   UNL     1       3.527  13.499   7.524  0.00  0.00    +0.042 A 
ATOM     25  C   UNL     1       3.298  13.161   6.181  0.00  0.00    +0.054 A 
ATOM     26  C   UNL     1       3.213  11.798   6.129  0.00  0.00    +0.189 A 
ATOM     27  O   UNL     1       3.377  11.321   7.380  0.00  0.00    -0.458 OA
ATOM     28  C   UNL     1       3.572  12.343   8.223  0.00  0.00    +0.196 A 
ENDBRANCH  20  26
ENDBRANCH  18  22
ENDBRANCH  16  18
ENDBRANCH   1  16
TORSDOF 5
