REMARK  Name = ZINC25329415
REMARK  6 active torsions:
REMARK  status: ('A' for Active; 'I' for Inactive)
REMARK    1  A    between atoms: C_4  and  C_7
REMARK    2  A    between atoms: C_7  and  N_8
REMARK    3  A    between atoms: C_17  and  C_19
REMARK    4  A    between atoms: C_19  and  C_31
REMARK    5  A    between atoms: C_20  and  C_21
REMARK    6  A    between atoms: C_26  and  C_27
REMARK                            x       y       z     vdW  Elec       q    Type
REMARK                         _______ _______ _______ _____ _____    ______ ____
ROOT
ATOM      1  N   UNL     1       4.104  -1.346   1.215  0.00  0.00    -0.292 NA
ATOM      2  C   UNL     1       5.548  -1.600   1.323  0.00  0.00    +0.090 C 
ATOM      3  C   UNL     1       5.999  -1.309   2.765  0.00  0.00    +0.060 C 
ATOM      4  C   UNL     1       5.023  -1.962   3.683  0.00  0.00    +0.017 A 
ATOM      5  C   UNL     1       3.800  -2.457   3.353  0.00  0.00    +0.068 A 
ATOM      6  N   UNL     1       3.124  -2.994   4.362  0.00  0.00    -0.228 NA
ATOM      7  C   UNL     1       3.614  -3.035   5.583  0.00  0.00    +0.165 A 
ATOM      8  S   UNL     1       5.121  -2.297   5.417  0.00  0.00    -0.057 S 
ATOM      9  N   UNL     1       3.031  -3.558   6.729  0.00  0.00    -0.260 N 
ATOM     10  C   UNL     1       3.691  -3.509   7.904  0.00  0.00    +0.260 C 
ATOM     11  O   UNL     1       4.797  -3.007   7.959  0.00  0.00    -0.269 OA
ATOM     12  C   UNL     1       3.308  -2.364   1.915  0.00  0.00    +0.141 C 
ATOM     13  H   UNL     1       2.148  -3.958   6.685  0.00  0.00    +0.157 HD
ENDROOT
BRANCH  10  14
ATOM     14  C   UNL     1       3.072  -4.064   9.119  0.00  0.00    +0.114 C 
ATOM     15  C   UNL     1       3.741  -4.014  10.309  0.00  0.00    +0.032 C 
BRANCH  15  16
ATOM     16  C   UNL     1       3.070  -4.430  11.546  0.00  0.00    -0.012 A 
ATOM     17  C   UNL     1       1.695  -4.217  11.707  0.00  0.00    +0.008 A 
ATOM     18  C   UNL     1       1.073  -4.611  12.871  0.00  0.00    +0.001 A 
ATOM     19  C   UNL     1       1.803  -5.215  13.881  0.00  0.00    +0.001 A 
ATOM     20  C   UNL     1       3.162  -5.429  13.731  0.00  0.00    +0.013 A 
ATOM     21  C   UNL     1       3.800  -5.047  12.570  0.00  0.00    +0.062 A 
BRANCH  21  22
ATOM     22  C   UNL     1       5.279  -5.287  12.406  0.00  0.00    +0.418 C 
ATOM     23  F   UNL     1       5.780  -5.911  13.553  0.00  0.00    -0.166 F 
ATOM     24  F   UNL     1       5.497  -6.107  11.294  0.00  0.00    -0.166 F 
ATOM     25  F   UNL     1       5.931  -4.063  12.218  0.00  0.00    -0.166 F 
ENDBRANCH  21  22
ENDBRANCH  15  16
BRANCH  14  26
ATOM     26  C   UNL     1       1.770  -4.655   9.054  0.00  0.00    +0.104 C 
ATOM     27  N   UNL     1       0.736  -5.124   9.002  0.00  0.00    -0.191 NA
ENDBRANCH  14  26
ENDBRANCH  10  14
BRANCH   1  28
ATOM     28  C   UNL     1       3.693  -1.232  -0.191  0.00  0.00    +0.120 C 
BRANCH  28  32
ATOM     29  C   UNL     1      -0.296   0.282  -0.392  0.00  0.00    +0.000 A 
ATOM     30  C   UNL     1       0.776   1.156  -0.393  0.00  0.00    +0.000 A 
ATOM     31  C   UNL     1       2.067   0.665  -0.327  0.00  0.00    +0.005 A 
ATOM     32  C   UNL     1       2.286  -0.698  -0.261  0.00  0.00    -0.033 A 
ATOM     33  C   UNL     1       1.214  -1.571  -0.260  0.00  0.00    +0.005 A 
ATOM     34  C   UNL     1      -0.077  -1.081  -0.327  0.00  0.00    +0.000 A 
ENDBRANCH  28  32
ENDBRANCH   1  28
TORSDOF 6
