REMARK  Name = ZINC40982302
REMARK  10 active torsions:
REMARK  status: ('A' for Active; 'I' for Inactive)
REMARK    1  A    between atoms: C_1  and  C_2
REMARK    2  A    between atoms: C_2  and  C_3
REMARK    3  A    between atoms: C_3  and  S_4
REMARK    4  A    between atoms: S_4  and  C_5
REMARK    5  A    between atoms: C_10  and  C_19
REMARK    6  A    between atoms: C_12  and  C_16
REMARK    7  A    between atoms: C_13  and  C_15
REMARK    8  A    between atoms: C_24  and  O_25
REMARK    9  A    between atoms: O_25  and  C_26
REMARK   10  A    between atoms: C_26  and  C_27
REMARK                            x       y       z     vdW  Elec       q    Type
REMARK                         _______ _______ _______ _____ _____    ______ ____
ROOT
ATOM      1  C   UNL     1      -3.149  -2.800  -0.439  0.00  0.00    +0.210 A 
ATOM      2  N   UNL     1      -4.181  -1.946  -0.378  0.00  0.00    -0.187 NA
ATOM      3  C   UNL     1      -5.285  -2.611  -0.173  0.00  0.00    +0.219 A 
ATOM      4  N   UNL     1      -4.976  -3.928  -0.093  0.00  0.00    -0.220 N 
ATOM      5  N   UNL     1      -3.597  -4.026  -0.275  0.00  0.00    -0.141 NA
ATOM      6  C   UNL     1      -5.963  -4.978   0.142  0.00  0.00    +0.181 C 
ATOM      7  C   UNL     1      -7.348  -4.409  -0.022  0.00  0.00    +0.060 C 
ATOM      8  C   UNL     1      -7.594  -3.093  -0.101  0.00  0.00    +0.018 C 
ATOM      9  N   UNL     1      -6.591  -2.157  -0.047  0.00  0.00    -0.287 N 
ATOM     10  C   UNL     1      -9.019  -2.627  -0.253  0.00  0.00    +0.061 C 
ATOM     11  H   UNL     1      -6.788  -1.214   0.074  0.00  0.00    +0.155 HD
ENDROOT
BRANCH   6  12
ATOM     12  C   UNL     1      -5.804  -5.514   1.542  0.00  0.00    +0.023 A 
ATOM     13  C   UNL     1      -5.955  -4.671   2.626  0.00  0.00    +0.009 A 
ATOM     14  C   UNL     1      -5.808  -5.162   3.910  0.00  0.00    +0.001 A 
ATOM     15  C   UNL     1      -5.510  -6.497   4.113  0.00  0.00    +0.004 A 
ATOM     16  C   UNL     1      -5.358  -7.344   3.032  0.00  0.00    +0.046 A 
ATOM     17  C   UNL     1      -5.511  -6.855   1.742  0.00  0.00    +0.127 A 
BRANCH  17  18
ATOM     18  O   UNL     1      -5.367  -7.687   0.677  0.00  0.00    -0.487 OA
BRANCH  18  19
ATOM     19  C   UNL     1      -5.066  -9.055   0.959  0.00  0.00    +0.266 C 
BRANCH  19  20
ATOM     20  C   UNL     1      -4.945  -9.819  -0.335  0.00  0.00    +0.008 A 
ATOM     21  C   UNL     1      -5.118  -9.167  -1.541  0.00  0.00    +0.008 A 
ATOM     22  C   UNL     1      -5.007  -9.868  -2.728  0.00  0.00    +0.000 A 
ATOM     23  C   UNL     1      -4.723 -11.221  -2.708  0.00  0.00    +0.001 A 
ATOM     24  C   UNL     1      -4.550 -11.873  -1.502  0.00  0.00    +0.020 A 
ATOM     25  C   UNL     1      -4.655 -11.171  -0.315  0.00  0.00    +0.047 A 
ATOM     26 CL   UNL     1      -4.431 -11.989   1.200  0.00  0.00    -0.083 Cl
ENDBRANCH  19  20
ENDBRANCH  18  19
ENDBRANCH  17  18
ENDBRANCH   6  12
BRANCH   7  27
ATOM     27  C   UNL     1      -8.440  -5.305  -0.098  0.00  0.00    +0.241 C 
ATOM     28  O   UNL     1      -8.627  -5.953  -1.113  0.00  0.00    -0.271 OA
ATOM     29  N   UNL     1      -9.274  -5.442   0.952  0.00  0.00    -0.325 N 
ATOM     30  H   UNL     1      -9.125  -4.926   1.760  0.00  0.00    +0.145 HD
ATOM     31  H   UNL     1     -10.023  -6.057   0.900  0.00  0.00    +0.145 HD
ENDBRANCH   7  27
BRANCH   1  32
ATOM     32  S   UNL     1      -1.465  -2.353  -0.704  0.00  0.00    -0.084 S 
BRANCH  32  33
ATOM     33  C   UNL     1      -1.509  -0.545  -0.851  0.00  0.00    +0.077 C 
BRANCH  33  35
ATOM     34  C   UNL     1      -0.129   1.506  -1.210  0.00  0.00    +0.004 C 
ATOM     35  C   UNL     1      -0.092  -0.018  -1.086  0.00  0.00    +0.008 C 
ENDBRANCH  33  35
ENDBRANCH  32  33
ENDBRANCH   1  32
TORSDOF 8
