REMARK  Name = ZINC20905368
REMARK  10 active torsions:
REMARK  status: ('A' for Active; 'I' for Inactive)
REMARK    1  A    between atoms: C_1  and  C_2
REMARK    2  A    between atoms: C_2  and  C_3
REMARK    3  A    between atoms: C_2  and  C_4
REMARK    4  A    between atoms: C_4  and  S_5
REMARK    5  A    between atoms: S_5  and  C_6
REMARK    6  A    between atoms: C_12  and  C_14
REMARK    7  A    between atoms: C_14  and  S_15
REMARK    8  A    between atoms: S_15  and  C_16
REMARK    9  A    between atoms: N_21  and  N_22
REMARK   10  A    between atoms: C_23  and  C_24
REMARK                            x       y       z     vdW  Elec       q    Type
REMARK                         _______ _______ _______ _____ _____    ______ ____
ROOT
ATOM      1  C   UNL     1      -0.519  -6.930  -0.004  0.00  0.00    +0.211 A 
ATOM      2  N   UNL     1      -1.318  -8.038  -0.011  0.00  0.00    -0.186 NA
ATOM      3  C   UNL     1      -0.510  -9.141  -0.026  0.00  0.00    +0.232 A 
ATOM      4  N   UNL     1       0.736  -8.731  -0.027  0.00  0.00    -0.245 N 
ATOM      5  N   UNL     1       0.730  -7.330  -0.019  0.00  0.00    -0.144 NA
ATOM      6  N   UNL     1      -0.933 -10.462  -0.036  0.00  0.00    -0.205 N 
ATOM      7  H   UNL     1      -2.008 -10.694  -0.033  0.00  0.00    +0.177 HD
ATOM      8  H   UNL     1       1.556  -9.464  -0.035  0.00  0.00    +0.192 HD
ENDROOT
BRANCH   6   9
ATOM      9  N   UNL     1       0.008 -11.499  -0.051  0.00  0.00    -0.188 NA
ATOM     10  C   UNL     1      -0.389 -12.737  -0.061  0.00  0.00    +0.139 C 
BRANCH  10  11
ATOM     11  C   UNL     1       0.599 -13.826  -0.076  0.00  0.00    +0.002 A 
ATOM     12  C   UNL     1       0.195 -15.152   0.025  0.00  0.00    +0.010 A 
ATOM     13  C   UNL     1       1.130 -16.178   0.004  0.00  0.00    +0.001 A 
ATOM     14  C   UNL     1       2.465 -15.932  -0.103  0.00  0.00    +0.008 A 
ATOM     15  C   UNL     1       2.945 -14.615  -0.203  0.00  0.00    -0.017 A 
ATOM     16  C   UNL     1       2.027 -13.537  -0.192  0.00  0.00    -0.009 A 
ATOM     17  C   UNL     1       2.502 -12.223  -0.293  0.00  0.00    +0.009 A 
ATOM     18  C   UNL     1       3.842 -11.998  -0.399  0.00  0.00    +0.001 A 
ATOM     19  C   UNL     1       4.747 -13.056  -0.410  0.00  0.00    +0.001 A 
ATOM     20  C   UNL     1       4.320 -14.345  -0.315  0.00  0.00    +0.008 A 
ENDBRANCH  10  11
ENDBRANCH   6   9
BRANCH   1  21
ATOM     21  S   UNL     1      -1.070  -5.256   0.015  0.00  0.00    -0.075 S 
BRANCH  21  22
ATOM     22  C   UNL     1       0.524  -4.400   0.016  0.00  0.00    +0.173 C 
BRANCH  22  29
ATOM     23  C   UNL     1       1.101   1.972   0.075  0.00  0.00    +0.160 A 
ATOM     24  N   UNL     1      -0.015   1.257   0.073  0.00  0.00    -0.133 NA
ATOM     25  N   UNL     1       0.003  -0.004   0.061  0.00  0.00    -0.125 NA
ATOM     26  C   UNL     1       1.134  -0.690   0.049  0.00  0.00    +0.189 A 
ATOM     27  S   UNL     1       2.314   0.656   0.057  0.00  0.00    -0.024 S 
ATOM     28  N   UNL     1       1.346  -2.067   0.035  0.00  0.00    -0.263 N 
ATOM     29  C   UNL     1       0.295  -2.911   0.031  0.00  0.00    +0.229 C 
ATOM     30  O   UNL     1      -0.836  -2.471   0.040  0.00  0.00    -0.275 OA
ATOM     31  H   UNL     1       2.371  -2.465   0.026  0.00  0.00    +0.157 HD
BRANCH  23  32
ATOM     32  S   UNL     1       1.325   3.720   0.090  0.00  0.00    -0.097 S 
BRANCH  32  33
ATOM     33  C   UNL     1      -0.365   4.379   0.104  0.00  0.00    +0.079 C 
BRANCH  33  35
ATOM     34  C   UNL     1      -1.736   6.465   0.005  0.00  0.00    +0.008 C 
ATOM     35  C   UNL     1      -0.316   5.908   0.119  0.00  0.00    -0.007 C 
ATOM     36  C   UNL     1       0.317   6.386   1.427  0.00  0.00    +0.008 C 
ENDBRANCH  33  35
ENDBRANCH  32  33
ENDBRANCH  23  32
ENDBRANCH  22  29
ENDBRANCH  21  22
ENDBRANCH   1  21
TORSDOF 8
