REMARK  Name = ZINC39491702
REMARK  13 active torsions:
REMARK  status: ('A' for Active; 'I' for Inactive)
REMARK    1  A    between atoms: C_1  and  C_2
REMARK    2  A    between atoms: C_2  and  C_3
REMARK    3  A    between atoms: C_3  and  N_4
REMARK    4  A    between atoms: N_4  and  C_5
REMARK    5  A    between atoms: C_5  and  C_6
REMARK    6  A    between atoms: N_8  and  C_19
REMARK    7  A    between atoms: C_12  and  C_15
REMARK    8  A    between atoms: C_15  and  O_17
REMARK    9  A    between atoms: O_17  and  C_18
REMARK   10  A    between atoms: C_19  and  C_20
REMARK   11  A    between atoms: C_20  and  C_22
REMARK   12  A    between atoms: C_20  and  S_28
REMARK   13  A    between atoms: S_28  and  C_31
REMARK                            x       y       z     vdW  Elec       q    Type
REMARK                         _______ _______ _______ _____ _____    ______ ____
ROOT
ATOM      1  C   UNL     1       1.493  -3.973   2.415  0.00  0.00    -0.039 A 
ATOM      2  C   UNL     1       0.681  -4.787   3.107  0.00  0.00    +0.088 A 
ATOM      3  N   UNL     1       0.997  -6.093   2.848  0.00  0.00    -0.344 N 
ATOM      4  C   UNL     1       2.045  -6.156   1.962  0.00  0.00    +0.049 A 
ATOM      5  C   UNL     1       2.400  -4.830   1.645  0.00  0.00    +0.002 A 
ATOM      6  C   UNL     1       3.440  -4.581   0.754  0.00  0.00    +0.025 A 
ATOM      7  C   UNL     1       4.119  -5.653   0.180  0.00  0.00    +0.060 A 
ATOM      8  C   UNL     1       3.754  -6.968   0.501  0.00  0.00    +0.017 A 
ATOM      9  C   UNL     1       2.741  -7.214   1.380  0.00  0.00    +0.027 A 
ENDROOT
BRANCH   7  10
ATOM     10  C   UNL     1       5.223  -5.404  -0.766  0.00  0.00    +0.339 C 
ATOM     11  O   UNL     1       5.540  -4.265  -1.044  0.00  0.00    -0.245 OA
BRANCH  10  12
ATOM     12  O   UNL     1       5.881  -6.441  -1.321  0.00  0.00    -0.464 OA
ATOM     13  C   UNL     1       6.939  -6.127  -2.229  0.00  0.00    +0.280 C 
ENDBRANCH  10  12
ENDBRANCH   7  10
BRANCH   1  14
ATOM     14  C   UNL     1       1.472  -2.466   2.424  0.00  0.00    -0.045 C 
BRANCH  14  15
ATOM     15  N   UNL     1       0.762  -1.980   1.234  0.00  0.00    +0.382 N 
ATOM     16  H   UNL     1      -0.185  -2.329   1.241  0.00  0.00    -0.085 HD
ATOM     17  H   UNL     1       1.234  -2.305   0.403  0.00  0.00    -0.085 HD
BRANCH  15  18
ATOM     18  C   UNL     1       0.742  -0.511   1.242  0.00  0.00    -0.082 C 
BRANCH  18  20
ATOM     19  C   UNL     1      -0.019   1.526   0.010  0.00  0.00    +0.002 C 
ATOM     20  C   UNL     1       0.002  -0.004   0.002  0.00  0.00    -0.022 C 
ENDBRANCH  18  20
ENDBRANCH  15  18
ENDBRANCH  14  15
ENDBRANCH   1  14
BRANCH   3  21
ATOM     21  C   UNL     1       0.318  -7.254   3.430  0.00  0.00    +0.153 C 
BRANCH  21  22
ATOM     22  C   UNL     1       1.086  -7.727   4.666  0.00  0.00    +0.185 C 
BRANCH  22  23
ATOM     23  C   UNL     1       0.459  -8.992   5.193  0.00  0.00    -0.021 A 
ATOM     24  C   UNL     1      -0.863  -8.992   5.596  0.00  0.00    +0.005 A 
ATOM     25  C   UNL     1      -1.438 -10.153   6.079  0.00  0.00    +0.000 A 
ATOM     26  C   UNL     1      -0.691 -11.313   6.159  0.00  0.00    +0.000 A 
ATOM     27  C   UNL     1       0.631 -11.313   5.756  0.00  0.00    +0.000 A 
ATOM     28  C   UNL     1       1.205 -10.154   5.268  0.00  0.00    +0.005 A 
ENDBRANCH  22  23
BRANCH  22  29
ATOM     29  S   UNL     1       1.024  -6.443   5.945  0.00  0.00    +0.005 S 
ATOM     30  O   UNL     1       1.766  -5.304   5.532  0.00  0.00    -0.169 OA
ATOM     31  O   UNL     1      -0.302  -6.304   6.435  0.00  0.00    -0.169 OA
BRANCH  29  32
ATOM     32  C   UNL     1       1.936  -7.107   7.298  0.00  0.00    +0.089 A 
ATOM     33  C   UNL     1       1.292  -7.858   8.264  0.00  0.00    +0.027 A 
ATOM     34  C   UNL     1       2.007  -8.379   9.326  0.00  0.00    +0.002 A 
ATOM     35  C   UNL     1       3.367  -8.150   9.421  0.00  0.00    +0.000 A 
ATOM     36  C   UNL     1       4.012  -7.401   8.455  0.00  0.00    +0.002 A 
ATOM     37  C   UNL     1       3.297  -6.883   7.391  0.00  0.00    +0.027 A 
ENDBRANCH  29  32
ENDBRANCH  22  29
ENDBRANCH  21  22
ENDBRANCH   3  21
TORSDOF 11
