REMARK  Name = ZINC64889541
REMARK  10 active torsions:
REMARK  status: ('A' for Active; 'I' for Inactive)
REMARK    1  A    between atoms: C_1  and  C_2
REMARK    2  A    between atoms: C_4  and  C_36
REMARK    3  A    between atoms: C_5  and  C_29
REMARK    4  A    between atoms: C_6  and  S_8
REMARK    5  A    between atoms: S_8  and  N_11
REMARK    6  A    between atoms: C_14  and  C_17
REMARK    7  A    between atoms: N_19  and  C_20
REMARK    8  A    between atoms: C_23  and  C_26
REMARK    9  A    between atoms: C_26  and  C_27
REMARK   10  A    between atoms: C_26  and  C_28
REMARK                            x       y       z     vdW  Elec       q    Type
REMARK                         _______ _______ _______ _____ _____    ______ ____
ROOT
ATOM      1  N   UNL     1      -1.851   0.846   2.085  0.00  0.00    -0.180 NA
ATOM      2  C   UNL     1      -1.472   1.379   3.401  0.00  0.00    +0.110 C 
ATOM      3  C   UNL     1      -0.508   2.552   3.200  0.00  0.00    +0.030 C 
ATOM      4  C   UNL     1      -1.150   3.581   2.267  0.00  0.00    +0.078 C 
ATOM      5  C   UNL     1      -1.421   2.938   0.904  0.00  0.00    +0.030 C 
ATOM      6  C   UNL     1      -2.389   1.770   1.078  0.00  0.00    +0.110 C 
ENDROOT
BRANCH   4   7
ATOM      7  C   UNL     1      -0.218   4.752   2.093  0.00  0.00    +0.220 C 
ATOM      8  O   UNL     1       0.854   4.763   2.660  0.00  0.00    -0.275 OA
ATOM      9  N   UNL     1      -0.577   5.788   1.309  0.00  0.00    -0.285 N 
ATOM     10  H   UNL     1      -1.461   5.811   0.910  0.00  0.00    +0.155 HD
BRANCH   9  11
ATOM     11  C   UNL     1       0.327   6.829   1.069  0.00  0.00    +0.033 A 
ATOM     12  C   UNL     1      -0.136   8.129   0.910  0.00  0.00    +0.023 A 
ATOM     13  C   UNL     1       0.758   9.155   0.674  0.00  0.00    +0.006 A 
ATOM     14  C   UNL     1       2.113   8.889   0.595  0.00  0.00    -0.045 A 
ATOM     15  C   UNL     1       2.577   7.596   0.753  0.00  0.00    +0.006 A 
ATOM     16  C   UNL     1       1.688   6.566   0.996  0.00  0.00    +0.023 A 
BRANCH  14  17
ATOM     17  C   UNL     1       3.086  10.010   0.337  0.00  0.00    +0.013 C 
ATOM     18  C   UNL     1       4.071  10.110   1.504  0.00  0.00    +0.012 C 
ATOM     19  C   UNL     1       3.854   9.731  -0.956  0.00  0.00    +0.012 C 
ENDBRANCH  14  17
ENDBRANCH   9  11
ENDBRANCH   4   7
BRANCH   1  20
ATOM     20  S   UNL     1      -1.668  -0.763   1.741  0.00  0.00    +0.044 S 
ATOM     21  O   UNL     1      -2.530  -0.998   0.637  0.00  0.00    -0.157 OA
ATOM     22  O   UNL     1      -1.880  -1.425   2.980  0.00  0.00    -0.157 OA
BRANCH  20  28
ATOM     23  C   UNL     1       1.140  -0.863   3.708  0.00  0.00    +0.063 C 
ATOM     24  C   UNL     1       0.996  -0.378   2.288  0.00  0.00    +0.046 C 
ATOM     25  N   UNL     1       1.645   0.592   1.731  0.00  0.00    -0.259 NA
ATOM     26  C   UNL     1       1.311   0.803   0.452  0.00  0.00    +0.049 C 
ATOM     27  C   UNL     1       0.358  -0.057   0.027  0.00  0.00    +0.066 C 
ATOM     28  C   UNL     1       0.064  -0.936   1.230  0.00  0.00    +0.228 C 
ATOM     29  C   UNL     1       1.925   1.873  -0.413  0.00  0.00    +0.066 C 
BRANCH  27  30
ATOM     30  C   UNL     1      -0.252  -0.129  -1.300  0.00  0.00    +0.247 C 
ATOM     31  O   UNL     1      -1.318   0.419  -1.511  0.00  0.00    -0.270 OA
ATOM     32  N   UNL     1       0.367  -0.802  -2.291  0.00  0.00    -0.298 N 
ATOM     33  C   UNL     1       1.595  -1.598  -2.149  0.00  0.00    +0.108 C 
ATOM     34  C   UNL     1       1.942  -2.158  -3.545  0.00  0.00    +0.020 C 
ATOM     35  C   UNL     1       1.207  -1.183  -4.502  0.00  0.00    +0.020 C 
ATOM     36  C   UNL     1      -0.079  -0.866  -3.695  0.00  0.00    +0.108 C 
ENDBRANCH  27  30
ENDBRANCH  20  28
ENDBRANCH   1  20
TORSDOF 6
