REMARK  Name = ZINC56795147
REMARK  6 active torsions:
REMARK  status: ('A' for Active; 'I' for Inactive)
REMARK    1  A    between atoms: C_1  and  C_2
REMARK    2  A    between atoms: C_2  and  C_3
REMARK    3  A    between atoms: C_2  and  C_4
REMARK    4  A    between atoms: C_2  and  N_23
REMARK    5  A    between atoms: C_4  and  N_5
REMARK    6  A    between atoms: C_12  and  C_15
REMARK                            x       y       z     vdW  Elec       q    Type
REMARK                         _______ _______ _______ _____ _____    ______ ____
ROOT
ATOM      1  N   UNL     1      -1.481  -1.874  -0.596  0.00  0.00    -0.301 N 
ATOM      2  C   UNL     1      -2.627  -2.454  -1.006  0.00  0.00    +0.302 C 
ATOM      3  O   UNL     1      -3.649  -1.799  -1.074  0.00  0.00    -0.253 OA
ATOM      4  N   UNL     1      -2.639  -3.759  -1.341  0.00  0.00    -0.285 N 
ATOM      5  C   UNL     1      -3.848  -4.377  -1.901  0.00  0.00    +0.109 C 
ATOM      6  C   UNL     1      -3.484  -5.066  -3.220  0.00  0.00    +0.020 C 
ATOM      7  C   UNL     1      -2.332  -6.044  -2.979  0.00  0.00    +0.016 C 
ATOM      8  C   UNL     1      -1.105  -5.278  -2.480  0.00  0.00    +0.093 C 
ATOM      9  C   UNL     1      -1.440  -4.590  -1.159  0.00  0.00    +0.122 C 
ATOM     10  H   UNL     1      -0.683  -2.411  -0.472  0.00  0.00    +0.150 HD
ENDROOT
BRANCH   8  11
ATOM     11  C   UNL     1       0.038  -6.237  -2.275  0.00  0.00    +0.223 C 
ATOM     12  O   UNL     1      -0.112  -7.418  -2.505  0.00  0.00    -0.275 OA
ATOM     13  N   UNL     1       1.229  -5.783  -1.836  0.00  0.00    -0.264 N 
ATOM     14  C   UNL     1       2.284  -6.668  -1.647  0.00  0.00    +0.164 A 
ATOM     15  N   UNL     1       2.306  -7.968  -1.847  0.00  0.00    -0.233 NA
ATOM     16  C   UNL     1       3.397  -8.675  -1.618  0.00  0.00    +0.120 A 
ATOM     17  C   UNL     1       4.485  -8.002  -1.169  0.00  0.00    +0.068 A 
ATOM     18  S   UNL     1       3.844  -6.336  -1.111  0.00  0.00    -0.061 S 
ATOM     19  H   UNL     1       1.349  -4.838  -1.652  0.00  0.00    +0.157 HD
ENDBRANCH   8  11
BRANCH   1  20
ATOM     20  C   UNL     1      -1.442  -0.432  -0.337  0.00  0.00    +0.093 C 
BRANCH  20  22
ATOM     21  C   UNL     1       0.880  -0.225  -1.236  0.00  0.00    -0.008 C 
ATOM     22  C   UNL     1      -0.008  -0.012  -0.008  0.00  0.00    -0.055 C 
ATOM     23  C   UNL     1       0.013   1.466   0.386  0.00  0.00    -0.008 C 
BRANCH  22  24
ATOM     24  N   UNL     1       0.497  -0.823   1.107  0.00  0.00    +0.384 N 
ATOM     25  C   UNL     1      -0.381  -0.651   2.272  0.00  0.00    -0.078 C 
ATOM     26  C   UNL     1       0.094  -1.556   3.411  0.00  0.00    -0.019 C 
ATOM     27  C   UNL     1       1.529  -1.179   3.791  0.00  0.00    -0.004 C 
ATOM     28  C   UNL     1       2.421  -1.291   2.551  0.00  0.00    -0.019 C 
ATOM     29  C   UNL     1       1.860  -0.396   1.444  0.00  0.00    -0.078 C 
ATOM     30  H   UNL     1       0.507  -1.796   0.838  0.00  0.00    -0.081 HD
ENDBRANCH  22  24
ENDBRANCH  20  22
ENDBRANCH   1  20
TORSDOF 4
