REMARK  Name = ZINC04763705
REMARK  7 active torsions:
REMARK  status: ('A' for Active; 'I' for Inactive)
REMARK    1  A    between atoms: C_1  and  C_2
REMARK    2  A    between atoms: C_2  and  C_3
REMARK    3  A    between atoms: C_3  and  C_5
REMARK    4  A    between atoms: C_3  and  N_6
REMARK    5  A    between atoms: C_7  and  C_9
REMARK    6  A    between atoms: N_16  and  S_19
REMARK    7  A    between atoms: S_19  and  C_22
REMARK                            x       y       z     vdW  Elec       q    Type
REMARK                         _______ _______ _______ _____ _____    ______ ____
ROOT
ATOM      1  C   UNL     1       1.359   1.553  -0.003  0.00  0.00    +0.028 C 
ATOM      2  C   UNL     1       1.938   1.429  -1.445  0.00  0.00    +0.061 C 
ATOM      3  S   UNL     1       0.426   1.868  -2.411  0.00  0.00    -0.174 S 
ATOM      4  C   UNL     1      -0.824   1.530  -1.110  0.00  0.00    -0.016 C 
ATOM      5  C   UNL     1      -1.522   2.822  -0.716  0.00  0.00    +0.015 C 
ATOM      6  C   UNL     1      -2.539   2.534   0.395  0.00  0.00    +0.109 C 
ATOM      7  N   UNL     1      -3.427   1.450  -0.048  0.00  0.00    -0.177 NA
ATOM      8  C   UNL     1      -2.831   0.184  -0.496  0.00  0.00    +0.109 C 
ATOM      9  C   UNL     1      -1.813   0.484  -1.603  0.00  0.00    +0.015 C 
ATOM     10  N   UNL     1      -0.018   0.994   0.019  0.00  0.00    +0.397 N 
ATOM     11  H   UNL     1      -0.469   1.247   0.906  0.00  0.00    -0.083 HD
ATOM     12  H   UNL     1       0.033  -0.029  -0.059  0.00  0.00    -0.083 HD
ENDROOT
BRANCH   1  14
ATOM     13  N   UNL     1       3.521   1.102   1.113  0.00  0.00    -0.314 N 
ATOM     14  C   UNL     1       2.223   0.775   0.958  0.00  0.00    +0.200 C 
ATOM     15  O   UNL     1       1.749  -0.145   1.590  0.00  0.00    -0.278 OA
ATOM     16  H   UNL     1       3.900   1.838   0.607  0.00  0.00    +0.149 HD
BRANCH  13  17
ATOM     17  C   UNL     1       4.360   0.347   2.046  0.00  0.00    +0.070 C 
ATOM     18  C   UNL     1       4.199   0.920   3.456  0.00  0.00    +0.028 C 
BRANCH  17  20
ATOM     19  C   UNL     1       6.010  -0.230   0.261  0.00  0.00    +0.005 C 
ATOM     20  C   UNL     1       5.824   0.454   1.617  0.00  0.00    +0.018 C 
ENDBRANCH  17  20
ENDBRANCH  13  17
ENDBRANCH   1  14
BRANCH   7  21
ATOM     21  S   UNL     1      -5.070   1.653  -0.043  0.00  0.00    +0.061 S 
ATOM     22  O   UNL     1      -5.307   3.052  -0.118  0.00  0.00    -0.153 OA
ATOM     23  O   UNL     1      -5.595   0.739  -0.996  0.00  0.00    -0.153 OA
BRANCH  21  24
ATOM     24  C   UNL     1      -5.655   1.127   1.534  0.00  0.00    +0.105 A 
ATOM     25  C   UNL     1      -6.028  -0.190   1.729  0.00  0.00    +0.028 A 
ATOM     26  C   UNL     1      -6.482  -0.603   2.967  0.00  0.00    +0.002 A 
ATOM     27  C   UNL     1      -6.572   0.302   4.008  0.00  0.00    +0.000 A 
ATOM     28  C   UNL     1      -6.205   1.620   3.812  0.00  0.00    +0.002 A 
ATOM     29  C   UNL     1      -5.746   2.033   2.574  0.00  0.00    +0.028 A 
ENDBRANCH  21  24
ENDBRANCH   7  21
TORSDOF 5
