REMARK  Name = ZINC13283499
REMARK  3 active torsions:
REMARK  status: ('A' for Active; 'I' for Inactive)
REMARK    1  A    between atoms: C_6  and  C_7
REMARK    2  A    between atoms: N_12  and  C_13
REMARK    3  A    between atoms: C_19  and  N_24
REMARK                            x       y       z     vdW  Elec       q    Type
REMARK                         _______ _______ _______ _____ _____    ______ ____
ROOT
ATOM      1  C   UNL     1      -3.497   1.107  -2.136  0.00  0.00    +0.031 A 
ATOM      2  C   UNL     1      -3.680  -0.269  -2.305  0.00  0.00    +0.025 A 
ATOM      3  C   UNL     1      -3.683  -0.828  -3.547  0.00  0.00    +0.030 A 
ATOM      4  C   UNL     1      -3.490  -0.019  -4.676  0.00  0.00    +0.078 A 
ATOM      5  C   UNL     1      -3.300   1.374  -4.512  0.00  0.00    +0.042 A 
ATOM      6  C   UNL     1      -3.305   1.929  -3.228  0.00  0.00    +0.036 A 
ATOM      7  C   UNL     1      -3.107   2.167  -5.670  0.00  0.00    +0.129 A 
ATOM      8  N   UNL     1      -3.114   1.568  -6.851  0.00  0.00    -0.199 NA
ATOM      9  C   UNL     1      -3.297   0.255  -6.961  0.00  0.00    +0.215 A 
ATOM     10  N   UNL     1      -3.481  -0.530  -5.917  0.00  0.00    -0.215 NA
ATOM     11  N   UNL     1      -3.294  -0.312  -8.224  0.00  0.00    -0.327 N 
ATOM     12  H   UNL     1      -3.160   0.247  -9.006  0.00  0.00    +0.145 HD
ATOM     13  H   UNL     1      -3.426  -1.267  -8.327  0.00  0.00    +0.145 HD
ENDROOT
BRANCH   1  18
ATOM     14  C   UNL     1      -2.525   0.968   0.023  0.00  0.00    +0.104 C 
ATOM     15  C   UNL     1      -3.123   0.945   1.442  0.00  0.00    +0.029 C 
ATOM     16  C   UNL     1      -4.504   1.627   1.309  0.00  0.00    +0.021 C 
ATOM     17  C   UNL     1      -4.826   1.469  -0.198  0.00  0.00    +0.106 C 
ATOM     18  N   UNL     1      -3.503   1.654  -0.849  0.00  0.00    -0.323 N 
BRANCH  14  24
ATOM     19  C   UNL     1      -1.227   3.108   0.042  0.00  0.00    +0.007 A 
ATOM     20  C   UNL     1      -0.032   3.804   0.040  0.00  0.00    +0.022 A 
ATOM     21  C   UNL     1       1.168   3.117   0.030  0.00  0.00    +0.059 A 
ATOM     22  C   UNL     1       1.173   1.732   0.022  0.00  0.00    +0.060 A 
ATOM     23  C   UNL     1      -0.023   1.037   0.024  0.00  0.00    +0.027 A 
ATOM     24  C   UNL     1      -1.222   1.726   0.028  0.00  0.00    -0.026 A 
ATOM     25 CL   UNL     1       2.679   0.868   0.011  0.00  0.00    -0.082 Cl
ATOM     26 CL   UNL     1       2.668   3.990   0.028  0.00  0.00    -0.082 Cl
ENDBRANCH  14  24
ENDBRANCH   1  18
BRANCH   7  27
ATOM     27  N   UNL     1      -2.916   3.530  -5.571  0.00  0.00    -0.343 N 
ATOM     28  H   UNL     1      -2.912   3.956  -4.699  0.00  0.00    +0.144 HD
ATOM     29  H   UNL     1      -2.785   4.061  -6.371  0.00  0.00    +0.144 HD
ENDBRANCH   7  27
TORSDOF 3
