REMARK  Name = ZINC39685636
REMARK  11 active torsions:
REMARK  status: ('A' for Active; 'I' for Inactive)
REMARK    1  A    between atoms: C_1  and  C_2
REMARK    2  A    between atoms: C_2  and  C_3
REMARK    3  A    between atoms: C_3  and  C_4
REMARK    4  A    between atoms: C_4  and  C_5
REMARK    5  A    between atoms: C_5  and  C_7
REMARK    6  A    between atoms: C_5  and  C_8
REMARK    7  A    between atoms: C_12  and  C_21
REMARK    8  A    between atoms: N_23  and  C_24
REMARK    9  A    between atoms: C_24  and  C_25
REMARK   10  A    between atoms: C_25  and  N_26
REMARK   11  A    between atoms: N_30  and  C_33
REMARK                            x       y       z     vdW  Elec       q    Type
REMARK                         _______ _______ _______ _____ _____    ______ ____
ROOT
ATOM      1  C   UNL     1       1.879  -3.937   2.212  0.00  0.00    +0.218 C 
ATOM      2  O   UNL     1       1.608  -4.583   1.222  0.00  0.00    -0.275 OA
ATOM      3  N   UNL     1       2.328  -4.559   3.321  0.00  0.00    -0.300 N 
ATOM      4  C   UNL     1       2.599  -3.962   4.650  0.00  0.00    +0.121 C 
ATOM      5  C   UNL     1       2.101  -5.019   5.661  0.00  0.00    +0.100 C 
ATOM      6  C   UNL     1       2.147  -6.350   4.892  0.00  0.00    -0.004 C 
ATOM      7  C   UNL     1       2.656  -5.995   3.487  0.00  0.00    +0.115 C 
ATOM      8  C   UNL     1       0.749  -6.956   4.802  0.00  0.00    -0.010 C 
ATOM      9  C   UNL     1       0.829  -8.306   4.083  0.00  0.00    -0.082 C 
ATOM     10  N   UNL     1       1.727  -9.203   4.820  0.00  0.00    +0.379 N 
ATOM     11  C   UNL     1       3.090  -8.657   4.822  0.00  0.00    -0.082 C 
ATOM     12  C   UNL     1       3.106  -7.322   5.572  0.00  0.00    -0.010 C 
ATOM     13  H   UNL     1       1.402  -9.295   5.771  0.00  0.00    -0.086 HD
ATOM     14  H   UNL     1       1.730 -10.110   4.379  0.00  0.00    -0.086 HD
ENDROOT
BRANCH   5  15
ATOM     15  C   UNL     1       0.692  -4.708   6.094  0.00  0.00    +0.218 C 
ATOM     16  O   UNL     1      -0.040  -4.072   5.366  0.00  0.00    -0.275 OA
ATOM     17  N   UNL     1       0.244  -5.137   7.291  0.00  0.00    -0.314 N 
ATOM     18  H   UNL     1       0.829  -5.646   7.873  0.00  0.00    +0.149 HD
BRANCH  17  19
ATOM     19  C   UNL     1      -1.126  -4.835   7.712  0.00  0.00    +0.119 C 
BRANCH  19  20
ATOM     20  C   UNL     1      -1.377  -5.432   9.098  0.00  0.00    +0.103 C 
BRANCH  20  21
ATOM     21  N   UNL     1      -2.751  -5.129   9.520  0.00  0.00    -0.303 NA
ATOM     22  C   UNL     1      -3.711  -5.816   8.689  0.00  0.00    +0.082 C 
ATOM     23  C   UNL     1      -4.976  -4.979   8.413  0.00  0.00    -0.003 C 
ATOM     24  C   UNL     1      -5.462  -4.232   9.671  0.00  0.00    -0.078 C 
ATOM     25  N   UNL     1      -5.370  -5.053  10.854  0.00  0.00    +0.379 N 
ATOM     26  C   UNL     1      -4.088  -4.752  11.522  0.00  0.00    -0.064 C 
ATOM     27  C   UNL     1      -2.959  -5.480  10.947  0.00  0.00    +0.066 C 
ATOM     28  C   UNL     1      -6.485  -4.746  11.760  0.00  0.00    -0.096 C 
ATOM     29  H   UNL     1      -5.398  -6.028  10.596  0.00  0.00    -0.082 HD
ENDBRANCH  20  21
ENDBRANCH  19  20
ENDBRANCH  17  19
ENDBRANCH   5  15
BRANCH   1  30
ATOM     30  C   UNL     1       1.713  -2.439   2.203  0.00  0.00    +0.072 C 
ATOM     31  C   UNL     1       0.506  -2.064   1.340  0.00  0.00    +0.017 C 
BRANCH  30  32
ATOM     32  C   UNL     1       2.973  -1.790   1.627  0.00  0.00    +0.012 C 
BRANCH  32  33
ATOM     33  C   UNL     1       2.857  -0.268   1.732  0.00  0.00    +0.000 C 
BRANCH  33  35
ATOM     34  C   UNL     1       4.001   1.902   1.262  0.00  0.00    +0.004 C 
ATOM     35  C   UNL     1       4.117   0.381   1.156  0.00  0.00    -0.003 C 
ENDBRANCH  33  35
ENDBRANCH  32  33
ENDBRANCH  30  32
ENDBRANCH   1  30
TORSDOF 8
