REMARK  Name = ZINC60221817
REMARK  9 active torsions:
REMARK  status: ('A' for Active; 'I' for Inactive)
REMARK    1  A    between atoms: C_1  and  C_2
REMARK    2  A    between atoms: C_3  and  C_28
REMARK    3  A    between atoms: C_7  and  N_8
REMARK    4  A    between atoms: C_9  and  C_11
REMARK    5  A    between atoms: C_11  and  N_12
REMARK    6  A    between atoms: C_17  and  C_24
REMARK    7  A    between atoms: C_20  and  C_22
REMARK    8  A    between atoms: C_20  and  C_23
REMARK    9  A    between atoms: C_28  and  N_29
REMARK                            x       y       z     vdW  Elec       q    Type
REMARK                         _______ _______ _______ _____ _____    ______ ____
ROOT
ATOM      1  N   UNL     1       1.865   1.190   3.067  0.00  0.00    -0.284 N 
ATOM      2  C   UNL     1       2.181   0.705   4.284  0.00  0.00    +0.235 C 
ATOM      3  O   UNL     1       2.007  -0.469   4.532  0.00  0.00    -0.274 OA
ATOM      4  H   UNL     1       1.930   2.143   2.893  0.00  0.00    +0.155 HD
ENDROOT
BRANCH   1  11
ATOM      5  C   UNL     1       0.293   2.256   0.948  0.00  0.00    +0.046 C 
ATOM      6  C   UNL     1       0.675   0.799   1.002  0.00  0.00    -0.028 A 
ATOM      7  C   UNL     1       0.266  -0.060   0.001  0.00  0.00    -0.059 A 
ATOM      8  C   UNL     1       0.617  -1.397   0.050  0.00  0.00    +0.002 A 
ATOM      9  C   UNL     1       1.378  -1.877   1.099  0.00  0.00    +0.002 A 
ATOM     10  C   UNL     1       1.791  -1.023   2.103  0.00  0.00    +0.023 A 
ATOM     11  C   UNL     1       1.444   0.321   2.054  0.00  0.00    +0.037 A 
BRANCH   7  12
ATOM     12  C   UNL     1      -0.563   0.459  -1.145  0.00  0.00    -0.043 C 
BRANCH  12  13
ATOM     13  N   UNL     1      -1.955   0.625  -0.706  0.00  0.00    +0.383 N 
ATOM     14  C   UNL     1      -2.512  -0.688  -0.370  0.00  0.00    -0.068 C 
ATOM     15  C   UNL     1      -3.808  -0.514   0.431  0.00  0.00    +0.050 C 
ATOM     16  S   UNL     1      -5.013   0.361  -0.616  0.00  0.00    -0.164 S 
ATOM     17  C   UNL     1      -4.055   1.786  -1.220  0.00  0.00    +0.050 C 
ATOM     18  C   UNL     1      -2.722   1.268  -1.774  0.00  0.00    -0.068 C 
ATOM     19  H   UNL     1      -1.976   1.211   0.115  0.00  0.00    -0.081 HD
ENDBRANCH  12  13
ENDBRANCH   7  12
ENDBRANCH   1  11
BRANCH   2  20
ATOM     20  C   UNL     1       2.749   1.621   5.337  0.00  0.00    +0.214 C 
BRANCH  20  21
ATOM     21  N   UNL     1       3.006   0.859   6.561  0.00  0.00    -0.215 N 
ATOM     22  C   UNL     1       2.106   0.688   7.551  0.00  0.00    +0.247 C 
ATOM     23  O   UNL     1       0.974   1.119   7.596  0.00  0.00    -0.273 OA
ATOM     24  C   UNL     1       2.806  -0.155   8.592  0.00  0.00    +0.113 C 
ATOM     25  C   UNL     1       2.071  -1.477   8.788  0.00  0.00    +0.038 C 
ATOM     26  C   UNL     1       2.813  -2.327   9.823  0.00  0.00    -0.011 C 
ATOM     27  C   UNL     1       2.888  -1.564  11.147  0.00  0.00    +0.009 C 
ATOM     28  C   UNL     1       3.647  -0.253  10.940  0.00  0.00    -0.032 C 
ATOM     29  C   UNL     1       2.909   0.606   9.910  0.00  0.00    +0.041 C 
ATOM     30  C   UNL     1       5.059  -0.555  10.435  0.00  0.00    +0.011 C 
ATOM     31  C   UNL     1       3.731   0.504  12.268  0.00  0.00    +0.011 C 
ATOM     32  C   UNL     1       2.063  -3.643  10.033  0.00  0.00    +0.007 C 
ATOM     33  N   UNL     1       4.140  -0.386   8.025  0.00  0.00    -0.285 N 
ATOM     34  C   UNL     1       4.162   0.241   6.833  0.00  0.00    +0.310 C 
ATOM     35  O   UNL     1       5.124   0.247   6.091  0.00  0.00    -0.252 OA
ATOM     36  H   UNL     1       4.862  -0.894   8.428  0.00  0.00    +0.151 HD
ENDBRANCH  20  21
ENDBRANCH   2  20
TORSDOF 5
