REMARK  Name = ZINC25424667
REMARK  6 active torsions:
REMARK  status: ('A' for Active; 'I' for Inactive)
REMARK    1  A    between atoms: C_1  and  C_2
REMARK    2  A    between atoms: C_2  and  C_4
REMARK    3  A    between atoms: C_2  and  N_17
REMARK    4  A    between atoms: N_6  and  C_7
REMARK    5  A    between atoms: C_10  and  N_14
REMARK    6  A    between atoms: N_17  and  C_18
REMARK                            x       y       z     vdW  Elec       q    Type
REMARK                         _______ _______ _______ _____ _____    ______ ____
ROOT
ATOM      1  C   UNL     1       0.730  -0.500   1.224  0.00  0.00    +0.237 C 
ATOM      2  O   UNL     1       0.159  -1.215   2.021  0.00  0.00    -0.273 OA
ATOM      3  N   UNL     1       2.019  -0.161   1.426  0.00  0.00    -0.283 N 
ATOM      4  H   UNL     1       2.499   0.343   0.750  0.00  0.00    +0.155 HD
ENDROOT
BRANCH   3   5
ATOM      5  C   UNL     1       2.664  -0.537   2.609  0.00  0.00    +0.052 A 
ATOM      6  C   UNL     1       1.925  -0.778   3.759  0.00  0.00    +0.027 A 
ATOM      7  C   UNL     1       2.565  -1.149   4.926  0.00  0.00    +0.034 A 
ATOM      8  C   UNL     1       3.941  -1.281   4.950  0.00  0.00    +0.128 A 
ATOM      9  C   UNL     1       4.682  -1.041   3.807  0.00  0.00    +0.054 A 
ATOM     10  C   UNL     1       4.047  -0.675   2.635  0.00  0.00    +0.064 A 
ATOM     11 CL   UNL     1       4.976  -0.381   1.198  0.00  0.00    -0.082 Cl
BRANCH   8  12
ATOM     12  N   UNL     1       4.623  -1.678   6.202  0.00  0.00    +0.056 N 
ATOM     13  O   UNL     1       3.977  -1.887   7.202  0.00  0.00    -0.126 OA
ATOM     14  O   UNL     1       5.827  -1.793   6.224  0.00  0.00    -0.126 OA
ENDBRANCH   8  12
ENDBRANCH   3   5
BRANCH   1  16
ATOM     15  C   UNL     1      -0.021   1.539   0.029  0.00  0.00    +0.038 C 
ATOM     16  C   UNL     1      -0.002   0.009   0.010  0.00  0.00    +0.154 C 
BRANCH  16  17
ATOM     17  N   UNL     1      -1.377  -0.497   0.021  0.00  0.00    -0.333 N 
ATOM     18  H   UNL     1      -1.796  -0.743   0.860  0.00  0.00    +0.147 HD
BRANCH  17  19
ATOM     19  C   UNL     1      -2.085  -0.623  -1.179  0.00  0.00    +0.028 A 
ATOM     20  C   UNL     1      -1.484  -0.276  -2.381  0.00  0.00    +0.026 A 
ATOM     21  C   UNL     1      -2.185  -0.402  -3.564  0.00  0.00    +0.040 A 
ATOM     22  C   UNL     1      -3.486  -0.875  -3.552  0.00  0.00    +0.124 A 
ATOM     23  C   UNL     1      -4.088  -1.222  -2.354  0.00  0.00    +0.040 A 
ATOM     24  C   UNL     1      -3.389  -1.102  -1.169  0.00  0.00    +0.026 A 
ATOM     25  F   UNL     1      -4.170  -0.998  -4.711  0.00  0.00    -0.205 F 
ENDBRANCH  17  19
ENDBRANCH  16  17
ENDBRANCH   1  16
TORSDOF 5
