REMARK  Name = ZINC63372699
REMARK  10 active torsions:
REMARK  status: ('A' for Active; 'I' for Inactive)
REMARK    1  A    between atoms: C_1  and  C_2
REMARK    2  A    between atoms: C_2  and  C_3
REMARK    3  A    between atoms: C_2  and  O_4
REMARK    4  A    between atoms: O_4  and  C_5
REMARK    5  A    between atoms: C_8  and  C_13
REMARK    6  A    between atoms: C_10  and  O_11
REMARK    7  A    between atoms: O_11  and  C_12
REMARK    8  A    between atoms: N_20  and  C_35
REMARK    9  A    between atoms: C_23  and  C_34
REMARK   10  A    between atoms: C_35  and  C_36
REMARK                            x       y       z     vdW  Elec       q    Type
REMARK                         _______ _______ _______ _____ _____    ______ ____
ROOT
ATOM      1  C   UNL     1       6.291  -0.829  -0.937  0.00  0.00    +0.065 C 
ATOM      2  C   UNL     1       6.705  -1.877   0.110  0.00  0.00    +0.121 C 
ATOM      3  N   UNL     1       6.457  -1.341   1.463  0.00  0.00    -0.283 N 
ATOM      4  C   UNL     1       5.627  -2.017   2.265  0.00  0.00    +0.234 C 
ATOM      5  O   UNL     1       5.109  -3.019   1.821  0.00  0.00    -0.274 OA
ATOM      6  C   UNL     1       5.293  -1.629   3.667  0.00  0.00    +0.204 C 
ATOM      7  N   UNL     1       5.984  -0.420   4.082  0.00  0.00    -0.287 N 
ATOM      8  C   UNL     1       6.802   0.269   3.288  0.00  0.00    +0.242 C 
ATOM      9  O   UNL     1       7.327   1.264   3.743  0.00  0.00    -0.273 OA
ATOM     10  C   UNL     1       7.117  -0.102   1.877  0.00  0.00    +0.135 C 
ATOM     11  C   UNL     1       6.675   1.018   0.930  0.00  0.00    +0.139 C 
ATOM     12  C   UNL     1       6.873   0.488  -0.488  0.00  0.00    -0.027 C 
ATOM     13  C   UNL     1       7.621   1.383  -1.122  0.00  0.00    -0.000 A 
ATOM     14  C   UNL     1       8.056   1.479  -2.525  0.00  0.00    +0.010 A 
ATOM     15  C   UNL     1       8.852   2.537  -2.834  0.00  0.00    +0.001 A 
ATOM     16  C   UNL     1       9.254   3.496  -1.900  0.00  0.00    +0.002 A 
ATOM     17  C   UNL     1       8.893   3.491  -0.592  0.00  0.00    +0.026 A 
ATOM     18  C   UNL     1       8.047   2.433  -0.148  0.00  0.00    +0.043 A 
ATOM     19  N   UNL     1       7.519   2.207   1.047  0.00  0.00    -0.375 N 
ATOM     20  C   UNL     1       8.631  -0.277   1.738  0.00  0.00    +0.044 C 
ATOM     21  H   UNL     1       7.663   2.724   1.855  0.00  0.00    +0.160 HD
ENDROOT
BRANCH   1  25
ATOM     22  C   UNL     1       2.027  -0.553  -1.118  0.00  0.00    +0.162 A 
ATOM     23  C   UNL     1       2.690  -0.309   0.074  0.00  0.00    +0.050 A 
ATOM     24  C   UNL     1       4.068  -0.399   0.130  0.00  0.00    +0.008 A 
ATOM     25  C   UNL     1       4.788  -0.732  -1.002  0.00  0.00    -0.035 A 
ATOM     26  C   UNL     1       4.133  -0.977  -2.195  0.00  0.00    +0.053 A 
ATOM     27  C   UNL     1       2.751  -0.894  -2.256  0.00  0.00    +0.162 A 
BRANCH  27  28
ATOM     28  O   UNL     1       2.105  -1.140  -3.427  0.00  0.00    -0.491 OA
ATOM     29  C   UNL     1       2.913  -1.484  -4.554  0.00  0.00    +0.277 C 
ENDBRANCH  27  28
BRANCH  22  30
ATOM     30  O   UNL     1       0.671  -0.465  -1.174  0.00  0.00    -0.486 OA
BRANCH  30  32
ATOM     31  C   UNL     1      -0.051   1.266   0.351  0.00  0.00    +0.051 C 
ATOM     32  C   UNL     1      -0.016  -0.236   0.058  0.00  0.00    +0.167 C 
ATOM     33  C   UNL     1      -1.446  -0.768  -0.049  0.00  0.00    +0.051 C 
ENDBRANCH  30  32
ENDBRANCH  22  30
ENDBRANCH   1  25
BRANCH   7  34
ATOM     34  C   UNL     1       5.768   0.068   5.446  0.00  0.00    +0.143 C 
BRANCH  34  35
ATOM     35  C   UNL     1       6.791  -0.547   6.367  0.00  0.00    -0.030 A 
ATOM     36  C   UNL     1       6.521  -1.748   6.995  0.00  0.00    +0.005 A 
ATOM     37  C   UNL     1       7.459  -2.312   7.840  0.00  0.00    +0.000 A 
ATOM     38  C   UNL     1       8.667  -1.675   8.056  0.00  0.00    +0.000 A 
ATOM     39  C   UNL     1       8.937  -0.474   7.426  0.00  0.00    +0.000 A 
ATOM     40  C   UNL     1       8.001   0.088   6.578  0.00  0.00    +0.005 A 
ENDBRANCH  34  35
ENDBRANCH   7  34
TORSDOF 6
