REMARK  Name = ZINC02071667
REMARK  4 active torsions:
REMARK  status: ('A' for Active; 'I' for Inactive)
REMARK    1  A    between atoms: C_6  and  S_11
REMARK    2  A    between atoms: S_11  and  N_14
REMARK    3  A    between atoms: N_14  and  C_15
REMARK    4  A    between atoms: C_18  and  O_22
REMARK                            x       y       z     vdW  Elec       q    Type
REMARK                         _______ _______ _______ _____ _____    ______ ____
ROOT
ATOM      1  S   UNL     1       0.553   7.142  -0.423  0.00  0.00    +0.072 S 
ATOM      2  O   UNL     1      -0.612   7.748   0.121  0.00  0.00    -0.150 OA
ATOM      3  O   UNL     1       1.649   6.738   0.385  0.00  0.00    -0.150 OA
ENDROOT
BRANCH   1   9
ATOM      4  C   UNL     1      -2.469   2.272  -3.911  0.00  0.00    +0.001 A 
ATOM      5  C   UNL     1      -3.321   3.369  -3.801  0.00  0.00    +0.001 A 
ATOM      6  C   UNL     1      -2.938   4.489  -3.129  0.00  0.00    +0.008 A 
ATOM      7  C   UNL     1      -1.661   4.547  -2.545  0.00  0.00    -0.016 A 
ATOM      8  C   UNL     1      -1.229   5.689  -1.848  0.00  0.00    +0.037 A 
ATOM      9  C   UNL     1       0.015   5.710  -1.296  0.00  0.00    +0.109 A 
ATOM     10  C   UNL     1       0.869   4.614  -1.410  0.00  0.00    +0.029 A 
ATOM     11  C   UNL     1       0.484   3.492  -2.078  0.00  0.00    +0.010 A 
ATOM     12  C   UNL     1      -0.793   3.434  -2.661  0.00  0.00    -0.018 A 
ATOM     13  C   UNL     1      -1.225   2.293  -3.359  0.00  0.00    +0.008 A 
ENDBRANCH   1   9
BRANCH   1  14
ATOM     14  N   UNL     1       1.156   8.201  -1.545  0.00  0.00    -0.216 N 
ATOM     15  H   UNL     1       0.735   9.066  -1.671  0.00  0.00    +0.174 HD
BRANCH  14  16
ATOM     16  C   UNL     1       2.273   7.848  -2.310  0.00  0.00    +0.050 A 
ATOM     17  C   UNL     1       3.540   7.867  -1.740  0.00  0.00    +0.028 A 
ATOM     18  C   UNL     1       4.641   7.513  -2.494  0.00  0.00    +0.049 A 
ATOM     19  C   UNL     1       4.485   7.149  -3.824  0.00  0.00    +0.135 A 
ATOM     20  C   UNL     1       3.220   7.136  -4.396  0.00  0.00    +0.084 A 
ATOM     21  C   UNL     1       2.116   7.484  -3.641  0.00  0.00    +0.048 A 
ATOM     22 CL   UNL     1       3.026   6.681  -6.060  0.00  0.00    -0.080 Cl
BRANCH  19  23
ATOM     23  O   UNL     1       5.571   6.806  -4.567  0.00  0.00    -0.505 OA
ATOM     24  H   UNL     1       5.986   7.551  -5.024  0.00  0.00    +0.292 HD
ENDBRANCH  19  23
ENDBRANCH  14  16
ENDBRANCH   1  14
TORSDOF 4
