REMARK  Name = ZINC35480606
REMARK  8 active torsions:
REMARK  status: ('A' for Active; 'I' for Inactive)
REMARK    1  A    between atoms: C_1  and  C_2
REMARK    2  A    between atoms: C_7  and  C_8
REMARK    3  A    between atoms: N_9  and  C_19
REMARK    4  A    between atoms: C_19  and  C_20
REMARK    5  A    between atoms: N_22  and  C_23
REMARK    6  A    between atoms: C_23  and  C_24
REMARK    7  A    between atoms: C_23  and  C_25
REMARK    8  A    between atoms: C_23  and  C_26
REMARK                            x       y       z     vdW  Elec       q    Type
REMARK                         _______ _______ _______ _____ _____    ______ ____
ROOT
ATOM      1  C   UNL     1      -0.231   1.496   0.009  0.00  0.00    +0.044 C 
ATOM      2  C   UNL     1      -0.154  -0.009   0.001  0.00  0.00    -0.046 A 
ATOM      3  C   UNL     1      -0.109  -0.691  -1.203  0.00  0.00    +0.028 A 
ATOM      4  C   UNL     1      -0.037  -2.073  -1.211  0.00  0.00    +0.053 A 
ATOM      5  C   UNL     1      -0.011  -2.772  -0.004  0.00  0.00    +0.058 A 
ATOM      6  C   UNL     1      -0.056  -2.086   1.196  0.00  0.00    +0.029 A 
ATOM      7  C   UNL     1      -0.121  -0.703   1.195  0.00  0.00    -0.046 A 
ATOM      8  C   UNL     1      -0.164   0.048   2.502  0.00  0.00    +0.044 C 
ATOM      9  N   UNL     1       0.060  -4.163   0.184  0.00  0.00    -0.257 N 
ATOM     10  C   UNL     1       0.122  -5.127  -0.753  0.00  0.00    +0.249 C 
ATOM     11  O   UNL     1       0.176  -6.264  -0.324  0.00  0.00    -0.270 OA
ATOM     12  C   UNL     1       0.132  -5.014  -2.168  0.00  0.00    +0.032 C 
ATOM     13  H   UNL     1      -0.030  -1.931  -3.224  0.00  0.00    +0.152 HD
ATOM     14  C   UNL     1       0.211  -6.242  -3.053  0.00  0.00    +0.042 C 
ATOM     15  C   UNL     1       0.637  -5.712  -4.439  0.00  0.00    +0.011 C 
ATOM     16  C   UNL     1       0.115  -4.259  -4.395  0.00  0.00    +0.051 C 
ATOM     17  C   UNL     1       0.078  -3.899  -2.924  0.00  0.00    +0.016 C 
ATOM     18  N   UNL     1       0.002  -2.590  -2.513  0.00  0.00    -0.316 N 
ENDROOT
BRANCH   9  19
ATOM     19  C   UNL     1       0.068  -4.622   1.575  0.00  0.00    +0.209 C 
BRANCH  19  20
ATOM     20  C   UNL     1      -1.347  -4.682   2.092  0.00  0.00    +0.231 C 
ATOM     21  O   UNL     1      -2.270  -4.372   1.370  0.00  0.00    -0.274 OA
ATOM     22  N   UNL     1      -1.585  -5.080   3.358  0.00  0.00    -0.309 N 
ATOM     23  H   UNL     1      -0.847  -5.328   3.936  0.00  0.00    +0.149 HD
BRANCH  22  24
ATOM     24  C   UNL     1      -2.960  -5.138   3.860  0.00  0.00    +0.026 C 
ATOM     25  C   UNL     1      -3.774  -6.112   3.007  0.00  0.00    +0.031 C 
ATOM     26  C   UNL     1      -2.952  -5.617   5.313  0.00  0.00    +0.031 C 
ATOM     27  C   UNL     1      -3.590  -3.746   3.786  0.00  0.00    +0.031 C 
ENDBRANCH  22  24
ENDBRANCH  19  20
ENDBRANCH   9  19
TORSDOF 3
