REMARK  Name = ZINC13064605
REMARK  11 active torsions:
REMARK  status: ('A' for Active; 'I' for Inactive)
REMARK    1  A    between atoms: C_1  and  C_2
REMARK    2  A    between atoms: C_2  and  C_3
REMARK    3  A    between atoms: C_3  and  C_5
REMARK    4  A    between atoms: C_3  and  N_75
REMARK    5  A    between atoms: N_9  and  C_10
REMARK    6  A    between atoms: C_16  and  C_17
REMARK    7  A    between atoms: C_16  and  N_75
REMARK    8  A    between atoms: C_26  and  C_27
REMARK    9  A    between atoms: C_26  and  N_75
REMARK   10  A    between atoms: C_31  and  C_40
REMARK   11  A    between atoms: C_32  and  C_39
REMARK                            x       y       z     vdW  Elec       q    Type
REMARK                         _______ _______ _______ _____ _____    ______ ____
ROOT
ATOM      1  N   UNL     1      -5.370   4.049  -1.447  0.00  0.00    +0.392 N 
ATOM      2  H   UNL     1      -4.685   4.597  -1.980  0.00  0.00    -0.080 HD
ENDROOT
BRANCH   1   3
ATOM      3  C   UNL     1      -6.653   4.783  -1.416  0.00  0.00    +0.003 C 
BRANCH   3   4
ATOM      4  C   UNL     1      -7.595   4.157  -0.421  0.00  0.00    +0.138 A 
ATOM      5  N   UNL     1      -7.322   3.834   0.819  0.00  0.00    -0.115 NA
ATOM      6  N   UNL     1      -8.386   3.328   1.342  0.00  0.00    -0.023 NA
ATOM      7  N   UNL     1      -9.328   3.313   0.465  0.00  0.00    -0.044 NA
ATOM      8  N   UNL     1      -8.880   3.816  -0.635  0.00  0.00    -0.228 N 
BRANCH   8   9
ATOM      9  C   UNL     1      -9.628   3.985  -1.883  0.00  0.00    +0.111 C 
ATOM     10  C   UNL     1     -10.836   4.891  -1.635  0.00  0.00    +0.027 C 
ATOM     11  C   UNL     1     -11.617   5.067  -2.938  0.00  0.00    +0.002 C 
ATOM     12  C   UNL     1     -12.098   3.701  -3.434  0.00  0.00    +0.000 C 
ATOM     13  C   UNL     1     -10.890   2.795  -3.682  0.00  0.00    +0.002 C 
ATOM     14  C   UNL     1     -10.109   2.619  -2.378  0.00  0.00    +0.027 C 
ENDBRANCH   8   9
ENDBRANCH   3   4
BRANCH   3  16
ATOM     15  C   UNL     1      -5.541   6.913  -2.102  0.00  0.00    +0.002 C 
ATOM     16  C   UNL     1      -6.380   6.234  -1.017  0.00  0.00    -0.011 C 
ENDBRANCH   3  16
ENDBRANCH   1   3
BRANCH   1  17
ATOM     17  C   UNL     1      -5.553   2.739  -2.107  0.00  0.00    -0.041 C 
BRANCH  17  18
ATOM     18  C   UNL     1      -5.742   2.963  -3.585  0.00  0.00    -0.060 A 
ATOM     19  C   UNL     1      -7.016   2.992  -4.121  0.00  0.00    +0.005 A 
ATOM     20  C   UNL     1      -7.195   3.203  -5.475  0.00  0.00    +0.050 A 
ATOM     21  C   UNL     1      -6.095   3.373  -6.301  0.00  0.00    +0.166 A 
ATOM     22  C   UNL     1      -4.812   3.338  -5.762  0.00  0.00    +0.166 A 
ATOM     23  C   UNL     1      -4.641   3.133  -4.403  0.00  0.00    +0.051 A 
ATOM     24  O   UNL     1      -3.910   3.529  -6.769  0.00  0.00    -0.453 OA
ATOM     25  C   UNL     1      -4.634   3.274  -7.987  0.00  0.00    +0.466 C 
ATOM     26  O   UNL     1      -5.998   3.586  -7.646  0.00  0.00    -0.453 OA
ENDBRANCH  17  18
ENDBRANCH   1  17
BRANCH   1  27
ATOM     27  C   UNL     1      -4.865   3.856  -0.071  0.00  0.00    -0.036 C 
BRANCH  27  28
ATOM     28  C   UNL     1      -3.386   3.573  -0.135  0.00  0.00    +0.001 A 
ATOM     29  C   UNL     1      -2.498   4.587   0.013  0.00  0.00    +0.017 A 
ATOM     30  C   UNL     1      -1.068   4.279  -0.059  0.00  0.00    -0.001 A 
ATOM     31  C   UNL     1      -0.105   5.285   0.070  0.00  0.00    +0.013 A 
ATOM     32  C   UNL     1       1.221   4.966  -0.003  0.00  0.00    -0.047 A 
ATOM     33  C   UNL     1       1.622   3.652  -0.204  0.00  0.00    -0.046 A 
ATOM     34  C   UNL     1       0.690   2.645  -0.335  0.00  0.00    +0.030 A 
ATOM     35  C   UNL     1      -0.666   2.947  -0.269  0.00  0.00    +0.049 A 
ATOM     36  N   UNL     1      -1.620   1.960  -0.402  0.00  0.00    -0.322 N 
ATOM     37  H   UNL     1      -1.342   1.042  -0.542  0.00  0.00    +0.169 HD
ATOM     38  C   UNL     1      -2.931   2.253  -0.339  0.00  0.00    +0.251 A 
ATOM     39  O   UNL     1      -3.747   1.355  -0.460  0.00  0.00    -0.268 OA
ATOM     40  C   UNL     1       3.090   3.324  -0.281  0.00  0.00    +0.044 C 
ATOM     41  C   UNL     1       2.259   6.050   0.137  0.00  0.00    +0.044 C 
ENDBRANCH  27  28
ENDBRANCH   1  27
TORSDOF 8
