REMARK  Name = ZINC39634634
REMARK  14 active torsions:
REMARK  status: ('A' for Active; 'I' for Inactive)
REMARK    1  A    between atoms: C_1  and  C_2
REMARK    2  A    between atoms: C_2  and  C_3
REMARK    3  A    between atoms: C_2  and  C_4
REMARK    4  A    between atoms: C_4  and  C_6
REMARK    5  A    between atoms: C_4  and  O_34
REMARK    6  A    between atoms: C_10  and  C_19
REMARK    7  A    between atoms: N_21  and  C_22
REMARK    8  A    between atoms: C_22  and  C_23
REMARK    9  A    between atoms: C_23  and  C_24
REMARK   10  A    between atoms: C_27  and  O_32
REMARK   11  A    between atoms: C_28  and  O_30
REMARK   12  A    between atoms: O_30  and  C_31
REMARK   13  A    between atoms: O_32  and  C_33
REMARK   14  A    between atoms: O_34  and  C_35
REMARK                            x       y       z     vdW  Elec       q    Type
REMARK                         _______ _______ _______ _____ _____    ______ ____
ROOT
ATOM      1  C   UNL     1       0.379  -1.574  -1.140  0.00  0.00    +0.257 C 
ATOM      2  O   UNL     1       1.307  -2.341  -0.996  0.00  0.00    -0.272 OA
ATOM      3  N   UNL     1      -0.868  -2.052  -1.326  0.00  0.00    -0.297 N 
ATOM      4  C   UNL     1      -2.097  -1.285  -1.637  0.00  0.00    +0.121 C 
ATOM      5  C   UNL     1      -2.856  -2.162  -2.658  0.00  0.00    +0.100 C 
ATOM      6  C   UNL     1      -2.342  -3.590  -2.409  0.00  0.00    -0.004 C 
ATOM      7  C   UNL     1      -1.317  -3.464  -1.272  0.00  0.00    +0.115 C 
ATOM      8  C   UNL     1      -1.665  -4.135  -3.663  0.00  0.00    -0.010 C 
ATOM      9  C   UNL     1      -1.213  -5.575  -3.408  0.00  0.00    -0.082 C 
ATOM     10  N   UNL     1      -2.376  -6.400  -3.057  0.00  0.00    +0.379 N 
ATOM     11  C   UNL     1      -2.965  -5.926  -1.800  0.00  0.00    -0.082 C 
ATOM     12  C   UNL     1      -3.491  -4.500  -1.986  0.00  0.00    -0.010 C 
ATOM     13  H   UNL     1      -3.063  -6.340  -3.793  0.00  0.00    -0.086 HD
ATOM     14  H   UNL     1      -2.085  -7.360  -2.950  0.00  0.00    -0.086 HD
ENDROOT
BRANCH   5  15
ATOM     15  C   UNL     1      -4.341  -2.086  -2.414  0.00  0.00    +0.218 C 
ATOM     16  O   UNL     1      -4.761  -1.834  -1.304  0.00  0.00    -0.275 OA
ATOM     17  N   UNL     1      -5.203  -2.300  -3.428  0.00  0.00    -0.315 N 
ATOM     18  H   UNL     1      -4.867  -2.502  -4.315  0.00  0.00    +0.149 HD
BRANCH  17  19
ATOM     19  C   UNL     1      -6.646  -2.226  -3.190  0.00  0.00    +0.109 C 
BRANCH  19  20
ATOM     20  C   UNL     1      -7.393  -2.506  -4.496  0.00  0.00    +0.054 C 
BRANCH  20  21
ATOM     21  C   UNL     1      -8.878  -2.431  -4.252  0.00  0.00    -0.042 A 
ATOM     22  C   UNL     1      -9.574  -3.564  -3.874  0.00  0.00    +0.007 A 
ATOM     23  C   UNL     1     -10.936  -3.500  -3.649  0.00  0.00    +0.049 A 
ATOM     24  C   UNL     1     -11.607  -2.298  -3.801  0.00  0.00    +0.161 A 
ATOM     25  C   UNL     1     -10.907  -1.157  -4.180  0.00  0.00    +0.162 A 
ATOM     26  C   UNL     1      -9.541  -1.227  -4.400  0.00  0.00    +0.053 A 
BRANCH  25  27
ATOM     27  O   UNL     1     -11.562   0.026  -4.331  0.00  0.00    -0.491 OA
ATOM     28  C   UNL     1     -10.779   1.155  -4.723  0.00  0.00    +0.277 C 
ENDBRANCH  25  27
BRANCH  24  29
ATOM     29  O   UNL     1     -12.948  -2.233  -3.580  0.00  0.00    -0.491 OA
ATOM     30  C   UNL     1     -13.601  -3.444  -3.193  0.00  0.00    +0.277 C 
ENDBRANCH  24  29
ENDBRANCH  20  21
ENDBRANCH  19  20
ENDBRANCH  17  19
ENDBRANCH   5  15
BRANCH   1  31
ATOM     31  C   UNL     1       0.619  -0.086  -1.111  0.00  0.00    +0.261 C 
BRANCH  31  33
ATOM     32  C   UNL     1       0.507   1.970   0.304  0.00  0.00    +0.011 C 
ATOM     33  C   UNL     1       0.319   0.451   0.290  0.00  0.00    +0.033 C 
ATOM     34  C   UNL     1      -1.124   0.112   0.668  0.00  0.00    +0.011 C 
ENDBRANCH  31  33
BRANCH  31  35
ATOM     35  O   UNL     1       1.983   0.182  -1.443  0.00  0.00    -0.479 OA
BRANCH  35  36
ATOM     36  C   UNL     1       2.220   1.234  -2.271  0.00  0.00    +0.122 A 
ATOM     37  C   UNL     1       3.505   1.475  -2.735  0.00  0.00    +0.045 A 
ATOM     38  C   UNL     1       3.744   2.544  -3.577  0.00  0.00    +0.004 A 
ATOM     39  C   UNL     1       2.704   3.373  -3.957  0.00  0.00    +0.000 A 
ATOM     40  C   UNL     1       1.423   3.134  -3.495  0.00  0.00    +0.004 A 
ATOM     41  C   UNL     1       1.178   2.063  -2.657  0.00  0.00    +0.045 A 
ENDBRANCH  35  36
ENDBRANCH  31  35
ENDBRANCH   1  31
TORSDOF 10
