REMARK  Name = ZINC35938709
REMARK  10 active torsions:
REMARK  status: ('A' for Active; 'I' for Inactive)
REMARK    1  A    between atoms: C_1  and  C_2
REMARK    2  A    between atoms: C_7  and  C_8
REMARK    3  A    between atoms: N_17  and  C_18
REMARK    4  A    between atoms: C_18  and  C_19
REMARK    5  A    between atoms: C_19  and  C_20
REMARK    6  A    between atoms: C_28  and  C_30
REMARK    7  A    between atoms: C_32  and  O_38
REMARK    8  A    between atoms: C_34  and  O_36
REMARK    9  A    between atoms: O_36  and  C_37
REMARK   10  A    between atoms: O_38  and  C_39
REMARK                            x       y       z     vdW  Elec       q    Type
REMARK                         _______ _______ _______ _____ _____    ______ ____
ROOT
ATOM      1  C   UNL     1       4.947  -1.565   4.623  0.00  0.00    +0.214 C 
ATOM      2  O   UNL     1       5.461  -1.046   3.655  0.00  0.00    -0.276 OA
ATOM      3  N   UNL     1       5.531  -2.631   5.205  0.00  0.00    -0.299 N 
ATOM      4  C   UNL     1       4.917  -3.275   6.374  0.00  0.00    +0.126 C 
ATOM      5  C   UNL     1       4.723  -4.765   6.068  0.00  0.00    +0.127 C 
ATOM      6  N   UNL     1       5.986  -5.305   5.544  0.00  0.00    -0.295 N 
ATOM      7  C   UNL     1       6.600  -4.661   4.375  0.00  0.00    +0.127 C 
ATOM      8  C   UNL     1       6.791  -3.175   4.678  0.00  0.00    +0.126 C 
ATOM      9  C   UNL     1       6.570  -6.371   6.126  0.00  0.00    +0.247 C 
ATOM     10  O   UNL     1       7.576  -6.853   5.642  0.00  0.00    -0.270 OA
ENDROOT
BRANCH   9  11
ATOM     11  C   UNL     1       5.988  -6.955   7.354  0.00  0.00    +0.044 A 
ATOM     12  C   UNL     1       4.636  -7.296   7.393  0.00  0.00    +0.059 A 
ATOM     13  C   UNL     1       4.094  -7.843   8.544  0.00  0.00    +0.124 A 
ATOM     14  C   UNL     1       4.895  -8.051   9.658  0.00  0.00    +0.091 A 
ATOM     15  C   UNL     1       6.240  -7.713   9.624  0.00  0.00    +0.124 A 
ATOM     16  C   UNL     1       6.790  -7.171   8.474  0.00  0.00    +0.059 A 
BRANCH  15  17
ATOM     17  O   UNL     1       7.019  -7.919  10.718  0.00  0.00    -0.495 OA
ATOM     18  C   UNL     1       6.388  -8.487  11.867  0.00  0.00    +0.277 C 
ENDBRANCH  15  17
BRANCH  13  19
ATOM     19  O   UNL     1       2.777  -8.176   8.583  0.00  0.00    -0.495 OA
ATOM     20  C   UNL     1       2.285  -8.736   9.803  0.00  0.00    +0.277 C 
ENDBRANCH  13  19
ENDBRANCH   9  11
BRANCH   1  21
ATOM     21  C   UNL     1       3.655  -1.019   5.175  0.00  0.00    +0.077 C 
BRANCH  21  22
ATOM     22  C   UNL     1       3.210   0.181   4.337  0.00  0.00    -0.068 C 
BRANCH  22  31
ATOM     23  C   UNL     1       1.467   1.787   3.998  0.00  0.00    -0.006 C 
ATOM     24  C   UNL     1       0.216   2.403   4.618  0.00  0.00    -0.047 A 
ATOM     25  C   UNL     1      -0.715   3.155   3.908  0.00  0.00    +0.010 A 
ATOM     26  C   UNL     1      -1.800   3.663   4.540  0.00  0.00    +0.045 A 
ATOM     27  S   UNL     1      -1.552   3.088   6.214  0.00  0.00    -0.101 S 
ATOM     28  C   UNL     1      -0.032   2.223   5.946  0.00  0.00    -0.010 A 
ATOM     29  C   UNL     1       0.817   1.464   6.912  0.00  0.00    +0.024 C 
ATOM     30  C   UNL     1       2.177   1.215   6.238  0.00  0.00    -0.072 C 
ATOM     31  N   UNL     1       1.951   0.713   4.875  0.00  0.00    +0.388 N 
ATOM     32  H   UNL     1       1.265  -0.026   4.904  0.00  0.00    -0.080 HD
BRANCH  23  39
ATOM     33  C   UNL     1       1.510   3.495   1.669  0.00  0.00    +0.044 C 
ATOM     34  C   UNL     1       1.153   2.037   1.528  0.00  0.00    -0.049 A 
ATOM     35  C   UNL     1       0.852   1.516   0.283  0.00  0.00    +0.003 A 
ATOM     36  C   UNL     1       0.525   0.179   0.154  0.00  0.00    +0.000 A 
ATOM     37  C   UNL     1       0.500  -0.637   1.270  0.00  0.00    +0.000 A 
ATOM     38  C   UNL     1       0.802  -0.116   2.514  0.00  0.00    +0.002 A 
ATOM     39  C   UNL     1       1.133   1.220   2.643  0.00  0.00    -0.054 A 
ENDBRANCH  23  39
ENDBRANCH  22  31
ENDBRANCH  21  22
ENDBRANCH   1  21
TORSDOF 7
