REMARK  Name = ZINC08695374
REMARK  16 active torsions:
REMARK  status: ('A' for Active; 'I' for Inactive)
REMARK    1  A    between atoms: C_1  and  C_2
REMARK    2  A    between atoms: C_2  and  C_3
REMARK    3  A    between atoms: C_3  and  C_4
REMARK    4  A    between atoms: C_4  and  N_69
REMARK    5  A    between atoms: C_5  and  C_6
REMARK    6  A    between atoms: C_5  and  N_69
REMARK    7  A    between atoms: C_6  and  C_7
REMARK    8  A    between atoms: C_7  and  C_8
REMARK    9  A    between atoms: C_9  and  C_10
REMARK   10  A    between atoms: C_9  and  N_69
REMARK   11  A    between atoms: C_10  and  C_11
REMARK   12  A    between atoms: C_11  and  N_12
REMARK   13  A    between atoms: C_13  and  C_29
REMARK   14  A    between atoms: C_15  and  C_20
REMARK   15  A    between atoms: C_16  and  O_19
REMARK   16  A    between atoms: C_20  and  C_22
REMARK                            x       y       z     vdW  Elec       q    Type
REMARK                         _______ _______ _______ _____ _____    ______ ____
ROOT
ATOM      1  N   UNL     1       0.044  -1.574   0.336  0.00  0.00    -0.284 N 
ATOM      2  C   UNL     1       0.658  -0.277   0.030  0.00  0.00    +0.144 C 
ATOM      3  C   UNL     1       2.149  -0.472   0.171  0.00  0.00    +0.071 C 
ATOM      4  C   UNL     1       2.342  -1.764   0.524  0.00  0.00    +0.188 C 
ATOM      5  C   UNL     1       1.032  -2.441   0.625  0.00  0.00    +0.282 C 
ATOM      6  O   UNL     1       0.871  -3.607   0.925  0.00  0.00    -0.267 OA
ENDROOT
BRANCH   2   7
ATOM      7  C   UNL     1       0.320   0.136  -1.380  0.00  0.00    -0.022 A 
ATOM      8  C   UNL     1       0.544  -0.738  -2.428  0.00  0.00    +0.007 A 
ATOM      9  C   UNL     1       0.230  -0.362  -3.720  0.00  0.00    +0.020 A 
ATOM     10  C   UNL     1      -0.299   0.892  -3.966  0.00  0.00    +0.041 A 
ATOM     11  C   UNL     1      -0.518   1.768  -2.918  0.00  0.00    +0.020 A 
ATOM     12  C   UNL     1      -0.209   1.389  -1.625  0.00  0.00    +0.007 A 
ATOM     13 CL   UNL     1      -0.688   1.367  -5.590  0.00  0.00    -0.084 Cl
ENDBRANCH   2   7
BRANCH   4  14
ATOM     14  O   UNL     1       3.544  -2.344   0.750  0.00  0.00    -0.502 OA
ATOM     15  H   UNL     1       3.410  -3.304   0.996  0.00  0.00    +0.292 HD
ENDBRANCH   4  14
BRANCH   3  16
ATOM     16  C   UNL     1       3.187   0.543  -0.036  0.00  0.00    +0.195 C 
ATOM     17  O   UNL     1       3.969   0.434  -0.962  0.00  0.00    -0.287 OA
BRANCH  16  18
ATOM     18  C   UNL     1       3.284   1.697   0.881  0.00  0.00    +0.022 A 
ATOM     19  C   UNL     1       2.457   1.772   2.004  0.00  0.00    +0.014 A 
ATOM     20  C   UNL     1       2.556   2.849   2.859  0.00  0.00    +0.039 A 
ATOM     21  C   UNL     1       3.467   3.862   2.600  0.00  0.00    +0.123 A 
ATOM     22  C   UNL     1       4.286   3.796   1.483  0.00  0.00    +0.039 A 
ATOM     23  C   UNL     1       4.200   2.721   0.624  0.00  0.00    +0.014 A 
ATOM     24  F   UNL     1       3.555   4.918   3.438  0.00  0.00    -0.205 F 
ENDBRANCH  16  18
ENDBRANCH   3  16
BRANCH   1  25
ATOM     25  C   UNL     1      -1.390  -1.873   0.329  0.00  0.00    +0.107 C 
BRANCH  25  26
ATOM     26  C   UNL     1      -1.805  -2.346  -1.065  0.00  0.00    +0.000 C 
BRANCH  26  27
ATOM     27  C   UNL     1      -3.303  -2.658  -1.073  0.00  0.00    -0.077 C 
BRANCH  27  28
ATOM     28  N   UNL     1      -3.684  -3.134  -2.420  0.00  0.00    +0.380 N 
ATOM     29  H   UNL     1      -3.052  -3.894  -2.696  0.00  0.00    -0.082 HD
BRANCH  28  30
ATOM     30  C   UNL     1      -5.071  -3.645  -2.401  0.00  0.00    -0.079 C 
BRANCH  30  31
ATOM     31  C   UNL     1      -5.069  -5.045  -1.785  0.00  0.00    -0.019 C 
BRANCH  31  33
ATOM     32  C   UNL     1      -6.495  -6.993  -1.141  0.00  0.00    +0.004 C 
ATOM     33  C   UNL     1      -6.497  -5.593  -1.757  0.00  0.00    -0.005 C 
ENDBRANCH  31  33
ENDBRANCH  30  31
ENDBRANCH  28  30
BRANCH  28  34
ATOM     34  C   UNL     1      -3.565  -2.031  -3.397  0.00  0.00    -0.079 C 
BRANCH  34  35
ATOM     35  C   UNL     1      -3.609  -2.619  -4.809  0.00  0.00    -0.019 C 
BRANCH  35  36
ATOM     36  C   UNL     1      -3.476  -1.491  -5.835  0.00  0.00    -0.005 C 
ATOM     37  C   UNL     1      -3.520  -2.079  -7.247  0.00  0.00    +0.004 C 
ENDBRANCH  35  36
ENDBRANCH  34  35
ENDBRANCH  28  34
ENDBRANCH  27  28
ENDBRANCH  26  27
ENDBRANCH  25  26
ENDBRANCH   1  25
TORSDOF 14
