REMARK  Name = ZINC01843789
REMARK  10 active torsions:
REMARK  status: ('A' for Active; 'I' for Inactive)
REMARK    1  A    between atoms: C_1  and  C_2
REMARK    2  A    between atoms: C_3  and  C_41
REMARK    3  A    between atoms: C_4  and  C_27
REMARK    4  A    between atoms: N_17  and  C_20
REMARK    5  A    between atoms: C_20  and  C_21
REMARK    6  A    between atoms: C_30  and  O_33
REMARK    7  A    between atoms: O_33  and  C_34
REMARK    8  A    between atoms: C_34  and  C_36
REMARK    9  A    between atoms: C_41  and  O_43
REMARK   10  A    between atoms: O_43  and  C_44
REMARK                            x       y       z     vdW  Elec       q    Type
REMARK                         _______ _______ _______ _____ _____    ______ ____
ROOT
ATOM      1  C   UNL     1      -0.228   1.602   0.061  0.00  0.00    +0.066 C 
ATOM      2  C   UNL     1      -0.109   0.101   0.001  0.00  0.00    +0.053 C 
ATOM      3  C   UNL     1      -1.236  -0.668   0.020  0.00  0.00    +0.085 C 
ATOM      4  C   UNL     1      -1.073  -2.170  -0.043  0.00  0.00    +0.162 C 
ATOM      5  N   UNL     1       0.317  -2.700  -0.120  0.00  0.00    -0.275 N 
ATOM      6  C   UNL     1       0.662  -3.993  -0.182  0.00  0.00    +0.269 A 
ATOM      7  O   UNL     1      -0.180  -4.869  -0.180  0.00  0.00    -0.266 OA
ATOM      8  C   UNL     1       2.105  -4.318  -0.255  0.00  0.00    +0.093 A 
ATOM      9  C   UNL     1       2.725  -5.550  -0.327  0.00  0.00    +0.065 C 
ATOM     10  C   UNL     1       4.176  -5.824  -0.392  0.00  0.00    +0.010 A 
ATOM     11  C   UNL     1       5.302  -5.005  -0.401  0.00  0.00    +0.010 A 
ATOM     12  C   UNL     1       6.559  -5.571  -0.470  0.00  0.00    +0.001 A 
ATOM     13  C   UNL     1       6.698  -6.948  -0.530  0.00  0.00    +0.002 A 
ATOM     14  C   UNL     1       5.588  -7.769  -0.522  0.00  0.00    +0.024 A 
ATOM     15  C   UNL     1       4.314  -7.219  -0.453  0.00  0.00    +0.045 A 
ATOM     16  N   UNL     1       3.054  -7.806  -0.429  0.00  0.00    -0.258 N 
ATOM     17  C   UNL     1       2.083  -6.880  -0.350  0.00  0.00    +0.253 C 
ATOM     18  O   UNL     1       0.887  -7.099  -0.308  0.00  0.00    -0.270 OA
ATOM     19  S   UNL     1       2.826  -2.684  -0.224  0.00  0.00    -0.045 S 
ATOM     20  C   UNL     1       1.312  -1.748  -0.126  0.00  0.00    +0.178 A 
ATOM     21  N   UNL     1       1.092  -0.461  -0.075  0.00  0.00    -0.228 NA
ENDROOT
BRANCH   4  22
ATOM     22  C   UNL     1      -1.826  -2.668  -1.249  0.00  0.00    -0.020 A 
ATOM     23  C   UNL     1      -1.257  -2.574  -2.505  0.00  0.00    +0.009 A 
ATOM     24  C   UNL     1      -1.945  -3.030  -3.613  0.00  0.00    +0.047 A 
ATOM     25  C   UNL     1      -3.209  -3.583  -3.464  0.00  0.00    +0.132 A 
ATOM     26  C   UNL     1      -3.778  -3.676  -2.202  0.00  0.00    +0.047 A 
ATOM     27  C   UNL     1      -3.083  -3.224  -1.097  0.00  0.00    +0.009 A 
BRANCH  25  28
ATOM     28  O   UNL     1      -3.888  -4.032  -4.552  0.00  0.00    -0.420 OA
BRANCH  28  29
ATOM     29  C   UNL     1      -3.428  -5.135  -5.175  0.00  0.00    +0.380 C 
ATOM     30  O   UNL     1      -2.496  -5.757  -4.702  0.00  0.00    -0.241 OA
BRANCH  29  31
ATOM     31  C   UNL     1      -4.049  -5.585  -6.423  0.00  0.00    +0.212 A 
ATOM     32  C   UNL     1      -3.686  -6.683  -7.151  0.00  0.00    +0.056 A 
ATOM     33  C   UNL     1      -4.543  -6.732  -8.261  0.00  0.00    +0.042 A 
ATOM     34  C   UNL     1      -5.381  -5.676  -8.164  0.00  0.00    +0.196 A 
ATOM     35  O   UNL     1      -5.084  -4.990  -7.053  0.00  0.00    -0.456 OA
ENDBRANCH  29  31
ENDBRANCH  28  29
ENDBRANCH  25  28
ENDBRANCH   4  22
BRANCH   3  36
ATOM     36  C   UNL     1      -2.513  -0.081   0.095  0.00  0.00    +0.339 C 
ATOM     37  O   UNL     1      -2.623   1.131   0.144  0.00  0.00    -0.245 OA
BRANCH  36  38
ATOM     38  O   UNL     1      -3.615  -0.861   0.112  0.00  0.00    -0.465 OA
ATOM     39  C   UNL     1      -4.878  -0.198   0.189  0.00  0.00    +0.280 C 
ENDBRANCH  36  38
ENDBRANCH   3  36
BRANCH  16  40
ATOM     40  C   UNL     1       2.815  -9.251  -0.478  0.00  0.00    +0.209 C 
BRANCH  40  41
ATOM     41  C   UNL     1       2.786  -9.803   0.923  0.00  0.00    +0.228 C 
ATOM     42  O   UNL     1       2.949  -9.063   1.870  0.00  0.00    -0.274 OA
ATOM     43  N   UNL     1       2.579 -11.120   1.125  0.00  0.00    -0.328 N 
ATOM     44  H   UNL     1       2.450 -11.712   0.368  0.00  0.00    +0.145 HD
ATOM     45  H   UNL     1       2.561 -11.475   2.027  0.00  0.00    +0.145 HD
ENDBRANCH  40  41
ENDBRANCH  16  40
TORSDOF 8
