REMARK  Name = ZINC17113562
REMARK  8 active torsions:
REMARK  status: ('A' for Active; 'I' for Inactive)
REMARK    1  A    between atoms: C_1  and  C_2
REMARK    2  A    between atoms: C_2  and  C_3
REMARK    3  A    between atoms: C_2  and  O_4
REMARK    4  A    between atoms: O_4  and  C_5
REMARK    5  A    between atoms: C_8  and  C_11
REMARK    6  A    between atoms: N_13  and  C_14
REMARK    7  A    between atoms: C_15  and  C_24
REMARK    8  A    between atoms: N_20  and  C_23
REMARK                            x       y       z     vdW  Elec       q    Type
REMARK                         _______ _______ _______ _____ _____    ______ ____
ROOT
ATOM      1  C   UNL     1      -2.543   4.127  -0.164  0.00  0.00    +0.082 A 
ATOM      2  C   UNL     1      -2.784   5.479  -0.351  0.00  0.00    +0.039 A 
ATOM      3  C   UNL     1      -4.157   5.938  -0.290  0.00  0.00    -0.023 A 
ATOM      4  C   UNL     1      -5.096   4.991  -0.052  0.00  0.00    +0.009 A 
ATOM      5  S   UNL     1      -4.187   3.479   0.088  0.00  0.00    -0.076 S 
ATOM      6  C   UNL     1      -6.573   5.208   0.058  0.00  0.00    +0.126 C 
ATOM      7  N   UNL     1      -6.817   6.653   0.220  0.00  0.00    -0.300 NA
ATOM      8  C   UNL     1      -6.076   7.421  -0.791  0.00  0.00    +0.089 C 
ATOM      9  C   UNL     1      -4.578   7.393  -0.479  0.00  0.00    +0.052 C 
ATOM     10  C   UNL     1      -8.254   6.954   0.161  0.00  0.00    +0.105 C 
ENDROOT
BRANCH   2  11
ATOM     11  C   UNL     1      -1.679   6.420  -0.603  0.00  0.00    +0.112 A 
ATOM     12  N   UNL     1      -1.730   7.721  -0.807  0.00  0.00    -0.239 NA
ATOM     13  C   UNL     1      -0.625   8.463  -1.023  0.00  0.00    +0.079 A 
ATOM     14  C   UNL     1      -0.541   9.857  -1.249  0.00  0.00    +0.029 A 
ATOM     15  C   UNL     1       0.671  10.460  -1.460  0.00  0.00    +0.002 A 
ATOM     16  C   UNL     1       1.853   9.733  -1.460  0.00  0.00    +0.001 A 
ATOM     17  C   UNL     1       1.808   8.368  -1.242  0.00  0.00    +0.017 A 
ATOM     18  C   UNL     1       0.599   7.754  -1.030  0.00  0.00    +0.040 A 
ATOM     19  S   UNL     1       0.073   6.086  -0.720  0.00  0.00    -0.067 S 
ENDBRANCH   2  11
BRANCH   1  22
ATOM     20  C   UNL     1      -1.304   2.115   0.029  0.00  0.00    +0.249 C 
ATOM     21  O   UNL     1      -2.339   1.508   0.223  0.00  0.00    -0.270 OA
ATOM     22  N   UNL     1      -1.331   3.447  -0.176  0.00  0.00    -0.275 N 
ATOM     23  H   UNL     1      -0.395   3.996  -0.352  0.00  0.00    +0.156 HD
BRANCH  20  27
ATOM     24  C   UNL     1       2.399   0.037  -0.018  0.00  0.00    +0.121 A 
ATOM     25  C   UNL     1       1.217  -0.658   0.210  0.00  0.00    +0.046 A 
ATOM     26  C   UNL     1       0.015   0.013   0.228  0.00  0.00    +0.016 A 
ATOM     27  C   UNL     1      -0.017   1.394   0.016  0.00  0.00    +0.037 A 
ATOM     28  C   UNL     1       1.174   2.089  -0.213  0.00  0.00    +0.016 A 
ATOM     29  C   UNL     1       2.373   1.411  -0.229  0.00  0.00    +0.046 A 
BRANCH  24  30
ATOM     30  O   UNL     1       3.582  -0.627  -0.035  0.00  0.00    -0.489 OA
BRANCH  30  32
ATOM     31  C   UNL     1       4.782  -2.657  -0.566  0.00  0.00    +0.051 C 
ATOM     32  C   UNL     1       3.528  -2.052   0.068  0.00  0.00    +0.167 C 
ATOM     33  C   UNL     1       3.458  -2.453   1.543  0.00  0.00    +0.051 C 
ENDBRANCH  30  32
ENDBRANCH  24  30
ENDBRANCH  20  27
ENDBRANCH   1  22
TORSDOF 5
