REMARK  Name = ZINC09192235
REMARK  3 active torsions:
REMARK  status: ('A' for Active; 'I' for Inactive)
REMARK    1  A    between atoms: C_16  and  C_18
REMARK    2  A    between atoms: C_18  and  C_20
REMARK    3  A    between atoms: N_29  and  C_32
REMARK                            x       y       z     vdW  Elec       q    Type
REMARK                         _______ _______ _______ _____ _____    ______ ____
ROOT
ATOM      1  C   UNL     1      -0.017   1.375   0.010  0.00  0.00    +0.001 A 
ATOM      2  C   UNL     1       1.168   2.091   0.002  0.00  0.00    +0.000 A 
ATOM      3  C   UNL     1       2.383   1.428  -0.010  0.00  0.00    +0.006 A 
ATOM      4  C   UNL     1       2.415   0.053  -0.015  0.00  0.00    -0.016 A 
ATOM      5  C   UNL     1       1.223  -0.682  -0.014  0.00  0.00    -0.000 A 
ATOM      6  C   UNL     1       0.002  -0.004   0.002  0.00  0.00    +0.010 A 
ATOM      7  C   UNL     1       1.253  -2.158  -0.036  0.00  0.00    +0.138 C 
ATOM      8  N   UNL     1       2.348  -2.793   0.291  0.00  0.00    -0.191 NA
ATOM      9  N   UNL     1       3.457  -1.998   0.630  0.00  0.00    -0.236 N 
ATOM     10  C   UNL     1       3.720  -0.700  -0.018  0.00  0.00    +0.136 C 
ATOM     11  C   UNL     1       4.786   0.025   0.812  0.00  0.00    +0.116 C 
ATOM     12  C   UNL     1       5.510  -1.131   1.569  0.00  0.00    +0.119 C 
ATOM     13  C   UNL     1       4.454  -2.240   1.667  0.00  0.00    +0.177 C 
ATOM     14  C   UNL     1       6.595  -1.517   0.587  0.00  0.00    +0.232 C 
ATOM     15  O   UNL     1       7.190  -2.573   0.565  0.00  0.00    -0.274 OA
ATOM     16  N   UNL     1       6.785  -0.488  -0.255  0.00  0.00    -0.208 N 
ATOM     17  C   UNL     1       5.871   0.521  -0.132  0.00  0.00    +0.232 C 
ATOM     18  O   UNL     1       5.907   1.611  -0.662  0.00  0.00    -0.274 OA
ENDROOT
BRANCH  16  19
ATOM     19  C   UNL     1       7.834  -0.448  -1.186  0.00  0.00    +0.062 A 
ATOM     20  C   UNL     1       7.649  -0.960  -2.463  0.00  0.00    +0.027 A 
ATOM     21  C   UNL     1       8.683  -0.919  -3.378  0.00  0.00    +0.022 A 
ATOM     22  C   UNL     1       9.902  -0.369  -3.023  0.00  0.00    +0.042 A 
ATOM     23  C   UNL     1      10.089   0.142  -1.751  0.00  0.00    +0.042 A 
ATOM     24  C   UNL     1       9.056   0.109  -0.833  0.00  0.00    +0.064 A 
ATOM     25 CL   UNL     1       9.289   0.756   0.761  0.00  0.00    -0.082 Cl
ATOM     26 CL   UNL     1      11.199  -0.320  -4.176  0.00  0.00    -0.083 Cl
ENDBRANCH  16  19
BRANCH  13  27
ATOM     27  C   UNL     1       5.103  -3.583   1.447  0.00  0.00    +0.186 C 
ATOM     28  O   UNL     1       5.027  -4.123   0.364  0.00  0.00    -0.290 OA
BRANCH  27  29
ATOM     29  C   UNL     1       5.826  -4.238   2.546  0.00  0.00    +0.020 A 
ATOM     30  C   UNL     1       5.910  -3.620   3.799  0.00  0.00    +0.014 A 
ATOM     31  C   UNL     1       6.590  -4.240   4.825  0.00  0.00    +0.039 A 
ATOM     32  C   UNL     1       7.191  -5.473   4.618  0.00  0.00    +0.123 A 
ATOM     33  C   UNL     1       7.111  -6.090   3.378  0.00  0.00    +0.039 A 
ATOM     34  C   UNL     1       6.430  -5.485   2.346  0.00  0.00    +0.014 A 
ATOM     35  F   UNL     1       7.856  -6.074   5.628  0.00  0.00    -0.205 F 
ENDBRANCH  27  29
ENDBRANCH  13  27
TORSDOF 3
