REMARK  Name = ZINC20977316
REMARK  4 active torsions:
REMARK  status: ('A' for Active; 'I' for Inactive)
REMARK    1  A    between atoms: C_1  and  C_2
REMARK    2  A    between atoms: C_9  and  S_15
REMARK    3  A    between atoms: S_15  and  N_18
REMARK    4  A    between atoms: N_18  and  C_19
REMARK                            x       y       z     vdW  Elec       q    Type
REMARK                         _______ _______ _______ _____ _____    ______ ____
ROOT
ATOM      1  C   UNL     1       9.515   6.981   1.874  0.00  0.00    +0.018 C 
ATOM      2  C   UNL     1       8.037   6.604   1.749  0.00  0.00    +0.082 C 
ATOM      3  C   UNL     1       7.473   7.256   0.520  0.00  0.00    +0.087 C 
ATOM      4  S   UNL     1       5.689   7.228   0.442  0.00  0.00    -0.123 S 
ATOM      5  C   UNL     1       5.180   5.600   0.060  0.00  0.00    +0.029 A 
ATOM      6  C   UNL     1       4.027   5.475  -0.727  0.00  0.00    +0.018 A 
ATOM      7  C   UNL     1       3.533   4.246  -1.095  0.00  0.00    +0.030 A 
ATOM      8  C   UNL     1       4.181   3.100  -0.669  0.00  0.00    +0.110 A 
ATOM      9  C   UNL     1       5.312   3.207   0.104  0.00  0.00    +0.053 A 
ATOM     10  C   UNL     1       5.837   4.454   0.481  0.00  0.00    +0.049 A 
ATOM     11  N   UNL     1       6.965   4.388   1.255  0.00  0.00    -0.284 N 
ATOM     12  C   UNL     1       7.920   5.121   1.708  0.00  0.00    +0.221 C 
ATOM     13  O   UNL     1       8.864   4.514   2.168  0.00  0.00    -0.275 OA
ATOM     14  H   UNL     1       7.269   3.431   1.704  0.00  0.00    +0.155 HD
ENDROOT
BRANCH   8  15
ATOM     15  S   UNL     1       3.563   1.513  -1.121  0.00  0.00    +0.072 S 
ATOM     16  O   UNL     1       4.649   0.605  -1.000  0.00  0.00    -0.150 OA
ATOM     17  O   UNL     1       2.848   1.687  -2.337  0.00  0.00    -0.150 OA
BRANCH  15  18
ATOM     18  N   UNL     1       2.451   1.076   0.025  0.00  0.00    -0.216 N 
ATOM     19  H   UNL     1       2.632   0.196   0.659  0.00  0.00    +0.174 HD
BRANCH  18  20
ATOM     20  C   UNL     1       1.281   1.825   0.185  0.00  0.00    +0.048 A 
ATOM     21  C   UNL     1       0.256   1.722  -0.747  0.00  0.00    +0.027 A 
ATOM     22  C   UNL     1      -0.896   2.467  -0.589  0.00  0.00    +0.040 A 
ATOM     23  C   UNL     1      -1.035   3.308   0.502  0.00  0.00    +0.124 A 
ATOM     24  C   UNL     1      -0.014   3.411   1.433  0.00  0.00    +0.040 A 
ATOM     25  C   UNL     1       1.142   2.672   1.276  0.00  0.00    +0.027 A 
ATOM     26  F   UNL     1      -2.165   4.032   0.657  0.00  0.00    -0.205 F 
ENDBRANCH  18  20
ENDBRANCH  15  18
ENDBRANCH   8  15
TORSDOF 3
