REMARK  Name = ZINC08454115
REMARK  8 active torsions:
REMARK  status: ('A' for Active; 'I' for Inactive)
REMARK    1  A    between atoms: C_1  and  C_2
REMARK    2  A    between atoms: C_5  and  N_9
REMARK    3  A    between atoms: C_6  and  C_8
REMARK    4  A    between atoms: N_9  and  S_10
REMARK    5  A    between atoms: S_10  and  C_13
REMARK    6  A    between atoms: C_26  and  C_29
REMARK    7  A    between atoms: C_32  and  O_35
REMARK    8  A    between atoms: O_35  and  C_36
REMARK                            x       y       z     vdW  Elec       q    Type
REMARK                         _______ _______ _______ _____ _____    ______ ____
ROOT
ATOM      1  C   UNL     1       2.625   0.713   0.019  0.00  0.00    +0.109 A 
ATOM      2  C   UNL     1       1.928   1.906   0.080  0.00  0.00    +0.030 A 
ATOM      3  C   UNL     1       0.571   1.893   0.336  0.00  0.00    +0.025 A 
ATOM      4  C   UNL     1      -0.088   0.685   0.530  0.00  0.00    +0.031 A 
ATOM      5  C   UNL     1       0.607  -0.513   0.469  0.00  0.00    -0.018 A 
ATOM      6  C   UNL     1       1.971  -0.486   0.212  0.00  0.00    +0.034 A 
ATOM      7  C   UNL     1      -0.061  -1.836   0.668  0.00  0.00    +0.049 C 
ATOM      8  C   UNL     1       0.260  -2.418   2.024  0.00  0.00    -0.023 C 
ATOM      9  C   UNL     1      -0.783  -3.050   2.505  0.00  0.00    -0.030 C 
ATOM     10  C   UNL     1      -1.942  -2.981   1.529  0.00  0.00    +0.033 C 
ATOM     11  C   UNL     1      -1.599  -1.743   0.649  0.00  0.00    +0.029 C 
ATOM     12  C   UNL     1      -2.056  -0.498   1.415  0.00  0.00    +0.105 C 
ATOM     13  N   UNL     1      -1.463   0.688   0.790  0.00  0.00    -0.336 N 
ATOM     14  H   UNL     1      -2.010   1.456   0.563  0.00  0.00    +0.147 HD
ENDROOT
BRANCH  12  15
ATOM     15  C   UNL     1      -1.603  -0.594   2.849  0.00  0.00    -0.027 A 
ATOM     16  C   UNL     1      -2.424  -1.179   3.795  0.00  0.00    +0.009 A 
ATOM     17  C   UNL     1      -2.008  -1.273   5.109  0.00  0.00    +0.046 A 
ATOM     18  C   UNL     1      -0.770  -0.769   5.482  0.00  0.00    +0.120 A 
ATOM     19  C   UNL     1       0.049  -0.176   4.532  0.00  0.00    +0.046 A 
ATOM     20  C   UNL     1      -0.369  -0.090   3.218  0.00  0.00    +0.009 A 
BRANCH  18  21
ATOM     21  O   UNL     1      -0.361  -0.855   6.775  0.00  0.00    -0.495 OA
ATOM     22  C   UNL     1      -1.257  -1.477   7.698  0.00  0.00    +0.277 C 
ENDBRANCH  18  21
ENDBRANCH  12  15
BRANCH   1  23
ATOM     23  S   UNL     1       4.357   0.725  -0.304  0.00  0.00    +0.072 S 
ATOM     24  O   UNL     1       4.836   2.003   0.092  0.00  0.00    -0.150 OA
ATOM     25  O   UNL     1       4.879  -0.483   0.231  0.00  0.00    -0.150 OA
BRANCH  23  26
ATOM     26  N   UNL     1       4.549   0.637  -1.947  0.00  0.00    -0.216 N 
ATOM     27  H   UNL     1       5.031  -0.107  -2.340  0.00  0.00    +0.174 HD
BRANCH  26  32
ATOM     28  C   UNL     1       2.389   4.688  -5.276  0.00  0.00    +0.044 C 
ATOM     29  C   UNL     1       2.962   3.611  -4.391  0.00  0.00    -0.050 A 
ATOM     30  C   UNL     1       3.379   3.921  -3.110  0.00  0.00    +0.005 A 
ATOM     31  C   UNL     1       3.906   2.937  -2.296  0.00  0.00    +0.025 A 
ATOM     32  C   UNL     1       4.016   1.635  -2.767  0.00  0.00    +0.051 A 
ATOM     33  C   UNL     1       3.601   1.328  -4.056  0.00  0.00    -0.028 A 
ATOM     34  C   UNL     1       3.071   2.316  -4.863  0.00  0.00    +0.008 A 
ATOM     35  C   UNL     1       3.724  -0.082  -4.573  0.00  0.00    +0.046 C 
ENDBRANCH  26  32
ENDBRANCH  23  26
ENDBRANCH   1  23
TORSDOF 5
