REMARK  Name = ZINC60318920
REMARK  8 active torsions:
REMARK  status: ('A' for Active; 'I' for Inactive)
REMARK    1  A    between atoms: C_1  and  C_2
REMARK    2  A    between atoms: C_2  and  C_3
REMARK    3  A    between atoms: C_2  and  C_4
REMARK    4  A    between atoms: C_2  and  C_5
REMARK    5  A    between atoms: C_11  and  C_14
REMARK    6  A    between atoms: N_16  and  C_17
REMARK    7  A    between atoms: C_22  and  N_23
REMARK    8  A    between atoms: N_23  and  C_24
REMARK                            x       y       z     vdW  Elec       q    Type
REMARK                         _______ _______ _______ _____ _____    ______ ____
ROOT
ATOM      1  C   UNL     1       1.125  -5.151  -6.506  0.00  0.00    +0.054 A 
ATOM      2  C   UNL     1       2.504  -5.087  -6.637  0.00  0.00    +0.025 A 
ATOM      3  C   UNL     1       3.145  -5.864  -7.583  0.00  0.00    +0.002 A 
ATOM      4  C   UNL     1       2.416  -6.706  -8.402  0.00  0.00    +0.002 A 
ATOM      5  C   UNL     1       1.041  -6.777  -8.279  0.00  0.00    +0.025 A 
ATOM      6  C   UNL     1       0.389  -6.005  -7.328  0.00  0.00    +0.049 A 
ENDROOT
BRANCH   1   9
ATOM      7  C   UNL     1       1.137  -3.949  -4.451  0.00  0.00    +0.222 C 
ATOM      8  O   UNL     1       2.321  -4.183  -4.335  0.00  0.00    -0.275 OA
ATOM      9  N   UNL     1       0.472  -4.364  -5.547  0.00  0.00    -0.284 N 
ATOM     10  H   UNL     1      -0.458  -4.118  -5.673  0.00  0.00    +0.155 HD
BRANCH   7  17
ATOM     11  C   UNL     1       1.002  -1.031  -0.644  0.00  0.00    +0.221 C 
ATOM     12  O   UNL     1       2.025  -0.505  -1.028  0.00  0.00    -0.275 OA
ATOM     13  N   UNL     1       0.634  -2.229  -1.139  0.00  0.00    -0.300 N 
ATOM     14  C   UNL     1      -0.526  -2.942  -0.587  0.00  0.00    +0.108 C 
ATOM     15  C   UNL     1      -1.482  -3.290  -1.733  0.00  0.00    +0.020 C 
ATOM     16  C   UNL     1      -0.720  -4.067  -2.809  0.00  0.00    +0.016 C 
ATOM     17  C   UNL     1       0.408  -3.196  -3.368  0.00  0.00    +0.093 C 
ATOM     18  C   UNL     1       1.381  -2.844  -2.245  0.00  0.00    +0.120 C 
BRANCH  11  20
ATOM     19  C   UNL     1       0.744   1.021   0.724  0.00  0.00    +0.020 C 
ATOM     20  C   UNL     1       0.143  -0.345   0.387  0.00  0.00    +0.039 C 
ATOM     21  C   UNL     1       0.084  -1.202   1.653  0.00  0.00    +0.020 C 
ATOM     22  C   UNL     1      -1.270  -0.159  -0.169  0.00  0.00    +0.020 C 
ENDBRANCH  11  20
ENDBRANCH   7  17
ENDBRANCH   1   9
BRANCH   6  23
ATOM     23  N   UNL     1      -1.002  -6.079  -7.197  0.00  0.00    -0.337 N 
ATOM     24  H   UNL     1      -1.456  -5.534  -6.536  0.00  0.00    +0.147 HD
BRANCH  23  25
ATOM     25  C   UNL     1      -1.771  -6.980  -8.058  0.00  0.00    +0.033 C 
ATOM     26  C   UNL     1      -1.569  -6.583  -9.522  0.00  0.00    +0.029 C 
ATOM     27  C   UNL     1      -2.373  -7.524 -10.421  0.00  0.00    -0.008 C 
ATOM     28  C   UNL     1      -3.858  -7.424 -10.066  0.00  0.00    +0.007 C 
ATOM     29  C   UNL     1      -4.060  -7.821  -8.603  0.00  0.00    -0.008 C 
ATOM     30  C   UNL     1      -3.256  -6.880  -7.703  0.00  0.00    +0.029 C 
ATOM     31  C   UNL     1      -3.582  -9.259  -8.393  0.00  0.00    +0.007 C 
ATOM     32  C   UNL     1      -2.097  -9.359  -8.748  0.00  0.00    -0.008 C 
ATOM     33  C   UNL     1      -1.894  -8.962 -10.212  0.00  0.00    +0.007 C 
ATOM     34  C   UNL     1      -1.293  -8.418  -7.849  0.00  0.00    +0.029 C 
ENDBRANCH  23  25
ENDBRANCH   6  23
TORSDOF 5
