REMARK  Name = ZINC32740937
REMARK  5 active torsions:
REMARK  status: ('A' for Active; 'I' for Inactive)
REMARK    1  A    between atoms: C_1  and  C_2
REMARK    2  A    between atoms: C_2  and  C_4
REMARK    3  A    between atoms: C_2  and  N_13
REMARK    4  A    between atoms: C_14  and  C_16
REMARK    5  A    between atoms: N_21  and  C_23
REMARK                            x       y       z     vdW  Elec       q    Type
REMARK                         _______ _______ _______ _____ _____    ______ ____
ROOT
ATOM      1  N   UNL     1      -1.498   5.956   0.049  0.00  0.00    -0.300 N 
ATOM      2  C   UNL     1      -0.280   5.380   0.034  0.00  0.00    +0.265 C 
ATOM      3  O   UNL     1       0.719   6.073   0.028  0.00  0.00    -0.268 OA
ATOM      4  H   UNL     1      -2.402   5.329   0.054  0.00  0.00    +0.150 HD
ENDROOT
BRANCH   2   5
ATOM      5  C   UNL     1      -0.158   3.907   0.025  0.00  0.00    +0.146 A 
ATOM      6  C   UNL     1       1.123   3.305   0.009  0.00  0.00    +0.040 A 
ATOM      7  C   UNL     1       1.196   1.943   0.001  0.00  0.00    +0.074 A 
ATOM      8  C   UNL     1      -0.015   1.216   0.009  0.00  0.00    +0.267 A 
ATOM      9  O   UNL     1       0.002  -0.004   0.002  0.00  0.00    -0.266 OA
ATOM     10  N   UNL     1      -1.187   1.877   0.018  0.00  0.00    -0.232 N 
ATOM     11  N   UNL     1      -1.239   3.160   0.030  0.00  0.00    -0.164 NA
ATOM     12  C   UNL     1      -2.436   1.113   0.019  0.00  0.00    +0.176 C 
ENDBRANCH   2   5
BRANCH   1  14
ATOM     13  C   UNL     1      -1.522   7.927   1.496  0.00  0.00    +0.036 C 
ATOM     14  C   UNL     1      -1.619   7.416   0.058  0.00  0.00    +0.136 C 
BRANCH  14  15
ATOM     15  C   UNL     1      -2.949   7.814  -0.528  0.00  0.00    +0.126 A 
ATOM     16  C   UNL     1      -3.147   8.858  -1.343  0.00  0.00    +0.055 A 
ATOM     17  C   UNL     1      -4.580   8.862  -1.664  0.00  0.00    +0.020 A 
ATOM     18  C   UNL     1      -5.401   9.672  -2.446  0.00  0.00    +0.011 A 
ATOM     19  C   UNL     1      -6.738   9.399  -2.533  0.00  0.00    +0.001 A 
ATOM     20  C   UNL     1      -7.281   8.321  -1.847  0.00  0.00    +0.004 A 
ATOM     21  C   UNL     1      -6.484   7.510  -1.068  0.00  0.00    +0.047 A 
ATOM     22  C   UNL     1      -5.123   7.770  -0.967  0.00  0.00    +0.135 A 
ATOM     23  O   UNL     1      -4.111   7.175  -0.303  0.00  0.00    -0.458 OA
ENDBRANCH  14  15
ENDBRANCH   1  14
TORSDOF 3
