REMARK  Name = ZINC05029871
REMARK  10 active torsions:
REMARK  status: ('A' for Active; 'I' for Inactive)
REMARK    1  A    between atoms: C_1  and  C_2
REMARK    2  A    between atoms: C_5  and  C_30
REMARK    3  A    between atoms: C_6  and  N_8
REMARK    4  A    between atoms: C_9  and  N_29
REMARK    5  A    between atoms: C_10  and  C_21
REMARK    6  A    between atoms: N_23  and  C_24
REMARK    7  A    between atoms: C_24  and  C_25
REMARK    8  A    between atoms: C_25  and  C_26
REMARK    9  A    between atoms: C_26  and  C_27
REMARK   10  A    between atoms: C_26  and  C_28
REMARK                            x       y       z     vdW  Elec       q    Type
REMARK                         _______ _______ _______ _____ _____    ______ ____
ROOT
ATOM      1  N   UNL     1      -4.278  -0.223   0.753  0.00  0.00    -0.280 N 
ATOM      2  C   UNL     1      -3.149   0.440   1.134  0.00  0.00    +0.117 A 
ATOM      3  C   UNL     1      -2.443   0.876   0.018  0.00  0.00    +0.104 A 
ATOM      4  C   UNL     1      -3.205   0.431  -1.160  0.00  0.00    +0.123 A 
ATOM      5  C   UNL     1      -4.375  -0.270  -0.625  0.00  0.00    +0.166 A 
ATOM      6  N   UNL     1      -5.255  -0.788  -1.455  0.00  0.00    -0.225 NA
ATOM      7  C   UNL     1      -5.074  -0.670  -2.777  0.00  0.00    +0.092 A 
ATOM      8  C   UNL     1      -6.010  -1.222  -3.671  0.00  0.00    +0.030 A 
ATOM      9  C   UNL     1      -5.818  -1.099  -5.013  0.00  0.00    +0.002 A 
ATOM     10  C   UNL     1      -4.704  -0.431  -5.519  0.00  0.00    +0.002 A 
ATOM     11  C   UNL     1      -3.778   0.115  -4.686  0.00  0.00    +0.030 A 
ATOM     12  C   UNL     1      -3.942   0.008  -3.292  0.00  0.00    +0.090 A 
ATOM     13  N   UNL     1      -3.037   0.542  -2.463  0.00  0.00    -0.241 NA
ENDROOT
BRANCH   1  19
ATOM     14  C   UNL     1      -5.811  -4.069   3.407  0.00  0.00    +0.044 C 
ATOM     15  C   UNL     1      -5.975  -2.646   2.939  0.00  0.00    -0.048 A 
ATOM     16  C   UNL     1      -7.047  -1.892   3.383  0.00  0.00    +0.004 A 
ATOM     17  C   UNL     1      -7.202  -0.587   2.955  0.00  0.00    +0.005 A 
ATOM     18  C   UNL     1      -6.283  -0.029   2.088  0.00  0.00    -0.027 A 
ATOM     19  C   UNL     1      -5.209  -0.784   1.637  0.00  0.00    +0.053 A 
ATOM     20  C   UNL     1      -5.056  -2.095   2.067  0.00  0.00    +0.030 A 
ATOM     21  C   UNL     1      -6.449   1.397   1.628  0.00  0.00    +0.046 C 
ENDBRANCH   1  19
BRANCH   3  22
ATOM     22  C   UNL     1      -1.187   1.624   0.017  0.00  0.00    +0.250 C 
ATOM     23  O   UNL     1      -1.204   2.841   0.023  0.00  0.00    -0.270 OA
ATOM     24  N   UNL     1      -0.011   0.966   0.007  0.00  0.00    -0.311 N 
ATOM     25  H   UNL     1       0.002  -0.004   0.002  0.00  0.00    +0.149 HD
BRANCH  24  26
ATOM     26  C   UNL     1       1.248   1.716  -0.001  0.00  0.00    +0.105 C 
BRANCH  26  27
ATOM     27  C   UNL     1       2.424   0.737  -0.017  0.00  0.00    +0.022 C 
BRANCH  27  28
ATOM     28  C   UNL     1       3.738   1.520  -0.025  0.00  0.00    -0.016 C 
ATOM     29  C   UNL     1       4.913   0.546   0.084  0.00  0.00    +0.007 C 
ATOM     30  C   UNL     1       3.852   2.312  -1.330  0.00  0.00    +0.007 C 
ENDBRANCH  27  28
ENDBRANCH  26  27
ENDBRANCH  24  26
ENDBRANCH   3  22
BRANCH   2  31
ATOM     31  N   UNL     1      -2.767   0.649   2.433  0.00  0.00    -0.343 N 
ATOM     32  H   UNL     1      -1.949   1.134   2.626  0.00  0.00    +0.144 HD
ATOM     33  H   UNL     1      -3.313   0.313   3.160  0.00  0.00    +0.144 HD
ENDBRANCH   2  31
TORSDOF 6
