REMARK  Name = ZINC04574775
REMARK  11 active torsions:
REMARK  status: ('A' for Active; 'I' for Inactive)
REMARK    1  A    between atoms: C_1  and  C_2
REMARK    2  A    between atoms: C_2  and  N_3
REMARK    3  A    between atoms: N_3  and  C_4
REMARK    4  A    between atoms: N_3  and  C_6
REMARK    5  A    between atoms: C_4  and  C_5
REMARK    6  A    between atoms: C_11  and  C_28
REMARK    7  A    between atoms: N_13  and  N_14
REMARK    8  A    between atoms: N_14  and  C_15
REMARK    9  A    between atoms: C_15  and  N_17
REMARK   10  A    between atoms: N_17  and  C_18
REMARK   11  A    between atoms: C_21  and  C_24
REMARK                            x       y       z     vdW  Elec       q    Type
REMARK                         _______ _______ _______ _____ _____    ______ ____
ROOT
ATOM      1  C   UNL     1      -0.364  -2.458  -0.896  0.00  0.00    +0.033 A 
ATOM      2  C   UNL     1      -1.487  -1.637  -0.792  0.00  0.00    +0.024 A 
ATOM      3  C   UNL     1      -1.360  -0.339  -0.389  0.00  0.00    +0.013 A 
ATOM      4  C   UNL     1      -0.094   0.173  -0.079  0.00  0.00    +0.018 A 
ATOM      5  C   UNL     1       0.064   1.565   0.348  0.00  0.00    +0.030 A 
ATOM      6  C   UNL     1       1.349   2.085   0.374  0.00  0.00    +0.098 A 
ATOM      7  C   UNL     1       2.450   1.183  -0.031  0.00  0.00    +0.224 A 
ATOM      8  N   UNL     1       3.561   1.655  -0.529  0.00  0.00    -0.274 N 
ATOM      9  O   UNL     1       2.268  -0.158   0.132  0.00  0.00    -0.437 OA
ATOM     10  C   UNL     1       1.043  -0.653  -0.177  0.00  0.00    +0.139 A 
ATOM     11  C   UNL     1       0.899  -1.966  -0.588  0.00  0.00    +0.070 A 
ATOM     12  H   UNL     1       3.689   2.741  -0.652  0.00  0.00    +0.187 HD
ENDROOT
BRANCH   6  13
ATOM     13  C   UNL     1       1.607   3.473   0.787  0.00  0.00    +0.247 C 
ATOM     14  O   UNL     1       0.683   4.192   1.115  0.00  0.00    -0.270 OA
ATOM     15  N   UNL     1       2.869   3.949   0.801  0.00  0.00    -0.325 N 
ATOM     16  H   UNL     1       3.062   4.987   1.110  0.00  0.00    +0.145 HD
ATOM     17  H   UNL     1       3.705   3.298   0.505  0.00  0.00    +0.145 HD
ENDBRANCH   6  13
BRANCH   8  18
ATOM     18  N   UNL     1       4.588   0.781  -0.905  0.00  0.00    -0.238 N 
ATOM     19  H   UNL     1       4.459  -0.305  -0.781  0.00  0.00    +0.174 HD
BRANCH  18  20
ATOM     20  C   UNL     1       5.734   1.269  -1.419  0.00  0.00    +0.153 C 
ATOM     21  S   UNL     1       6.990   0.200  -1.879  0.00  0.00    -0.017 S 
BRANCH  20  22
ATOM     22  N   UNL     1       5.892   2.599  -1.570  0.00  0.00    -0.296 N 
ATOM     23  H   UNL     1       5.061   3.281  -1.341  0.00  0.00    +0.154 HD
BRANCH  22  24
ATOM     24  C   UNL     1       7.113   3.112  -2.020  0.00  0.00    +0.033 A 
ATOM     25  C   UNL     1       7.681   4.212  -1.389  0.00  0.00    +0.023 A 
ATOM     26  C   UNL     1       8.890   4.711  -1.831  0.00  0.00    +0.005 A 
ATOM     27  C   UNL     1       9.530   4.126  -2.909  0.00  0.00    -0.050 A 
ATOM     28  C   UNL     1       8.965   3.034  -3.542  0.00  0.00    +0.005 A 
ATOM     29  C   UNL     1       7.759   2.525  -3.101  0.00  0.00    +0.023 A 
ATOM     30  C   UNL     1      10.846   4.678  -3.392  0.00  0.00    +0.044 C 
ENDBRANCH  22  24
ENDBRANCH  20  22
ENDBRANCH  18  20
ENDBRANCH   8  18
BRANCH   1  31
ATOM     31  N   UNL     1      -0.509  -3.778  -1.310  0.00  0.00    -0.330 N 
BRANCH  31  33
ATOM     32  C   UNL     1      -2.126  -4.073  -3.120  0.00  0.00    +0.024 C 
ATOM     33  C   UNL     1      -1.838  -4.302  -1.635  0.00  0.00    +0.102 C 
ENDBRANCH  31  33
BRANCH  31  34
ATOM     34  C   UNL     1       0.667  -4.644  -1.420  0.00  0.00    +0.102 C 
ATOM     35  C   UNL     1       0.902  -5.357  -0.087  0.00  0.00    +0.024 C 
ENDBRANCH  31  34
ENDBRANCH   1  31
TORSDOF 8
