REMARK  Name = ZINC08767935
REMARK  8 active torsions:
REMARK  status: ('A' for Active; 'I' for Inactive)
REMARK    1  A    between atoms: C_1  and  C_2
REMARK    2  A    between atoms: C_2  and  C_36
REMARK    3  A    between atoms: C_6  and  N_28
REMARK    4  A    between atoms: C_12  and  S_16
REMARK    5  A    between atoms: S_16  and  C_17
REMARK    6  A    between atoms: C_17  and  C_18
REMARK    7  A    between atoms: N_20  and  C_21
REMARK    8  A    between atoms: N_20  and  C_22
REMARK                            x       y       z     vdW  Elec       q    Type
REMARK                         _______ _______ _______ _____ _____    ______ ____
ROOT
ATOM      1  C   UNL     1       0.587   1.813   7.311  0.00  0.00    +0.041 C 
ATOM      2  C   UNL     1      -0.078   2.117   5.967  0.00  0.00    +0.068 C 
ATOM      3  C   UNL     1      -0.951   3.368   6.096  0.00  0.00    +0.070 C 
ATOM      4  C   UNL     1      -1.374   3.835   4.728  0.00  0.00    -0.024 A 
ATOM      5  C   UNL     1      -0.750   3.409   3.597  0.00  0.00    +0.020 A 
ATOM      6  C   UNL     1      -1.171   3.882   2.350  0.00  0.00    +0.105 A 
ATOM      7  C   UNL     1      -2.813   5.155   3.335  0.00  0.00    +0.089 A 
ATOM      8  C   UNL     1      -2.457   4.742   4.630  0.00  0.00    +0.035 A 
ATOM      9  C   UNL     1      -3.259   5.308   5.731  0.00  0.00    +0.092 A 
ATOM     10  C   UNL     1      -4.281   6.188   5.354  0.00  0.00    +0.072 A 
ATOM     11  S   UNL     1      -4.179   6.263   3.587  0.00  0.00    -0.066 S 
ATOM     12  C   UNL     1      -5.100   6.780   6.305  0.00  0.00    +0.115 A 
ATOM     13  N   UNL     1      -4.889   6.489   7.590  0.00  0.00    -0.228 NA
ATOM     14  C   UNL     1      -3.921   5.657   7.928  0.00  0.00    +0.223 A 
ATOM     15  N   UNL     1      -3.131   5.081   7.058  0.00  0.00    -0.234 NA
ATOM     16  C   UNL     1       0.403   2.439   3.651  0.00  0.00    +0.199 C 
ATOM     17  O   UNL     1       0.926   2.367   4.977  0.00  0.00    -0.369 OA
ATOM     18  C   UNL     1      -0.941   0.929   5.538  0.00  0.00    +0.041 C 
ATOM     19  N   UNL     1      -2.204   4.755   2.192  0.00  0.00    -0.337 N 
ATOM     20  H   UNL     1      -2.503   5.089   1.267  0.00  0.00    +0.168 HD
ENDROOT
BRANCH   6  21
ATOM     21  N   UNL     1      -0.525   3.454   1.197  0.00  0.00    -0.312 N 
ATOM     22  C   UNL     1      -1.208   2.290   0.613  0.00  0.00    +0.134 C 
ATOM     23  C   UNL     1      -0.432   1.817  -0.619  0.00  0.00    +0.178 C 
ATOM     24  O   UNL     1      -0.313   2.898  -1.548  0.00  0.00    -0.377 OA
ATOM     25  C   UNL     1       0.348   4.047  -1.011  0.00  0.00    +0.178 C 
ATOM     26  C   UNL     1      -0.420   4.544   0.216  0.00  0.00    +0.134 C 
ENDBRANCH   6  21
BRANCH  12  27
ATOM     27  S   UNL     1      -6.385   7.888   5.828  0.00  0.00    -0.095 S 
BRANCH  27  28
ATOM     28  C   UNL     1      -7.062   8.302   7.455  0.00  0.00    +0.172 C 
BRANCH  28  29
ATOM     29  C   UNL     1      -8.209   9.266   7.290  0.00  0.00    +0.230 C 
ATOM     30  O   UNL     1      -8.536   9.636   6.183  0.00  0.00    -0.274 OA
ATOM     31  N   UNL     1      -8.871   9.716   8.374  0.00  0.00    -0.274 N 
ATOM     32  C   UNL     1      -8.404   9.362   9.717  0.00  0.00    +0.138 C 
BRANCH  31  33
ATOM     33  C   UNL     1     -10.004  10.522   8.217  0.00  0.00    +0.036 A 
ATOM     34  C   UNL     1      -9.966  11.858   8.596  0.00  0.00    +0.023 A 
ATOM     35  C   UNL     1     -11.084  12.652   8.434  0.00  0.00    +0.002 A 
ATOM     36  C   UNL     1     -12.244  12.116   7.906  0.00  0.00    +0.000 A 
ATOM     37  C   UNL     1     -12.287  10.785   7.534  0.00  0.00    +0.002 A 
ATOM     38  C   UNL     1     -11.171   9.987   7.688  0.00  0.00    +0.023 A 
ENDBRANCH  31  33
ENDBRANCH  28  29
ENDBRANCH  27  28
ENDBRANCH  12  27
TORSDOF 5
