REMARK  Name = ZINC07975104
REMARK  6 active torsions:
REMARK  status: ('A' for Active; 'I' for Inactive)
REMARK    1  A    between atoms: C_1  and  C_2
REMARK    2  A    between atoms: C_3  and  N_11
REMARK    3  A    between atoms: C_7  and  N_8
REMARK    4  A    between atoms: N_11  and  C_12
REMARK    5  A    between atoms: C_12  and  C_13
REMARK    6  A    between atoms: N_15  and  C_16
REMARK                            x       y       z     vdW  Elec       q    Type
REMARK                         _______ _______ _______ _____ _____    ______ ____
ROOT
ATOM      1  C   UNL     1       0.076  -0.168  -0.970  0.00  0.00    +0.198 C 
ENDROOT
BRANCH   1   2
ATOM      2  C   UNL     1      -1.340  -0.615  -1.224  0.00  0.00    +0.234 C 
ATOM      3  O   UNL     1      -2.244   0.194  -1.204  0.00  0.00    -0.274 OA
ATOM      4  N   UNL     1      -1.603  -1.913  -1.472  0.00  0.00    -0.283 N 
ATOM      5  H   UNL     1      -0.875  -2.549  -1.550  0.00  0.00    +0.155 HD
BRANCH   4   6
ATOM      6  C   UNL     1      -2.929  -2.344  -1.617  0.00  0.00    +0.052 A 
ATOM      7  C   UNL     1      -3.876  -1.501  -2.183  0.00  0.00    +0.027 A 
ATOM      8  C   UNL     1      -5.182  -1.928  -2.325  0.00  0.00    +0.040 A 
ATOM      9  C   UNL     1      -5.547  -3.195  -1.903  0.00  0.00    +0.125 A 
ATOM     10  C   UNL     1      -4.605  -4.038  -1.339  0.00  0.00    +0.060 A 
ATOM     11  C   UNL     1      -3.296  -3.617  -1.200  0.00  0.00    +0.065 A 
ATOM     12 CL   UNL     1      -2.113  -4.677  -0.498  0.00  0.00    -0.082 Cl
ATOM     13  F   UNL     1      -6.826  -3.610  -2.043  0.00  0.00    -0.205 F 
ENDBRANCH   4   6
ENDBRANCH   1   2
BRANCH   1  14
ATOM     14  N   UNL     1       0.097   1.276  -0.728  0.00  0.00    -0.335 N 
ATOM     15  H   UNL     1      -0.729   1.784  -0.753  0.00  0.00    +0.147 HD
BRANCH  14  18
ATOM     16  C   UNL     1       0.048   4.086  -0.282  0.00  0.00    +0.048 C 
ATOM     17  C   UNL     1       1.330   3.295  -0.244  0.00  0.00    +0.001 A 
ATOM     18  C   UNL     1       1.307   1.923  -0.468  0.00  0.00    +0.033 A 
ATOM     19  C   UNL     1       2.492   1.199  -0.438  0.00  0.00    +0.023 A 
ATOM     20  C   UNL     1       3.687   1.842  -0.179  0.00  0.00    +0.004 A 
ATOM     21  C   UNL     1       3.705   3.205   0.048  0.00  0.00    +0.033 A 
ATOM     22  C   UNL     1       2.527   3.930   0.019  0.00  0.00    +0.131 A 
BRANCH  22  23
ATOM     23  N   UNL     1       2.551   5.390   0.264  0.00  0.00    +0.057 N 
ATOM     24  O   UNL     1       3.615   5.973   0.364  0.00  0.00    -0.126 OA
ATOM     25  O   UNL     1       1.506   6.007   0.365  0.00  0.00    -0.126 OA
ENDBRANCH  22  23
ENDBRANCH  14  18
ENDBRANCH   1  14
TORSDOF 5
