REMARK  Name = ZINC09508346
REMARK  9 active torsions:
REMARK  status: ('A' for Active; 'I' for Inactive)
REMARK    1  A    between atoms: C_1  and  C_2
REMARK    2  A    between atoms: C_2  and  C_3
REMARK    3  A    between atoms: C_3  and  C_4
REMARK    4  A    between atoms: C_4  and  N_5
REMARK    5  A    between atoms: C_6  and  N_31
REMARK    6  A    between atoms: C_7  and  N_14
REMARK    7  A    between atoms: N_14  and  C_15
REMARK    8  A    between atoms: C_20  and  C_22
REMARK    9  A    between atoms: C_22  and  C_23
REMARK                            x       y       z     vdW  Elec       q    Type
REMARK                         _______ _______ _______ _____ _____    ______ ____
ROOT
ATOM      1  N   UNL     1      -0.697   1.498   1.160  0.00  0.00    -0.261 N 
ATOM      2  C   UNL     1      -0.748   2.815   1.448  0.00  0.00    +0.225 C 
ATOM      3  O   UNL     1      -0.315   3.626   0.656  0.00  0.00    -0.275 OA
ENDROOT
BRANCH   1   6
ATOM      4  N   UNL     1      -1.046  -1.216   3.612  0.00  0.00    -0.280 N 
ATOM      5  C   UNL     1      -0.463  -0.316   2.750  0.00  0.00    +0.127 A 
ATOM      6  C   UNL     1      -1.265   0.560   2.048  0.00  0.00    +0.140 A 
ATOM      7  C   UNL     1      -2.659   0.498   2.228  0.00  0.00    +0.277 A 
ATOM      8  O   UNL     1      -3.392   1.257   1.616  0.00  0.00    -0.266 OA
ATOM      9  N   UNL     1      -3.180  -0.407   3.080  0.00  0.00    -0.273 N 
ATOM     10  H   UNL     1      -4.171  -0.452   3.208  0.00  0.00    +0.173 HD
ATOM     11  C   UNL     1      -2.382  -1.249   3.760  0.00  0.00    +0.331 A 
ATOM     12  O   UNL     1      -2.879  -2.055   4.524  0.00  0.00    -0.246 OA
BRANCH   5  13
ATOM     13  N   UNL     1       0.902  -0.286   2.595  0.00  0.00    -0.343 N 
ATOM     14  H   UNL     1       1.314   0.405   2.053  0.00  0.00    +0.144 HD
ATOM     15  H   UNL     1       1.454  -0.957   3.027  0.00  0.00    +0.144 HD
ENDBRANCH   5  13
BRANCH   4  16
ATOM     16  C   UNL     1      -0.206  -2.148   4.369  0.00  0.00    +0.128 C 
BRANCH  16  17
ATOM     17  C   UNL     1      -0.009  -3.430   3.558  0.00  0.00    +0.021 C 
BRANCH  17  19
ATOM     18  C   UNL     1       1.065  -5.686   3.538  0.00  0.00    +0.004 C 
ATOM     19  C   UNL     1       0.868  -4.404   4.349  0.00  0.00    -0.002 C 
ENDBRANCH  17  19
ENDBRANCH  16  17
ENDBRANCH   4  16
ENDBRANCH   1   6
BRANCH   1  20
ATOM     20  C   UNL     1      -0.052   1.042  -0.074  0.00  0.00    +0.082 C 
ATOM     21  C   UNL     1      -0.852   1.528  -1.300  0.00  0.00    +0.023 C 
ATOM     22  C   UNL     1      -0.135   2.832  -1.729  0.00  0.00    +0.002 C 
ATOM     23  C   UNL     1       1.358   2.497  -1.488  0.00  0.00    +0.002 C 
ATOM     24  C   UNL     1       1.353   1.658  -0.193  0.00  0.00    +0.023 C 
ENDBRANCH   1  20
BRANCH   2  25
ATOM     25  C   UNL     1      -1.342   3.280   2.752  0.00  0.00    +0.134 C 
BRANCH  25  26
ATOM     26  C   UNL     1      -1.152   4.768   2.890  0.00  0.00    -0.002 A 
ATOM     27  C   UNL     1      -0.017   5.268   3.502  0.00  0.00    +0.046 A 
ATOM     28  C   UNL     1       0.159   6.635   3.623  0.00  0.00    +0.020 A 
ATOM     29  C   UNL     1      -0.804   7.501   3.142  0.00  0.00    +0.003 A 
ATOM     30  C   UNL     1      -1.942   7.003   2.535  0.00  0.00    +0.020 A 
ATOM     31  C   UNL     1      -2.116   5.636   2.408  0.00  0.00    +0.046 A 
ATOM     32 CL   UNL     1      -3.545   5.010   1.647  0.00  0.00    -0.083 Cl
ATOM     33 CL   UNL     1       1.190   4.179   4.112  0.00  0.00    -0.083 Cl
ENDBRANCH  25  26
ENDBRANCH   2  25
TORSDOF 8
