REMARK  Name = ZINC24988275
REMARK  4 active torsions:
REMARK  status: ('A' for Active; 'I' for Inactive)
REMARK    1  A    between atoms: C_1  and  C_2
REMARK    2  A    between atoms: C_5  and  N_9
REMARK    3  A    between atoms: C_6  and  C_8
REMARK    4  A    between atoms: C_13  and  C_16
REMARK                            x       y       z     vdW  Elec       q    Type
REMARK                         _______ _______ _______ _____ _____    ______ ____
ROOT
ATOM      1  N   UNL     1      -1.177  -0.711  -0.006  0.00  0.00    -0.225 NA
ATOM      2  C   UNL     1       0.002  -0.004   0.006  0.00  0.00    +0.174 C 
ATOM      3  N   UNL     1      -0.015   1.307  -0.003  0.00  0.00    -0.215 N 
ATOM      4  N   UNL     1       1.015   2.052  -0.006  0.00  0.00    -0.184 NA
ATOM      5  C   UNL     1       2.211   1.728  -0.369  0.00  0.00    +0.077 C 
ATOM      6  C   UNL     1       2.543   0.350  -0.887  0.00  0.00    +0.134 C 
ATOM      7  S   UNL     1       1.549  -0.857   0.034  0.00  0.00    -0.083 S 
ATOM      8  H   UNL     1      -1.019   1.757  -0.007  0.00  0.00    +0.176 HD
ENDROOT
BRANCH   5   9
ATOM      9  C   UNL     1       3.282   2.732  -0.274  0.00  0.00    -0.001 A 
ATOM     10  C   UNL     1       4.586   2.406  -0.660  0.00  0.00    +0.011 A 
ATOM     11  C   UNL     1       5.585   3.349  -0.570  0.00  0.00    +0.024 A 
ATOM     12  C   UNL     1       5.300   4.625  -0.096  0.00  0.00    +0.037 A 
ATOM     13  C   UNL     1       4.005   4.954   0.289  0.00  0.00    -0.025 A 
ATOM     14  C   UNL     1       2.998   4.018   0.198  0.00  0.00    +0.015 A 
ATOM     15  C   UNL     1       3.704   6.339   0.802  0.00  0.00    +0.046 C 
ATOM     16  C   UNL     1       4.910   6.869   1.578  0.00  0.00    +0.101 C 
ATOM     17  C   UNL     1       6.165   6.667   0.773  0.00  0.00    +0.218 C 
ATOM     18  O   UNL     1       7.052   7.493   0.828  0.00  0.00    -0.275 OA
ATOM     19  N   UNL     1       6.316   5.581  -0.006  0.00  0.00    -0.285 N 
ATOM     20  H   UNL     1       7.248   5.448  -0.576  0.00  0.00    +0.155 HD
ENDBRANCH   5   9
BRANCH   1  25
ATOM     21  C   UNL     1      -6.127   2.025   0.416  0.00  0.00    +0.044 C 
ATOM     22  C   UNL     1      -4.812   1.298   0.304  0.00  0.00    -0.050 A 
ATOM     23  C   UNL     1      -3.661   1.871   0.813  0.00  0.00    +0.005 A 
ATOM     24  C   UNL     1      -2.454   1.208   0.711  0.00  0.00    +0.028 A 
ATOM     25  C   UNL     1      -2.397  -0.037   0.098  0.00  0.00    +0.069 A 
ATOM     26  C   UNL     1      -3.554  -0.609  -0.415  0.00  0.00    -0.025 A 
ATOM     27  C   UNL     1      -4.759   0.058  -0.306  0.00  0.00    +0.008 A 
ATOM     28  C   UNL     1      -3.496  -1.957  -1.086  0.00  0.00    +0.046 C 
ENDBRANCH   1  25
TORSDOF 2
