REMARK  Name = ZINC37360743
REMARK  7 active torsions:
REMARK  status: ('A' for Active; 'I' for Inactive)
REMARK    1  A    between atoms: C_4  and  O_7
REMARK    2  A    between atoms: O_7  and  C_8
REMARK    3  A    between atoms: C_8  and  C_9
REMARK    4  A    between atoms: C_9  and  N_10
REMARK    5  A    between atoms: C_13  and  C_28
REMARK    6  A    between atoms: C_15  and  N_27
REMARK    7  A    between atoms: N_16  and  C_20
REMARK                            x       y       z     vdW  Elec       q    Type
REMARK                         _______ _______ _______ _____ _____    ______ ____
ROOT
ATOM      1  N   UNL     1       5.734  -1.964   1.016  0.00  0.00    -0.310 N 
ATOM      2  C   UNL     1       6.919  -2.585   1.367  0.00  0.00    +0.218 A 
ATOM      3  N   UNL     1       7.463  -2.284   2.542  0.00  0.00    -0.214 NA
ATOM      4  C   UNL     1       8.597  -2.834   2.957  0.00  0.00    +0.091 A 
ATOM      5  C   UNL     1       9.236  -3.769   2.111  0.00  0.00    +0.086 A 
ATOM      6  C   UNL     1      10.391  -4.538   2.172  0.00  0.00    +0.131 A 
ATOM      7  N   UNL     1      10.464  -5.250   1.030  0.00  0.00    -0.216 N 
ATOM      8  N   UNL     1       9.365  -4.957   0.215  0.00  0.00    -0.144 NA
ATOM      9  C   UNL     1       8.599  -4.074   0.817  0.00  0.00    +0.189 A 
ATOM     10  N   UNL     1       7.444  -3.448   0.521  0.00  0.00    -0.193 NA
ATOM     11  H   UNL     1       5.325  -1.324   1.620  0.00  0.00    +0.149 HD
ENDROOT
BRANCH   4  12
ATOM     12  C   UNL     1       9.178  -2.477   4.270  0.00  0.00    +0.039 A 
ATOM     13  C   UNL     1      10.473  -1.961   4.347  0.00  0.00    +0.013 A 
ATOM     14  C   UNL     1      11.009  -1.629   5.573  0.00  0.00    +0.004 A 
ATOM     15  C   UNL     1      10.269  -1.807   6.729  0.00  0.00    +0.041 A 
ATOM     16  C   UNL     1       8.985  -2.319   6.663  0.00  0.00    +0.159 A 
ATOM     17  C   UNL     1       8.431  -2.651   5.438  0.00  0.00    +0.168 A 
ATOM     18  F   UNL     1       7.176  -3.145   5.372  0.00  0.00    -0.202 F 
ATOM     19  F   UNL     1       8.268  -2.491   7.796  0.00  0.00    -0.202 F 
ENDBRANCH   4  12
BRANCH   7  20
ATOM     20  C   UNL     1      11.487  -6.149   0.707  0.00  0.00    +0.070 A 
ATOM     21  C   UNL     1      12.791  -5.896   1.115  0.00  0.00    +0.028 A 
ATOM     22  C   UNL     1      13.799  -6.784   0.795  0.00  0.00    +0.005 A 
ATOM     23  C   UNL     1      13.513  -7.926   0.069  0.00  0.00    +0.038 A 
ATOM     24  C   UNL     1      12.215  -8.182  -0.340  0.00  0.00    +0.125 A 
ATOM     25  C   UNL     1      11.200  -7.299  -0.017  0.00  0.00    +0.066 A 
ATOM     26  F   UNL     1      11.939  -9.298  -1.049  0.00  0.00    -0.205 F 
ENDBRANCH   7  20
BRANCH   6  27
ATOM     27  N   UNL     1      11.300  -4.568   3.213  0.00  0.00    -0.342 N 
ATOM     28  H   UNL     1      11.162  -4.008   3.993  0.00  0.00    +0.144 HD
ATOM     29  H   UNL     1      12.075  -5.149   3.163  0.00  0.00    +0.144 HD
ENDBRANCH   6  27
BRANCH   1  30
ATOM     30  C   UNL     1       5.097  -2.271  -0.267  0.00  0.00    +0.145 C 
BRANCH  30  31
ATOM     31  C   UNL     1       3.811  -1.455  -0.406  0.00  0.00    +0.247 C 
BRANCH  31  32
ATOM     32  O   UNL     1       4.134  -0.064  -0.468  0.00  0.00    -0.490 OA
BRANCH  32  36
ATOM     33  C   UNL     1       0.986   2.575  -0.851  0.00  0.00    +0.000 A 
ATOM     34  C   UNL     1       2.282   3.051  -0.788  0.00  0.00    +0.004 A 
ATOM     35  C   UNL     1       3.338   2.170  -0.660  0.00  0.00    +0.045 A 
ATOM     36  C   UNL     1       3.097   0.805  -0.594  0.00  0.00    +0.121 A 
ATOM     37  C   UNL     1       1.795   0.329  -0.656  0.00  0.00    +0.045 A 
ATOM     38  C   UNL     1       0.743   1.215  -0.785  0.00  0.00    +0.004 A 
ENDBRANCH  32  36
ENDBRANCH  31  32
ENDBRANCH  30  31
ENDBRANCH   1  30
TORSDOF 7
