REMARK  Name = ZINC09320497
REMARK  7 active torsions:
REMARK  status: ('A' for Active; 'I' for Inactive)
REMARK    1  A    between atoms: C_1  and  C_2
REMARK    2  A    between atoms: C_2  and  O_3
REMARK    3  A    between atoms: O_3  and  C_4
REMARK    4  A    between atoms: C_8  and  C_11
REMARK    5  A    between atoms: C_9  and  O_10
REMARK    6  A    between atoms: N_12  and  N_13
REMARK    7  A    between atoms: C_14  and  C_19
REMARK                            x       y       z     vdW  Elec       q    Type
REMARK                         _______ _______ _______ _____ _____    ______ ____
ROOT
ATOM      1  N   UNL     1      -6.608  -4.174  -0.088  0.00  0.00    -0.188 N 
ATOM      2  C   UNL     1      -7.793  -3.470  -0.195  0.00  0.00    +0.185 A 
ATOM      3  N   UNL     1      -8.776  -4.324  -0.270  0.00  0.00    -0.151 NA
ATOM      4  N   UNL     1      -8.234  -5.616  -0.212  0.00  0.00    -0.253 N 
ATOM      5  C   UNL     1      -6.896  -5.490  -0.106  0.00  0.00    +0.197 A 
ATOM      6  S   UNL     1      -5.765  -6.773  -0.009  0.00  0.00    -0.010 S 
ATOM      7  H   UNL     1      -8.731  -6.448  -0.246  0.00  0.00    +0.191 HD
ENDROOT
BRANCH   2   8
ATOM      8  C   UNL     1      -7.924  -1.997  -0.220  0.00  0.00    +0.035 A 
ATOM      9  C   UNL     1      -6.788  -1.191  -0.137  0.00  0.00    +0.013 A 
ATOM     10  C   UNL     1      -6.917   0.182  -0.161  0.00  0.00    +0.001 A 
ATOM     11  C   UNL     1      -8.170   0.761  -0.267  0.00  0.00    +0.001 A 
ATOM     12  C   UNL     1      -9.300  -0.031  -0.349  0.00  0.00    +0.016 A 
ATOM     13  C   UNL     1      -9.184  -1.407  -0.332  0.00  0.00    +0.029 A 
ATOM     14 BR   UNL     1     -10.730  -2.490  -0.452  0.00  0.00    -0.050 Br
ENDBRANCH   2   8
BRANCH   1  16
ATOM     15  C   UNL     1      -4.300  -4.379   0.228  0.00  0.00    +0.145 C 
ATOM     16  N   UNL     1      -5.328  -3.614   0.015  0.00  0.00    -0.170 NA
BRANCH  15  21
ATOM     17  C   UNL     1      -1.471  -1.911  -0.020  0.00  0.00    +0.162 A 
ATOM     18  C   UNL     1      -0.381  -2.736   0.209  0.00  0.00    +0.049 A 
ATOM     19  C   UNL     1      -0.565  -4.088   0.443  0.00  0.00    +0.004 A 
ATOM     20  C   UNL     1      -1.834  -4.627   0.450  0.00  0.00    +0.013 A 
ATOM     21  C   UNL     1      -2.942  -3.807   0.221  0.00  0.00    +0.040 A 
ATOM     22  C   UNL     1      -2.756  -2.438  -0.009  0.00  0.00    +0.167 A 
BRANCH  22  23
ATOM     23  O   UNL     1      -3.827  -1.631  -0.227  0.00  0.00    -0.503 OA
ATOM     24  H   UNL     1      -4.080  -1.555  -1.157  0.00  0.00    +0.292 HD
ENDBRANCH  22  23
BRANCH  17  25
ATOM     25  O   UNL     1      -1.282  -0.584  -0.249  0.00  0.00    -0.489 OA
BRANCH  25  27
ATOM     26  C   UNL     1       0.078   1.395  -0.519  0.00  0.00    +0.048 C 
ATOM     27  C   UNL     1       0.066  -0.110  -0.245  0.00  0.00    +0.226 C 
ENDBRANCH  25  27
ENDBRANCH  17  25
ENDBRANCH  15  21
ENDBRANCH   1  16
TORSDOF 6
