REMARK  Name = ZINC12137529
REMARK  12 active torsions:
REMARK  status: ('A' for Active; 'I' for Inactive)
REMARK    1  A    between atoms: C_4  and  C_7
REMARK    2  A    between atoms: C_7  and  C_8
REMARK    3  A    between atoms: C_8  and  O_9
REMARK    4  A    between atoms: O_9  and  C_10
REMARK    5  A    between atoms: C_10  and  C_12
REMARK    6  A    between atoms: C_12  and  C_13
REMARK    7  A    between atoms: C_13  and  C_14
REMARK    8  A    between atoms: N_16  and  C_17
REMARK    9  A    between atoms: C_17  and  N_19
REMARK   10  A    between atoms: C_24  and  C_25
REMARK   11  A    between atoms: C_24  and  C_31
REMARK   12  A    between atoms: C_24  and  N_70
REMARK                            x       y       z     vdW  Elec       q    Type
REMARK                         _______ _______ _______ _____ _____    ______ ____
ROOT
ATOM      1  N   UNL     1       2.332  -0.731   1.866  0.00  0.00    -0.316 N 
ATOM      2  C   UNL     1       0.954  -1.176   1.607  0.00  0.00    +0.088 C 
ATOM      3  C   UNL     1       0.472  -0.533   0.302  0.00  0.00    -0.058 C 
ATOM      4  C   UNL     1       2.067   1.281   0.514  0.00  0.00    -0.058 C 
ATOM      5  C   UNL     1       2.615   0.712   1.827  0.00  0.00    +0.088 C 
ATOM      6  N   UNL     1       0.634   0.933   0.408  0.00  0.00    +0.389 N 
ATOM      7  H   UNL     1       0.148   1.262   1.251  0.00  0.00    -0.080 HD
ENDROOT
BRANCH   1   8
ATOM      8  C   UNL     1       3.308  -1.621   2.132  0.00  0.00    +0.139 C 
ATOM      9  S   UNL     1       2.986  -3.299   2.035  0.00  0.00    -0.018 S 
BRANCH   8  12
ATOM     10  C   UNL     1       5.544  -2.073   2.628  0.00  0.00    +0.219 C 
ATOM     11  O   UNL     1       5.342  -3.257   2.458  0.00  0.00    -0.275 OA
ATOM     12  N   UNL     1       4.538  -1.189   2.474  0.00  0.00    -0.268 N 
ATOM     13  H   UNL     1       4.700  -0.243   2.610  0.00  0.00    +0.156 HD
BRANCH  10  14
ATOM     14  C   UNL     1       6.919  -1.591   3.011  0.00  0.00    +0.107 C 
BRANCH  14  15
ATOM     15  C   UNL     1       7.868  -2.787   3.119  0.00  0.00    +0.130 C 
BRANCH  15  16
ATOM     16  C   UNL     1       9.243  -2.304   3.502  0.00  0.00    +0.308 C 
ATOM     17  O   UNL     1       9.444  -1.125   3.671  0.00  0.00    -0.251 OA
BRANCH  16  18
ATOM     18  O   UNL     1      10.245  -3.185   3.655  0.00  0.00    -0.464 OA
BRANCH  18  19
ATOM     19  C   UNL     1      11.543  -2.649   4.024  0.00  0.00    +0.237 C 
BRANCH  19  20
ATOM     20  C   UNL     1      12.549  -3.794   4.152  0.00  0.00    +0.076 C 
BRANCH  20  24
ATOM     21  C   UNL     1      16.368  -2.218   5.239  0.00  0.00    +0.000 A 
ATOM     22  C   UNL     1      15.469  -2.591   6.221  0.00  0.00    +0.000 A 
ATOM     23  C   UNL     1      14.234  -3.101   5.869  0.00  0.00    +0.004 A 
ATOM     24  C   UNL     1      13.896  -3.238   4.535  0.00  0.00    -0.044 A 
ATOM     25  C   UNL     1      14.797  -2.870   3.553  0.00  0.00    +0.004 A 
ATOM     26  C   UNL     1      16.031  -2.355   3.905  0.00  0.00    +0.000 A 
ENDBRANCH  20  24
ENDBRANCH  19  20
ENDBRANCH  18  19
ENDBRANCH  16  18
ENDBRANCH  15  16
ENDBRANCH  14  15
ENDBRANCH  10  14
ENDBRANCH   8  12
ENDBRANCH   1   8
BRANCH   6  27
ATOM     27  C   UNL     1       0.042   1.592  -0.775  0.00  0.00    -0.007 C 
BRANCH  27  28
ATOM     28  C   UNL     1      -1.409   1.198  -0.879  0.00  0.00    -0.057 A 
ATOM     29  C   UNL     1      -2.155   0.998   0.268  0.00  0.00    +0.002 A 
ATOM     30  C   UNL     1      -3.487   0.641   0.172  0.00  0.00    +0.000 A 
ATOM     31  C   UNL     1      -4.071   0.475  -1.070  0.00  0.00    +0.000 A 
ATOM     32  C   UNL     1      -3.324   0.670  -2.216  0.00  0.00    +0.000 A 
ATOM     33  C   UNL     1      -1.993   1.032  -2.121  0.00  0.00    +0.002 A 
ENDBRANCH  27  28
BRANCH  27  34
ATOM     34  C   UNL     1       0.145   3.086  -0.603  0.00  0.00    -0.057 A 
ATOM     35  C   UNL     1       0.022   3.647   0.654  0.00  0.00    +0.002 A 
ATOM     36  C   UNL     1       0.122   5.017   0.812  0.00  0.00    +0.000 A 
ATOM     37  C   UNL     1       0.336   5.826  -0.289  0.00  0.00    +0.000 A 
ATOM     38  C   UNL     1       0.454   5.265  -1.547  0.00  0.00    +0.000 A 
ATOM     39  C   UNL     1       0.359   3.895  -1.704  0.00  0.00    +0.002 A 
ENDBRANCH  27  34
ENDBRANCH   6  27
TORSDOF 12
