REMARK  Name = ZINC08382599
REMARK  6 active torsions:
REMARK  status: ('A' for Active; 'I' for Inactive)
REMARK    1  A    between atoms: C_1  and  C_2
REMARK    2  A    between atoms: C_2  and  C_3
REMARK    3  A    between atoms: C_2  and  C_4
REMARK    4  A    between atoms: C_11  and  N_27
REMARK    5  A    between atoms: C_12  and  C_25
REMARK    6  A    between atoms: C_13  and  C_15
REMARK                            x       y       z     vdW  Elec       q    Type
REMARK                         _______ _______ _______ _____ _____    ______ ____
ROOT
ATOM      1  C   UNL     1      -1.429  -0.539   0.020  0.00  0.00    +0.046 A 
ATOM      2  C   UNL     1      -1.984  -1.316  -0.922  0.00  0.00    +0.049 A 
ATOM      3  C   UNL     1      -3.319  -1.580  -0.543  0.00  0.00    +0.245 A 
ATOM      4  N   UNL     1      -3.542  -0.978   0.589  0.00  0.00    -0.135 NA
ATOM      5  N   UNL     1      -2.365  -0.316   0.972  0.00  0.00    -0.278 N 
ATOM      6  H   UNL     1      -2.244   0.211   1.777  0.00  0.00    +0.189 HD
ATOM      7  O   UNL     1      -4.147  -2.344  -1.305  0.00  0.00    -0.421 OA
ATOM      8  C   UNL     1      -3.752  -2.623  -2.563  0.00  0.00    +0.201 C 
ATOM      9  C   UNL     1      -2.503  -2.425  -3.034  0.00  0.00    +0.098 C 
ATOM     10  C   UNL     1      -1.385  -1.865  -2.192  0.00  0.00    +0.102 C 
ENDROOT
BRANCH  10  11
ATOM     11  C   UNL     1      -0.402  -2.958  -1.859  0.00  0.00    -0.027 A 
ATOM     12  C   UNL     1      -0.788  -4.015  -1.094  0.00  0.00    +0.005 A 
ATOM     13  C   UNL     1       0.107  -5.035  -0.777  0.00  0.00    +0.001 A 
ATOM     14  C   UNL     1       1.393  -5.003  -1.222  0.00  0.00    +0.008 A 
ATOM     15  C   UNL     1       1.827  -3.928  -2.015  0.00  0.00    -0.018 A 
ATOM     16  C   UNL     1       0.915  -2.893  -2.343  0.00  0.00    -0.014 A 
ATOM     17  C   UNL     1       1.349  -1.820  -3.140  0.00  0.00    +0.009 A 
ATOM     18  C   UNL     1       2.633  -1.791  -3.591  0.00  0.00    +0.001 A 
ATOM     19  C   UNL     1       3.528  -2.812  -3.273  0.00  0.00    +0.001 A 
ATOM     20  C   UNL     1       3.147  -3.860  -2.493  0.00  0.00    +0.008 A 
ENDBRANCH  10  11
BRANCH   1  22
ATOM     21  C   UNL     1      -0.040   1.515   0.040  0.00  0.00    +0.014 C 
ATOM     22  C   UNL     1      -0.016  -0.014   0.022  0.00  0.00    +0.031 C 
ATOM     23  C   UNL     1       0.717  -0.527   1.264  0.00  0.00    +0.014 C 
ENDBRANCH   1  22
BRANCH   8  24
ATOM     24  N   UNL     1      -4.685  -3.144  -3.424  0.00  0.00    -0.328 N 
ATOM     25  H   UNL     1      -5.593  -3.299  -3.120  0.00  0.00    +0.145 HD
ATOM     26  H   UNL     1      -4.436  -3.357  -4.337  0.00  0.00    +0.145 HD
ENDBRANCH   8  24
BRANCH   9  27
ATOM     27  C   UNL     1      -2.226  -2.764  -4.397  0.00  0.00    +0.101 C 
ATOM     28  N   UNL     1      -2.007  -3.033  -5.479  0.00  0.00    -0.191 NA
ENDBRANCH   9  27
TORSDOF 4
