REMARK  Name = ZINC00845953
REMARK  6 active torsions:
REMARK  status: ('A' for Active; 'I' for Inactive)
REMARK    1  A    between atoms: C_1  and  C_2
REMARK    2  A    between atoms: C_2  and  C_4
REMARK    3  A    between atoms: C_2  and  N_10
REMARK    4  A    between atoms: N_20  and  C_21
REMARK    5  A    between atoms: C_21  and  C_23
REMARK    6  A    between atoms: C_21  and  C_24
REMARK                            x       y       z     vdW  Elec       q    Type
REMARK                         _______ _______ _______ _____ _____    ______ ____
ROOT
ATOM      1  N   UNL     1      -0.011   0.966   0.007  0.00  0.00    -0.320 N 
ATOM      2  C   UNL     1       1.175   1.672  -0.000  0.00  0.00    +0.162 A 
ATOM      3  C   UNL     1       2.453   0.948  -0.016  0.00  0.00    +0.162 A 
ATOM      4  N   UNL     1       3.595   1.601  -0.024  0.00  0.00    -0.204 NA
ATOM      5  C   UNL     1       3.591   2.941  -0.017  0.00  0.00    +0.244 A 
ATOM      6  C   UNL     1       2.301   3.672  -0.001  0.00  0.00    +0.244 A 
ATOM      7  N   UNL     1       1.149   2.988   0.002  0.00  0.00    -0.204 NA
ATOM      8  N   UNL     1       2.681   4.928   0.002  0.00  0.00    -0.027 NA
ATOM      9  O   UNL     1       3.893   4.976  -0.009  0.00  0.00    -0.238 OA
ATOM     10  N   UNL     1       4.474   3.911  -0.021  0.00  0.00    -0.027 NA
ATOM     11  N   UNL     1       2.455  -0.433  -0.023  0.00  0.00    -0.320 N 
ATOM     12  H   UNL     1       0.002  -0.004   0.002  0.00  0.00    +0.148 HD
ATOM     13  H   UNL     1       1.616  -0.919  -0.017  0.00  0.00    +0.148 HD
ENDROOT
BRANCH   1  15
ATOM     14  C   UNL     1      -1.667   2.032   1.458  0.00  0.00    +0.033 C 
ATOM     15  C   UNL     1      -1.290   1.681   0.017  0.00  0.00    +0.099 C 
BRANCH  15  16
ATOM     16  C   UNL     1      -2.360   0.806  -0.583  0.00  0.00    -0.028 A 
ATOM     17  C   UNL     1      -2.384  -0.548  -0.302  0.00  0.00    +0.005 A 
ATOM     18  C   UNL     1      -3.368  -1.350  -0.849  0.00  0.00    +0.000 A 
ATOM     19  C   UNL     1      -4.322  -0.800  -1.685  0.00  0.00    +0.000 A 
ATOM     20  C   UNL     1      -4.295   0.552  -1.970  0.00  0.00    +0.000 A 
ATOM     21  C   UNL     1      -3.313   1.355  -1.419  0.00  0.00    +0.005 A 
ENDBRANCH  15  16
ENDBRANCH   1  15
BRANCH  11  22
ATOM     22  C   UNL     1       3.725  -1.163  -0.039  0.00  0.00    +0.099 C 
ATOM     23  C   UNL     1       4.215  -1.302  -1.481  0.00  0.00    +0.033 C 
BRANCH  22  24
ATOM     24  C   UNL     1       3.524  -2.533   0.557  0.00  0.00    -0.028 A 
ATOM     25  C   UNL     1       2.374  -3.247   0.277  0.00  0.00    +0.005 A 
ATOM     26  C   UNL     1       2.192  -4.505   0.820  0.00  0.00    +0.000 A 
ATOM     27  C   UNL     1       3.156  -5.045   1.651  0.00  0.00    +0.000 A 
ATOM     28  C   UNL     1       4.304  -4.329   1.935  0.00  0.00    +0.000 A 
ATOM     29  C   UNL     1       4.488  -3.072   1.389  0.00  0.00    +0.005 A 
ENDBRANCH  22  24
ENDBRANCH  11  22
TORSDOF 4
