REMARK  Name = ZINC66318901
REMARK  5 active torsions:
REMARK  status: ('A' for Active; 'I' for Inactive)
REMARK    1  A    between atoms: C_4  and  C_7
REMARK    2  A    between atoms: C_10  and  C_12
REMARK    3  A    between atoms: N_14  and  C_15
REMARK    4  A    between atoms: C_17  and  N_22
REMARK    5  A    between atoms: C_20  and  O_21
REMARK                            x       y       z     vdW  Elec       q    Type
REMARK                         _______ _______ _______ _____ _____    ______ ____
ROOT
ATOM      1  C   UNL     1       2.106  -2.768  -4.302  0.00  0.00    +0.077 A 
ATOM      2  C   UNL     1       0.918  -2.056  -4.237  0.00  0.00    +0.051 A 
ATOM      3  C   UNL     1      -0.068  -2.265  -5.192  0.00  0.00    +0.053 A 
ATOM      4  C   UNL     1       0.137  -3.187  -6.211  0.00  0.00    +0.028 A 
ATOM      5  C   UNL     1       1.320  -3.897  -6.276  0.00  0.00    +0.049 A 
ATOM      6  C   UNL     1       2.309  -3.687  -5.329  0.00  0.00    +0.138 A 
ENDROOT
BRANCH   3   7
ATOM      7  N   UNL     1      -1.267  -1.547  -5.128  0.00  0.00    -0.207 N 
ATOM      8  C   UNL     1      -1.877  -0.942  -3.931  0.00  0.00    +0.133 C 
ATOM      9  C   UNL     1      -2.710   0.297  -4.307  0.00  0.00    +0.045 C 
ATOM     10  C   UNL     1      -3.545  -0.139  -5.549  0.00  0.00    +0.190 C 
ATOM     11  S   UNL     1      -2.301  -1.192  -6.399  0.00  0.00    +0.046 S 
ATOM     12  O   UNL     1      -1.529  -0.425  -7.313  0.00  0.00    -0.155 OA
ATOM     13  O   UNL     1      -2.874  -2.436  -6.781  0.00  0.00    -0.155 OA
ENDBRANCH   3   7
BRANCH   1  16
ATOM     14  C   UNL     1       2.762  -2.284  -2.066  0.00  0.00    +0.221 C 
ATOM     15  O   UNL     1       1.595  -2.136  -1.768  0.00  0.00    -0.275 OA
ATOM     16  N   UNL     1       3.103  -2.560  -3.340  0.00  0.00    -0.282 N 
ATOM     17  H   UNL     1       4.038  -2.614  -3.591  0.00  0.00    +0.155 HD
BRANCH  14  20
ATOM     18  C   UNL     1       3.379  -1.845   0.418  0.00  0.00    +0.032 C 
ATOM     19  C   UNL     1       3.889  -3.244   0.068  0.00  0.00    +0.022 C 
ATOM     20  C   UNL     1       3.830  -2.159  -1.010  0.00  0.00    +0.083 C 
BRANCH  18  24
ATOM     21  C   UNL     1      -0.813  -1.387   1.104  0.00  0.00    +0.000 A 
ATOM     22  C   UNL     1       0.050  -0.342   1.377  0.00  0.00    +0.000 A 
ATOM     23  C   UNL     1       1.407  -0.490   1.155  0.00  0.00    +0.004 A 
ATOM     24  C   UNL     1       1.900  -1.683   0.661  0.00  0.00    -0.044 A 
ATOM     25  C   UNL     1       1.037  -2.729   0.389  0.00  0.00    +0.004 A 
ATOM     26  C   UNL     1      -0.320  -2.580   0.610  0.00  0.00    +0.000 A 
ENDBRANCH  18  24
ENDBRANCH  14  20
ENDBRANCH   1  16
BRANCH   6  27
ATOM     27  O   UNL     1       3.476  -4.383  -5.398  0.00  0.00    -0.505 OA
ATOM     28  H   UNL     1       3.463  -5.222  -4.917  0.00  0.00    +0.292 HD
ENDBRANCH   6  27
TORSDOF 5
