REMARK  Name = ZINC63374472
REMARK  12 active torsions:
REMARK  status: ('A' for Active; 'I' for Inactive)
REMARK    1  A    between atoms: C_1  and  C_2
REMARK    2  A    between atoms: C_2  and  C_3
REMARK    3  A    between atoms: C_3  and  O_4
REMARK    4  A    between atoms: O_4  and  C_5
REMARK    5  A    between atoms: C_8  and  C_13
REMARK    6  A    between atoms: C_10  and  O_11
REMARK    7  A    between atoms: O_11  and  C_12
REMARK    8  A    between atoms: N_20  and  C_35
REMARK    9  A    between atoms: C_23  and  C_34
REMARK   10  A    between atoms: C_35  and  C_36
REMARK   11  A    between atoms: C_36  and  C_37
REMARK   12  A    between atoms: C_36  and  C_38
REMARK                            x       y       z     vdW  Elec       q    Type
REMARK                         _______ _______ _______ _____ _____    ______ ____
ROOT
ATOM      1  C   UNL     1       2.868  -4.522  -5.827  0.00  0.00    +0.065 C 
ATOM      2  C   UNL     1       2.186  -4.277  -7.184  0.00  0.00    +0.121 C 
ATOM      3  N   UNL     1       3.143  -4.570  -8.270  0.00  0.00    -0.283 N 
ATOM      4  C   UNL     1       2.813  -5.511  -9.162  0.00  0.00    +0.234 C 
ATOM      5  O   UNL     1       1.755  -6.084  -9.008  0.00  0.00    -0.274 OA
ATOM      6  C   UNL     1       3.649  -5.906 -10.333  0.00  0.00    +0.203 C 
ATOM      7  N   UNL     1       4.882  -5.140 -10.410  0.00  0.00    -0.291 N 
ATOM      8  C   UNL     1       5.228  -4.210  -9.521  0.00  0.00    +0.242 C 
ATOM      9  O   UNL     1       6.281  -3.632  -9.688  0.00  0.00    -0.273 OA
ATOM     10  C   UNL     1       4.405  -3.832  -8.335  0.00  0.00    +0.135 C 
ATOM     11  C   UNL     1       5.188  -4.106  -7.046  0.00  0.00    +0.139 C 
ATOM     12  C   UNL     1       4.221  -3.859  -5.892  0.00  0.00    -0.027 C 
ATOM     13  C   UNL     1       4.819  -2.994  -5.083  0.00  0.00    -0.000 A 
ATOM     14  C   UNL     1       4.435  -2.456  -3.768  0.00  0.00    +0.010 A 
ATOM     15  C   UNL     1       5.288  -1.551  -3.219  0.00  0.00    +0.001 A 
ATOM     16  C   UNL     1       6.469  -1.132  -3.839  0.00  0.00    +0.002 A 
ATOM     17  C   UNL     1       6.904  -1.582  -5.043  0.00  0.00    +0.026 A 
ATOM     18  C   UNL     1       6.097  -2.546  -5.714  0.00  0.00    +0.043 A 
ATOM     19  N   UNL     1       6.296  -3.169  -6.862  0.00  0.00    -0.375 N 
ATOM     20  C   UNL     1       4.101  -2.334  -8.400  0.00  0.00    +0.044 C 
ATOM     21  H   UNL     1       7.035  -3.037  -7.477  0.00  0.00    +0.160 HD
ENDROOT
BRANCH   1  25
ATOM     22  C   UNL     1       0.540  -2.782  -2.689  0.00  0.00    +0.162 A 
ATOM     23  C   UNL     1       1.020  -1.991  -3.720  0.00  0.00    +0.050 A 
ATOM     24  C   UNL     1       1.772  -2.556  -4.733  0.00  0.00    +0.008 A 
ATOM     25  C   UNL     1       2.047  -3.911  -4.720  0.00  0.00    -0.035 A 
ATOM     26  C   UNL     1       1.571  -4.706  -3.694  0.00  0.00    +0.053 A 
ATOM     27  C   UNL     1       0.822  -4.145  -2.673  0.00  0.00    +0.162 A 
BRANCH  27  28
ATOM     28  O   UNL     1       0.357  -4.925  -1.660  0.00  0.00    -0.491 OA
ATOM     29  C   UNL     1       0.685  -6.315  -1.709  0.00  0.00    +0.277 C 
ENDBRANCH  27  28
BRANCH  22  30
ATOM     30  O   UNL     1      -0.200  -2.228  -1.692  0.00  0.00    -0.488 OA
BRANCH  30  31
ATOM     31  C   UNL     1      -0.450  -0.823  -1.774  0.00  0.00    +0.229 C 
BRANCH  31  33
ATOM     32  C   UNL     1      -1.559   1.120  -0.661  0.00  0.00    +0.007 C 
ATOM     33  C   UNL     1      -1.291  -0.384  -0.574  0.00  0.00    +0.038 C 
ENDBRANCH  31  33
ENDBRANCH  30  31
ENDBRANCH  22  30
ENDBRANCH   1  25
BRANCH   7  34
ATOM     34  C   UNL     1       5.794  -5.406 -11.525  0.00  0.00    +0.111 C 
BRANCH  34  35
ATOM     35  C   UNL     1       6.688  -6.599 -11.180  0.00  0.00    +0.000 C 
ATOM     36  C   UNL     1       7.541  -6.965 -12.396  0.00  0.00    +0.009 C 
ATOM     37  C   UNL     1       7.601  -6.230 -10.009  0.00  0.00    +0.009 C 
ENDBRANCH  34  35
ENDBRANCH   7  34
TORSDOF 7
