REMARK  Name = ZINC01271167
REMARK  9 active torsions:
REMARK  status: ('A' for Active; 'I' for Inactive)
REMARK    1  A    between atoms: C_1  and  C_2
REMARK    2  A    between atoms: C_4  and  C_38
REMARK    3  A    between atoms: N_8  and  S_9
REMARK    4  A    between atoms: S_9  and  C_12
REMARK    5  A    between atoms: C_15  and  N_18
REMARK    6  A    between atoms: C_24  and  C_30
REMARK    7  A    between atoms: C_24  and  C_34
REMARK    8  A    between atoms: C_25  and  C_28
REMARK    9  A    between atoms: C_26  and  N_27
REMARK                            x       y       z     vdW  Elec       q    Type
REMARK                         _______ _______ _______ _____ _____    ______ ____
ROOT
ATOM      1  N   UNL     1      -1.223   2.085   0.030  0.00  0.00    -0.261 N 
ATOM      2  C   UNL     1      -2.182   1.824   1.013  0.00  0.00    +0.018 C 
ATOM      3  C   UNL     1      -3.228   2.616   1.206  0.00  0.00    -0.024 C 
ATOM      4  C   UNL     1      -4.090   2.093   2.328  0.00  0.00    +0.034 C 
ATOM      5  C   UNL     1      -3.192   1.088   3.086  0.00  0.00    +0.010 C 
ATOM      6  C   UNL     1      -2.190   0.673   1.982  0.00  0.00    +0.051 C 
ATOM      7  C   UNL     1      -3.484   3.859   0.388  0.00  0.00    +0.220 C 
ATOM      8  C   UNL     1      -2.582   3.859  -0.817  0.00  0.00    +0.093 C 
ATOM      9  C   UNL     1      -1.529   3.013  -0.942  0.00  0.00    +0.107 C 
ENDROOT
BRANCH   1  13
ATOM     10  C   UNL     1       2.444   0.108   0.017  0.00  0.00    +0.109 A 
ATOM     11  C   UNL     1       1.345  -0.473  -0.588  0.00  0.00    +0.030 A 
ATOM     12  C   UNL     1       0.127   0.178  -0.584  0.00  0.00    +0.026 A 
ATOM     13  C   UNL     1       0.007   1.419   0.029  0.00  0.00    +0.040 A 
ATOM     14  C   UNL     1       1.113   2.000   0.635  0.00  0.00    +0.026 A 
ATOM     15  C   UNL     1       2.328   1.343   0.627  0.00  0.00    +0.030 A 
BRANCH  10  16
ATOM     16  S   UNL     1       3.996  -0.727   0.009  0.00  0.00    +0.075 S 
ATOM     17  O   UNL     1       4.734  -0.223   1.114  0.00  0.00    -0.150 OA
ATOM     18  O   UNL     1       3.712  -2.110  -0.150  0.00  0.00    -0.150 OA
BRANCH  16  26
ATOM     19  C   UNL     1       4.424   4.304   0.087  0.00  0.00    +0.066 C 
ATOM     20  C   UNL     1       5.024   3.262  -0.822  0.00  0.00    +0.044 A 
ATOM     21  C   UNL     1       5.952   3.622  -1.786  0.00  0.00    +0.046 A 
ATOM     22  C   UNL     1       6.479   2.632  -2.600  0.00  0.00    +0.044 A 
ATOM     23  N   UNL     1       6.084   1.381  -2.434  0.00  0.00    -0.219 NA
ATOM     24  C   UNL     1       5.194   1.070  -1.502  0.00  0.00    +0.235 A 
ATOM     25  N   UNL     1       4.667   1.993  -0.712  0.00  0.00    -0.219 NA
ATOM     26  N   UNL     1       4.802  -0.249  -1.356  0.00  0.00    -0.184 N 
ATOM     27  C   UNL     1       7.492   2.977  -3.661  0.00  0.00    +0.066 C 
ATOM     28  H   UNL     1       5.000  -0.894  -2.053  0.00  0.00    +0.177 HD
ENDBRANCH  16  26
ENDBRANCH  10  16
ENDBRANCH   1  13
BRANCH   7  29
ATOM     29  C   UNL     1      -3.198   5.098   1.238  0.00  0.00    +0.412 C 
ATOM     30  F   UNL     1      -3.435   6.249   0.480  0.00  0.00    -0.169 F 
ATOM     31  F   UNL     1      -4.037   5.097   2.358  0.00  0.00    -0.169 F 
ATOM     32  F   UNL     1      -1.863   5.080   1.655  0.00  0.00    -0.169 F 
ENDBRANCH   7  29
BRANCH   7  33
ATOM     33  C   UNL     1      -4.944   3.878  -0.068  0.00  0.00    +0.412 C 
ATOM     34  F   UNL     1      -5.205   2.745  -0.846  0.00  0.00    -0.169 F 
ATOM     35  F   UNL     1      -5.782   3.878   1.052  0.00  0.00    -0.169 F 
ATOM     36  F   UNL     1      -5.180   5.029  -0.827  0.00  0.00    -0.169 F 
ENDBRANCH   7  33
BRANCH   9  37
ATOM     37  N   UNL     1      -0.745   3.084  -2.069  0.00  0.00    -0.345 N 
ATOM     38  H   UNL     1      -0.044   2.430  -2.214  0.00  0.00    +0.144 HD
ATOM     39  H   UNL     1      -0.893   3.789  -2.719  0.00  0.00    +0.144 HD
ENDBRANCH   9  37
BRANCH   8  40
ATOM     40  C   UNL     1      -2.846   4.790  -1.873  0.00  0.00    +0.099 C 
ATOM     41  N   UNL     1      -3.055   5.528  -2.710  0.00  0.00    -0.191 NA
ENDBRANCH   8  40
TORSDOF 7
