REMARK  Name = ZINC10040737
REMARK  12 active torsions:
REMARK  status: ('A' for Active; 'I' for Inactive)
REMARK    1  A    between atoms: C_1  and  C_2
REMARK    2  A    between atoms: C_2  and  C_3
REMARK    3  A    between atoms: C_2  and  C_4
REMARK    4  A    between atoms: C_4  and  C_6
REMARK    5  A    between atoms: C_4  and  N_27
REMARK    6  A    between atoms: N_8  and  N_9
REMARK    7  A    between atoms: C_10  and  C_11
REMARK    8  A    between atoms: C_16  and  O_17
REMARK    9  A    between atoms: O_17  and  C_18
REMARK   10  A    between atoms: C_18  and  C_19
REMARK   11  A    between atoms: C_24  and  C_25
REMARK   12  A    between atoms: C_28  and  C_30
REMARK                            x       y       z     vdW  Elec       q    Type
REMARK                         _______ _______ _______ _____ _____    ______ ____
ROOT
ATOM      1  C   UNL     1      -3.301  -2.964   0.587  0.00  0.00    +0.253 C 
ATOM      2  O   UNL     1      -2.219  -3.265   1.045  0.00  0.00    -0.272 OA
ATOM      3  N   UNL     1      -4.333  -3.827   0.673  0.00  0.00    -0.205 N 
ATOM      4  H   UNL     1      -5.215  -3.560   0.369  0.00  0.00    +0.177 HD
ENDROOT
BRANCH   3   5
ATOM      5  N   UNL     1      -4.132  -5.109   1.201  0.00  0.00    -0.188 NA
ATOM      6  C   UNL     1      -5.096  -5.978   1.178  0.00  0.00    +0.142 C 
BRANCH   6   7
ATOM      7  C   UNL     1      -4.923  -7.287   1.834  0.00  0.00    +0.036 A 
ATOM      8  C   UNL     1      -5.908  -8.269   1.712  0.00  0.00    +0.013 A 
ATOM      9  C   UNL     1      -5.739  -9.493   2.325  0.00  0.00    +0.001 A 
ATOM     10  C   UNL     1      -4.600  -9.748   3.070  0.00  0.00    +0.004 A 
ATOM     11  C   UNL     1      -3.620  -8.783   3.203  0.00  0.00    +0.046 A 
ATOM     12  C   UNL     1      -3.772  -7.550   2.589  0.00  0.00    +0.130 A 
BRANCH  12  13
ATOM     13  O   UNL     1      -2.810  -6.601   2.719  0.00  0.00    -0.487 OA
BRANCH  13  14
ATOM     14  C   UNL     1      -1.611  -6.980   3.398  0.00  0.00    +0.265 C 
BRANCH  14  15
ATOM     15  C   UNL     1      -0.729  -5.771   3.574  0.00  0.00    +0.007 A 
ATOM     16  C   UNL     1      -1.188  -4.521   3.213  0.00  0.00    +0.008 A 
ATOM     17  C   UNL     1      -0.381  -3.410   3.378  0.00  0.00    +0.000 A 
ATOM     18  C   UNL     1       0.895  -3.545   3.896  0.00  0.00    +0.001 A 
ATOM     19  C   UNL     1       1.369  -4.789   4.255  0.00  0.00    +0.019 A 
ATOM     20  C   UNL     1       0.558  -5.914   4.096  0.00  0.00    +0.058 A 
BRANCH  20  21
ATOM     21  C   UNL     1       1.044  -7.209   4.467  0.00  0.00    +0.100 C 
ATOM     22  N   UNL     1       1.429  -8.237   4.761  0.00  0.00    -0.191 NA
ENDBRANCH  20  21
ENDBRANCH  14  15
ENDBRANCH  13  14
ENDBRANCH  12  13
ENDBRANCH   6   7
ENDBRANCH   3   5
BRANCH   1  23
ATOM     23  C   UNL     1      -3.492  -1.625  -0.077  0.00  0.00    +0.163 C 
BRANCH  23  24
ATOM     24  N   UNL     1      -2.407  -0.724   0.319  0.00  0.00    -0.300 N 
ATOM     25  C   UNL     1      -2.595   0.610   0.290  0.00  0.00    +0.246 C 
ATOM     26  O   UNL     1      -3.664   1.066  -0.065  0.00  0.00    -0.270 OA
ATOM     27  H   UNL     1      -1.554  -1.088   0.602  0.00  0.00    +0.150 HD
BRANCH  25  28
ATOM     28  C   UNL     1      -1.500   1.519   0.690  0.00  0.00    +0.055 A 
ATOM     29  C   UNL     1      -0.270   0.998   1.098  0.00  0.00    +0.016 A 
ATOM     30  C   UNL     1       0.749   1.851   1.465  0.00  0.00    +0.021 A 
ATOM     31  C   UNL     1       0.554   3.222   1.434  0.00  0.00    +0.042 A 
ATOM     32  C   UNL     1      -0.664   3.746   1.036  0.00  0.00    +0.040 A 
ATOM     33  C   UNL     1      -1.693   2.902   0.666  0.00  0.00    +0.054 A 
ATOM     34 CL   UNL     1      -3.220   3.560   0.166  0.00  0.00    -0.083 Cl
ATOM     35 CL   UNL     1       1.842   4.289   1.898  0.00  0.00    -0.083 Cl
ENDBRANCH  25  28
ENDBRANCH  23  24
BRANCH  23  37
ATOM     36  C   UNL     1      -3.804  -0.469  -2.270  0.00  0.00    +0.009 C 
ATOM     37  C   UNL     1      -3.478  -1.803  -1.597  0.00  0.00    +0.012 C 
ATOM     38  C   UNL     1      -2.091  -2.273  -2.042  0.00  0.00    +0.009 C 
ENDBRANCH  23  37
ENDBRANCH   1  23
TORSDOF 10
