REMARK  Name = ZINC00901821
REMARK  9 active torsions:
REMARK  status: ('A' for Active; 'I' for Inactive)
REMARK    1  A    between atoms: N_9  and  C_10
REMARK    2  A    between atoms: C_10  and  C_11
REMARK    3  A    between atoms: N_13  and  C_14
REMARK    4  A    between atoms: N_13  and  C_28
REMARK    5  A    between atoms: C_17  and  S_20
REMARK    6  A    between atoms: S_20  and  N_23
REMARK    7  A    between atoms: C_28  and  C_30
REMARK    8  A    between atoms: C_28  and  C_35
REMARK    9  A    between atoms: N_37  and  C_38
REMARK                            x       y       z     vdW  Elec       q    Type
REMARK                         _______ _______ _______ _____ _____    ______ ____
ROOT
ATOM      1  C   UNL     1      -4.277   4.025  -1.527  0.00  0.00    +0.242 C 
ATOM      2  O   UNL     1      -3.556   4.071  -2.501  0.00  0.00    -0.273 OA
ATOM      3  N   UNL     1      -5.468   3.398  -1.598  0.00  0.00    -0.251 N 
ENDROOT
BRANCH   3   4
ATOM      4  C   UNL     1      -6.344   3.434  -0.508  0.00  0.00    +0.038 A 
ATOM      5  C   UNL     1      -6.291   2.441   0.461  0.00  0.00    +0.025 A 
ATOM      6  C   UNL     1      -7.153   2.483   1.539  0.00  0.00    +0.030 A 
ATOM      7  C   UNL     1      -8.076   3.507   1.649  0.00  0.00    +0.106 A 
ATOM      8  C   UNL     1      -8.135   4.494   0.683  0.00  0.00    +0.030 A 
ATOM      9  C   UNL     1      -7.272   4.461  -0.395  0.00  0.00    +0.025 A 
BRANCH   7  10
ATOM     10  S   UNL     1      -9.179   3.553   3.022  0.00  0.00    +0.061 S 
ATOM     11  O   UNL     1      -8.557   2.818   4.067  0.00  0.00    -0.153 OA
ATOM     12  O   UNL     1      -9.578   4.908   3.177  0.00  0.00    -0.153 OA
BRANCH  10  13
ATOM     13  N   UNL     1     -10.535   2.707   2.590  0.00  0.00    -0.177 NA
ATOM     14  C   UNL     1     -11.729   3.273   1.944  0.00  0.00    +0.109 C 
ATOM     15  C   UNL     1     -12.738   2.120   1.756  0.00  0.00    +0.018 C 
ATOM     16  C   UNL     1     -12.287   1.088   2.823  0.00  0.00    +0.018 C 
ATOM     17  C   UNL     1     -10.748   1.262   2.793  0.00  0.00    +0.109 C 
ENDBRANCH  10  13
ENDBRANCH   7  10
ENDBRANCH   3   4
BRANCH   1  18
ATOM     18  C   UNL     1      -3.841   4.670  -0.236  0.00  0.00    +0.242 C 
BRANCH  18  27
ATOM     19  C   UNL     1       1.304   3.658   0.253  0.00  0.00    +0.002 A 
ATOM     20  C   UNL     1       0.255   2.792   0.533  0.00  0.00    +0.002 A 
ATOM     21  C   UNL     1      -1.040   3.189   0.354  0.00  0.00    +0.029 A 
ATOM     22  C   UNL     1      -1.313   4.474  -0.103  0.00  0.00    +0.090 A 
ATOM     23  C   UNL     1      -0.256   5.355  -0.388  0.00  0.00    +0.113 A 
ATOM     24  C   UNL     1       1.064   4.922  -0.201  0.00  0.00    +0.032 A 
ATOM     25  N   UNL     1      -0.793   6.516  -0.813  0.00  0.00    -0.129 NA
ATOM     26  N   UNL     1      -2.077   6.438  -0.818  0.00  0.00    -0.064 NA
ATOM     27  N   UNL     1      -2.469   5.165  -0.377  0.00  0.00    -0.235 N 
ENDBRANCH  18  27
ENDBRANCH   1  18
BRANCH   3  28
ATOM     28  C   UNL     1      -5.845   2.678  -2.817  0.00  0.00    +0.233 C 
BRANCH  28  29
ATOM     29  C   UNL     1      -5.974   3.654  -3.957  0.00  0.00    +0.135 A 
ATOM     30  C   UNL     1      -6.922   3.628  -4.911  0.00  0.00    +0.047 A 
ATOM     31  C   UNL     1      -6.667   4.720  -5.772  0.00  0.00    +0.041 A 
ATOM     32  C   UNL     1      -5.578   5.348  -5.293  0.00  0.00    +0.195 A 
ATOM     33  O   UNL     1      -5.166   4.701  -4.191  0.00  0.00    -0.465 OA
ENDBRANCH  28  29
BRANCH  28  34
ATOM     34  C   UNL     1      -4.785   1.659  -3.146  0.00  0.00    +0.242 C 
ATOM     35  O   UNL     1      -3.810   1.545  -2.433  0.00  0.00    -0.273 OA
ATOM     36  N   UNL     1      -4.919   0.873  -4.233  0.00  0.00    -0.311 N 
ATOM     37  H   UNL     1      -5.699   0.964  -4.804  0.00  0.00    +0.149 HD
BRANCH  36  38
ATOM     38  C   UNL     1      -3.889  -0.118  -4.553  0.00  0.00    +0.073 C 
ATOM     39  C   UNL     1      -2.771   0.550  -5.356  0.00  0.00    +0.022 C 
ATOM     40  C   UNL     1      -1.694  -0.484  -5.690  0.00  0.00    +0.002 C 
ATOM     41  C   UNL     1      -2.312  -1.613  -6.518  0.00  0.00    +0.000 C 
ATOM     42  C   UNL     1      -3.430  -2.281  -5.716  0.00  0.00    +0.002 C 
ATOM     43  C   UNL     1      -4.506  -1.246  -5.381  0.00  0.00    +0.022 C 
ENDBRANCH  36  38
ENDBRANCH  28  34
ENDBRANCH   3  28
TORSDOF 9
