REMARK  Name = ZINC55260533
REMARK  6 active torsions:
REMARK  status: ('A' for Active; 'I' for Inactive)
REMARK    1  A    between atoms: C_1  and  C_2
REMARK    2  A    between atoms: C_10  and  C_11
REMARK    3  A    between atoms: C_11  and  C_13
REMARK    4  A    between atoms: C_11  and  N_14
REMARK    5  A    between atoms: N_14  and  S_15
REMARK    6  A    between atoms: S_15  and  C_18
REMARK                            x       y       z     vdW  Elec       q    Type
REMARK                         _______ _______ _______ _____ _____    ______ ____
ROOT
ATOM      1  S   UNL     1      -1.783  -0.441   4.508  0.00  0.00    +0.059 S 
ATOM      2  O   UNL     1      -2.635  -1.447   5.038  0.00  0.00    -0.153 OA
ATOM      3  O   UNL     1      -0.840   0.259   5.309  0.00  0.00    -0.153 OA
ENDROOT
BRANCH   1   4
ATOM      4  C   UNL     1      -2.831   0.777   3.784  0.00  0.00    +0.106 A 
ATOM      5  C   UNL     1      -2.375   2.073   3.626  0.00  0.00    +0.030 A 
ATOM      6  C   UNL     1      -3.194   3.030   3.059  0.00  0.00    +0.025 A 
ATOM      7  C   UNL     1      -4.475   2.689   2.647  0.00  0.00    +0.037 A 
ATOM      8  C   UNL     1      -4.929   1.387   2.808  0.00  0.00    -0.024 A 
ATOM      9  C   UNL     1      -4.105   0.433   3.371  0.00  0.00    +0.034 A 
ATOM     10  C   UNL     1      -6.320   1.017   2.360  0.00  0.00    +0.046 C 
ATOM     11  C   UNL     1      -7.258   2.205   2.574  0.00  0.00    +0.101 C 
ATOM     12  C   UNL     1      -6.639   3.456   2.011  0.00  0.00    +0.218 C 
ATOM     13  O   UNL     1      -7.346   4.296   1.495  0.00  0.00    -0.275 OA
ATOM     14  N   UNL     1      -5.309   3.653   2.072  0.00  0.00    -0.285 N 
ATOM     15  H   UNL     1      -4.926   4.470   1.715  0.00  0.00    +0.155 HD
ENDBRANCH   1   4
BRANCH   1  16
ATOM     16  N   UNL     1      -0.928  -1.145   3.277  0.00  0.00    -0.180 NA
ATOM     17  H   UNL     1      -1.062  -2.083   3.068  0.00  0.00    +0.149 HD
BRANCH  16  18
ATOM     18  C   UNL     1       0.030  -0.352   2.503  0.00  0.00    +0.139 C 
ATOM     19  C   UNL     1       1.432  -0.532   3.090  0.00  0.00    +0.034 C 
BRANCH  18  29
ATOM     20  C   UNL     1      -0.018   1.503   0.010  0.00  0.00    +0.048 C 
ATOM     21  C   UNL     1       0.002  -0.004   0.002  0.00  0.00    -0.000 A 
ATOM     22  C   UNL     1       0.009  -0.879  -1.177  0.00  0.00    +0.023 A 
ATOM     23  C   UNL     1       0.000  -0.660  -2.553  0.00  0.00    +0.012 A 
ATOM     24  C   UNL     1       0.011  -1.726  -3.409  0.00  0.00    +0.001 A 
ATOM     25  C   UNL     1       0.031  -3.023  -2.916  0.00  0.00    +0.004 A 
ATOM     26  C   UNL     1       0.040  -3.259  -1.558  0.00  0.00    +0.047 A 
ATOM     27  C   UNL     1       0.029  -2.190  -0.671  0.00  0.00    +0.136 A 
ATOM     28  O   UNL     1       0.033  -2.100   0.674  0.00  0.00    -0.458 OA
ATOM     29  C   UNL     1       0.023  -0.814   1.069  0.00  0.00    +0.127 A 
ENDBRANCH  18  29
ENDBRANCH  16  18
ENDBRANCH   1  16
TORSDOF 4
