REMARK  Name = ZINC21721060
REMARK  4 active torsions:
REMARK  status: ('A' for Active; 'I' for Inactive)
REMARK    1  A    between atoms: C_1  and  C_2
REMARK    2  A    between atoms: C_5  and  S_8
REMARK    3  A    between atoms: S_8  and  N_11
REMARK    4  A    between atoms: C_13  and  C_23
REMARK                            x       y       z     vdW  Elec       q    Type
REMARK                         _______ _______ _______ _____ _____    ______ ____
ROOT
ATOM      1  N   UNL     1      -0.674   3.473   1.268  0.00  0.00    -0.195 N 
ATOM      2  C   UNL     1      -0.779   2.016   1.077  0.00  0.00    +0.185 C 
ATOM      3  C   UNL     1       0.021   1.654  -0.182  0.00  0.00    +0.277 C 
ATOM      4  O   UNL     1       1.374   2.079  -0.006  0.00  0.00    -0.476 OA
ATOM      5  C   UNL     1       1.587   3.354   0.417  0.00  0.00    +0.144 A 
ATOM      6  C   UNL     1       0.580   4.069   1.060  0.00  0.00    +0.094 A 
ATOM      7  C   UNL     1       0.812   5.366   1.490  0.00  0.00    +0.048 A 
ATOM      8  C   UNL     1       2.048   5.952   1.277  0.00  0.00    +0.043 A 
ATOM      9  C   UNL     1       3.049   5.244   0.636  0.00  0.00    +0.024 A 
ATOM     10  C   UNL     1       2.821   3.949   0.207  0.00  0.00    +0.049 A 
ATOM     11 CL   UNL     1       2.342   7.576   1.814  0.00  0.00    -0.083 Cl
ENDROOT
BRANCH   3  12
ATOM     12  C   UNL     1      -0.017   0.162  -0.392  0.00  0.00    +0.253 C 
ATOM     13  O   UNL     1       1.003  -0.489  -0.302  0.00  0.00    -0.272 OA
ATOM     14  N   UNL     1      -1.183  -0.449  -0.681  0.00  0.00    -0.326 N 
ATOM     15  H   UNL     1      -1.210  -1.538  -0.835  0.00  0.00    +0.145 HD
ATOM     16  H   UNL     1      -2.107   0.142  -0.763  0.00  0.00    +0.145 HD
ENDBRANCH   3  12
BRANCH   1  17
ATOM     17  S   UNL     1      -1.989   4.377   1.711  0.00  0.00    +0.075 S 
ATOM     18  O   UNL     1      -1.784   5.679   1.180  0.00  0.00    -0.150 OA
ATOM     19  O   UNL     1      -3.138   3.600   1.403  0.00  0.00    -0.150 OA
BRANCH  17  24
ATOM     20  C   UNL     1      -1.837   4.920   7.718  0.00  0.00    +0.044 C 
ATOM     21  C   UNL     1      -1.875   4.785   6.218  0.00  0.00    -0.050 A 
ATOM     22  C   UNL     1      -1.242   5.722   5.423  0.00  0.00    +0.005 A 
ATOM     23  C   UNL     1      -1.276   5.597   4.047  0.00  0.00    +0.029 A 
ATOM     24  C   UNL     1      -1.944   4.535   3.466  0.00  0.00    +0.109 A 
ATOM     25  C   UNL     1      -2.582   3.602   4.260  0.00  0.00    +0.029 A 
ATOM     26  C   UNL     1      -2.543   3.724   5.637  0.00  0.00    +0.005 A 
ENDBRANCH  17  24
ENDBRANCH   1  17
TORSDOF 3
