REMARK  Name = ZINC42909904
REMARK  6 active torsions:
REMARK  status: ('A' for Active; 'I' for Inactive)
REMARK    1  A    between atoms: C_1  and  C_2
REMARK    2  A    between atoms: C_2  and  C_24
REMARK    3  A    between atoms: C_4  and  N_10
REMARK    4  A    between atoms: C_6  and  C_8
REMARK    5  A    between atoms: C_6  and  C_9
REMARK    6  A    between atoms: C_17  and  C_19
REMARK                            x       y       z     vdW  Elec       q    Type
REMARK                         _______ _______ _______ _____ _____    ______ ____
ROOT
ATOM      1  N   UNL     1       2.616  -0.819  -2.626  0.00  0.00    -0.296 N 
ATOM      2  C   UNL     1       3.771  -0.334  -3.123  0.00  0.00    +0.303 C 
ATOM      3  O   UNL     1       4.376   0.532  -2.522  0.00  0.00    -0.253 OA
ATOM      4  N   UNL     1       4.255  -0.809  -4.288  0.00  0.00    -0.279 N 
ATOM      5  C   UNL     1       3.623  -1.849  -5.121  0.00  0.00    +0.110 C 
ATOM      6  C   UNL     1       4.786  -2.461  -5.940  0.00  0.00    +0.021 C 
ATOM      7  C   UNL     1       5.657  -1.210  -6.228  0.00  0.00    +0.029 C 
ATOM      8  C   UNL     1       5.497  -0.372  -4.942  0.00  0.00    +0.108 C 
ATOM      9  H   UNL     1       2.133  -1.510  -3.106  0.00  0.00    +0.151 HD
ENDROOT
BRANCH   1  13
ATOM     10  C   UNL     1      -0.019   1.528   0.010  0.00  0.00    -0.010 C 
ATOM     11  C   UNL     1       0.002  -0.004   0.002  0.00  0.00    -0.072 C 
ATOM     12  C   UNL     1       0.573  -0.505  -1.321  0.00  0.00    +0.009 C 
ATOM     13  C   UNL     1       2.088  -0.301  -1.357  0.00  0.00    +0.072 C 
ATOM     14  C   UNL     1       2.703  -1.086  -0.198  0.00  0.00    +0.009 C 
ATOM     15  C   UNL     1       2.147  -0.590   1.133  0.00  0.00    -0.072 C 
ATOM     16  N   UNL     1       0.697  -0.529   1.164  0.00  0.00    +0.386 N 
ATOM     17  C   UNL     1       2.600  -1.589   2.223  0.00  0.00    -0.010 C 
ATOM     18  C   UNL     1       2.769   0.766   1.481  0.00  0.00    -0.010 C 
ATOM     19  C   UNL     1      -1.468  -0.478   0.079  0.00  0.00    -0.010 C 
ATOM     20  H   UNL     1       0.416   0.021   1.982  0.00  0.00    -0.084 HD
ATOM     21  H   UNL     1       0.341  -1.472   1.351  0.00  0.00    -0.084 HD
ENDBRANCH   1  13
BRANCH   8  22
ATOM     22  C   UNL     1       5.406   1.092  -5.289  0.00  0.00    -0.020 A 
ATOM     23  C   UNL     1       6.500   1.921  -5.128  0.00  0.00    +0.013 A 
ATOM     24  C   UNL     1       6.385   3.232  -5.449  0.00  0.00    +0.045 A 
ATOM     25  S   UNL     1       4.689   3.330  -5.999  0.00  0.00    -0.105 S 
ATOM     26  C   UNL     1       4.251   1.615  -5.769  0.00  0.00    +0.050 A 
ENDBRANCH   8  22
TORSDOF 2
