REMARK  Name = ZINC06931737
REMARK  7 active torsions:
REMARK  status: ('A' for Active; 'I' for Inactive)
REMARK    1  A    between atoms: N_9  and  N_23
REMARK    2  A    between atoms: C_10  and  C_12
REMARK    3  A    between atoms: C_12  and  O_13
REMARK    4  A    between atoms: O_13  and  C_14
REMARK    5  A    between atoms: C_19  and  C_20
REMARK    6  A    between atoms: C_24  and  C_25
REMARK    7  A    between atoms: C_28  and  O_31
REMARK                            x       y       z     vdW  Elec       q    Type
REMARK                         _______ _______ _______ _____ _____    ______ ____
ROOT
ATOM      1  C   UNL     1      -7.747  -2.834  -0.059  0.00  0.00    +0.001 A 
ATOM      2  C   UNL     1      -8.851  -1.993  -0.120  0.00  0.00    +0.002 A 
ATOM      3  C   UNL     1      -8.696  -0.625  -0.139  0.00  0.00    +0.028 A 
ATOM      4  C   UNL     1      -7.412  -0.077  -0.096  0.00  0.00    +0.078 A 
ATOM      5  C   UNL     1      -6.294  -0.940  -0.034  0.00  0.00    +0.067 A 
ATOM      6  C   UNL     1      -6.480  -2.321  -0.017  0.00  0.00    +0.015 A 
ATOM      7  C   UNL     1      -4.956  -0.334   0.005  0.00  0.00    +0.282 A 
ATOM      8  O   UNL     1      -3.952  -1.021   0.055  0.00  0.00    -0.265 OA
ATOM      9  N   UNL     1      -4.883   1.018  -0.012  0.00  0.00    -0.178 N 
ATOM     10  C   UNL     1      -6.014   1.772  -0.073  0.00  0.00    +0.172 A 
ATOM     11  N   UNL     1      -7.209   1.264  -0.113  0.00  0.00    -0.228 NA
ENDROOT
BRANCH   9  12
ATOM     12  N   UNL     1      -3.632   1.646   0.028  0.00  0.00    -0.170 NA
ATOM     13  C   UNL     1      -2.805   1.511  -0.965  0.00  0.00    +0.141 C 
BRANCH  13  14
ATOM     14  C   UNL     1      -1.447   2.076  -0.875  0.00  0.00    -0.005 A 
ATOM     15  C   UNL     1      -0.556   1.933  -1.943  0.00  0.00    +0.013 A 
ATOM     16  C   UNL     1       0.710   2.467  -1.856  0.00  0.00    +0.046 A 
ATOM     17  C   UNL     1       1.105   3.144  -0.709  0.00  0.00    +0.117 A 
ATOM     18  C   UNL     1       0.224   3.284   0.357  0.00  0.00    +0.046 A 
ATOM     19  C   UNL     1      -1.044   2.752   0.280  0.00  0.00    +0.013 A 
BRANCH  17  20
ATOM     20  O   UNL     1       2.354   3.670  -0.629  0.00  0.00    -0.507 OA
ATOM     21  H   UNL     1       2.419   4.580  -0.950  0.00  0.00    +0.292 HD
ENDBRANCH  17  20
ENDBRANCH  13  14
ENDBRANCH   9  12
BRANCH  10  22
ATOM     22  C   UNL     1      -5.873   3.272  -0.096  0.00  0.00    +0.305 C 
BRANCH  22  23
ATOM     23  O   UNL     1      -7.169   3.871  -0.161  0.00  0.00    -0.484 OA
BRANCH  23  24
ATOM     24  C   UNL     1      -7.220   5.226  -0.189  0.00  0.00    +0.133 A 
ATOM     25  C   UNL     1      -6.049   5.968  -0.148  0.00  0.00    +0.046 A 
ATOM     26  C   UNL     1      -6.103   7.348  -0.183  0.00  0.00    +0.004 A 
ATOM     27  C   UNL     1      -7.323   8.000  -0.246  0.00  0.00    +0.001 A 
ATOM     28  C   UNL     1      -8.496   7.279  -0.281  0.00  0.00    +0.017 A 
ATOM     29  C   UNL     1      -8.457   5.882  -0.253  0.00  0.00    +0.078 A 
BRANCH  29  30
ATOM     30  C   UNL     1      -9.709   5.104  -0.289  0.00  0.00    +0.245 C 
ATOM     31  O   UNL     1      -9.671   3.889  -0.264  0.00  0.00    -0.270 OA
ATOM     32  N   UNL     1     -10.896   5.739  -0.351  0.00  0.00    -0.325 N 
ATOM     33  H   UNL     1     -10.927   6.708  -0.371  0.00  0.00    +0.145 HD
ATOM     34  H   UNL     1     -11.720   5.227  -0.375  0.00  0.00    +0.145 HD
ENDBRANCH  29  30
ENDBRANCH  23  24
ENDBRANCH  22  23
ENDBRANCH  10  22
TORSDOF 7
