REMARK  Name = ZINC48946344
REMARK  6 active torsions:
REMARK  status: ('A' for Active; 'I' for Inactive)
REMARK    1  A    between atoms: C_1  and  C_2
REMARK    2  A    between atoms: C_2  and  C_3
REMARK    3  A    between atoms: C_2  and  C_4
REMARK    4  A    between atoms: C_2  and  N_5
REMARK    5  A    between atoms: C_17  and  C_19
REMARK    6  A    between atoms: C_19  and  C_20
REMARK                            x       y       z     vdW  Elec       q    Type
REMARK                         _______ _______ _______ _____ _____    ______ ____
ROOT
ATOM      1  N   UNL     1       4.188  -6.255  -7.638  0.00  0.00    +0.385 N 
ATOM      2  C   UNL     1       2.916  -5.773  -7.086  0.00  0.00    -0.059 C 
ATOM      3  C   UNL     1       2.637  -4.359  -7.605  0.00  0.00    +0.091 C 
ATOM      4  N   UNL     1       3.796  -3.509  -7.291  0.00  0.00    -0.289 N 
ATOM      5  C   UNL     1       5.133  -3.995  -7.665  0.00  0.00    +0.091 C 
ATOM      6  C   UNL     1       5.294  -5.426  -7.142  0.00  0.00    -0.059 C 
ATOM      7  C   UNL     1       3.637  -2.320  -6.677  0.00  0.00    +0.305 C 
ATOM      8  O   UNL     1       2.554  -1.768  -6.691  0.00  0.00    -0.252 OA
ATOM      9  N   UNL     1       4.679  -1.742  -6.048  0.00  0.00    -0.282 N 
ATOM     10  C   UNL     1       5.908  -2.429  -5.611  0.00  0.00    +0.110 C 
ATOM     11  C   UNL     1       6.463  -1.555  -4.459  0.00  0.00    +0.021 C 
ATOM     12  C   UNL     1       6.130  -0.126  -4.963  0.00  0.00    +0.024 C 
ATOM     13  C   UNL     1       4.782  -0.319  -5.689  0.00  0.00    +0.088 C 
ATOM     14  H   UNL     1       4.156  -6.202  -8.645  0.00  0.00    -0.081 HD
ENDROOT
BRANCH   1  16
ATOM     15  C   UNL     1       4.455  -7.730  -5.702  0.00  0.00    -0.010 C 
ATOM     16  C   UNL     1       4.401  -7.649  -7.229  0.00  0.00    -0.074 C 
ATOM     17  C   UNL     1       5.721  -8.156  -7.813  0.00  0.00    -0.010 C 
ATOM     18  C   UNL     1       3.249  -8.514  -7.745  0.00  0.00    -0.010 C 
ENDBRANCH   1  16
BRANCH  13  19
ATOM     19  C   UNL     1       4.742   0.540  -6.954  0.00  0.00    +0.147 C 
BRANCH  19  20
ATOM     20  C   UNL     1       3.370   0.458  -7.574  0.00  0.00    +0.358 C 
ATOM     21  O   UNL     1       2.413   0.956  -7.006  0.00  0.00    -0.246 OA
ATOM     22  O   UNL     1       3.218  -0.106  -8.644  0.00  0.00    -0.246 OA
ENDBRANCH  19  20
ENDBRANCH  13  19
TORSDOF 3
