REMARK  Name = ZINC58990212
REMARK  10 active torsions:
REMARK  status: ('A' for Active; 'I' for Inactive)
REMARK    1  A    between atoms: C_6  and  C_7
REMARK    2  A    between atoms: C_10  and  S_13
REMARK    3  A    between atoms: N_11  and  N_12
REMARK    4  A    between atoms: S_13  and  C_14
REMARK    5  A    between atoms: C_14  and  C_15
REMARK    6  A    between atoms: C_15  and  C_16
REMARK    7  A    between atoms: C_16  and  C_17
REMARK    8  A    between atoms: N_19  and  N_20
REMARK    9  A    between atoms: C_21  and  C_22
REMARK   10  A    between atoms: C_27  and  O_28
REMARK                            x       y       z     vdW  Elec       q    Type
REMARK                         _______ _______ _______ _____ _____    ______ ____
ROOT
ATOM      1  C   UNL     1      -5.303  -3.557  -0.051  0.00  0.00    +0.078 C 
ENDROOT
BRANCH   1   2
ATOM      2  S   UNL     1      -3.554  -3.906  -0.384  0.00  0.00    -0.084 S 
BRANCH   2   6
ATOM      3  C   UNL     1      -1.266  -0.764   0.010  0.00  0.00    +0.182 A 
ATOM      4  N   UNL     1      -2.458  -0.290   0.292  0.00  0.00    -0.127 NA
ATOM      5  N   UNL     1      -3.334  -1.225   0.203  0.00  0.00    -0.121 NA
ATOM      6  C   UNL     1      -2.756  -2.354  -0.142  0.00  0.00    +0.209 A 
ATOM      7  N   UNL     1      -1.421  -2.099  -0.282  0.00  0.00    -0.224 N 
BRANCH   3  13
ATOM      8  C   UNL     1      -0.017   1.392   0.010  0.00  0.00    +0.013 A 
ATOM      9  C   UNL     1       1.170   2.095   0.002  0.00  0.00    +0.016 A 
ATOM     10  C   UNL     1       2.378   1.419  -0.013  0.00  0.00    +0.018 A 
ATOM     11  C   UNL     1       2.403   0.035  -0.021  0.00  0.00    +0.016 A 
ATOM     12  C   UNL     1       1.223  -0.680  -0.013  0.00  0.00    +0.013 A 
ATOM     13  C   UNL     1       0.002  -0.004   0.002  0.00  0.00    +0.021 A 
ATOM     14 BR   UNL     1       4.000   2.390  -0.025  0.00  0.00    -0.050 Br
ENDBRANCH   3  13
BRANCH   7  15
ATOM     15  N   UNL     1      -0.444  -2.986  -0.635  0.00  0.00    -0.295 N 
ATOM     16  H   UNL     1      -0.052  -3.434   0.179  0.00  0.00    +0.163 HD
ATOM     17  H   UNL     1      -0.795  -3.668  -1.291  0.00  0.00    +0.163 HD
ENDBRANCH   7  15
ENDBRANCH   2   6
ENDBRANCH   1   2
BRANCH   1  18
ATOM     18  C   UNL     1      -6.122  -4.837  -0.228  0.00  0.00    +0.020 C 
BRANCH  18  19
ATOM     19  C   UNL     1      -7.596  -4.542   0.053  0.00  0.00    +0.098 C 
BRANCH  19  20
ATOM     20  C   UNL     1      -8.403  -5.803  -0.121  0.00  0.00    +0.232 C 
ATOM     21  O   UNL     1      -7.852  -6.837  -0.439  0.00  0.00    -0.274 OA
ATOM     22  N   UNL     1      -9.736  -5.784   0.076  0.00  0.00    -0.207 N 
ATOM     23  H   UNL     1     -10.176  -4.958   0.331  0.00  0.00    +0.177 HD
BRANCH  22  24
ATOM     24  N   UNL     1     -10.486  -6.956  -0.086  0.00  0.00    -0.188 NA
ATOM     25  C   UNL     1     -11.769  -6.937   0.104  0.00  0.00    +0.142 C 
BRANCH  25  26
ATOM     26  C   UNL     1     -12.558  -8.170  -0.066  0.00  0.00    +0.037 A 
ATOM     27  C   UNL     1     -13.941  -8.153   0.132  0.00  0.00    +0.033 A 
ATOM     28  C   UNL     1     -14.673  -9.311  -0.030  0.00  0.00    +0.042 A 
ATOM     29  C   UNL     1     -14.042 -10.492  -0.387  0.00  0.00    +0.023 A 
ATOM     30  C   UNL     1     -12.675 -10.521  -0.585  0.00  0.00    +0.047 A 
ATOM     31  C   UNL     1     -11.925  -9.366  -0.433  0.00  0.00    +0.126 A 
ATOM     32 CL   UNL     1     -16.391  -9.289   0.216  0.00  0.00    -0.084 Cl
BRANCH  31  33
ATOM     33  O   UNL     1     -10.582  -9.393  -0.633  0.00  0.00    -0.506 OA
ATOM     34  H   UNL     1     -10.070  -9.598   0.162  0.00  0.00    +0.292 HD
ENDBRANCH  31  33
ENDBRANCH  25  26
ENDBRANCH  22  24
ENDBRANCH  19  20
ENDBRANCH  18  19
ENDBRANCH   1  18
TORSDOF 10
