REMARK  Name = ZINC15106466
REMARK  8 active torsions:
REMARK  status: ('A' for Active; 'I' for Inactive)
REMARK    1  A    between atoms: C_1  and  C_2
REMARK    2  A    between atoms: C_2  and  C_3
REMARK    3  A    between atoms: C_2  and  C_4
REMARK    4  A    between atoms: C_2  and  C_5
REMARK    5  A    between atoms: C_14  and  C_20
REMARK    6  A    between atoms: C_23  and  O_27
REMARK    7  A    between atoms: C_24  and  O_26
REMARK    8  A    between atoms: O_27  and  C_28
REMARK                            x       y       z     vdW  Elec       q    Type
REMARK                         _______ _______ _______ _____ _____    ______ ____
ROOT
ATOM      1  C   UNL     1      -3.943   1.322  -5.062  0.00  0.00    -0.000 C 
ATOM      2  C   UNL     1      -4.694   1.873  -3.847  0.00  0.00    +0.009 C 
ATOM      3  C   UNL     1      -3.771   1.901  -2.629  0.00  0.00    +0.036 C 
ATOM      4  C   UNL     1      -3.161   0.514  -2.442  0.00  0.00    -0.032 A 
ATOM      5  C   UNL     1      -3.157  -0.376  -3.470  0.00  0.00    -0.005 A 
ATOM      6  S   UNL     1      -2.363  -1.811  -2.791  0.00  0.00    -0.078 S 
ATOM      7  C   UNL     1      -2.070  -1.165  -1.171  0.00  0.00    +0.076 A 
ATOM      8  C   UNL     1      -2.589   0.102  -1.228  0.00  0.00    -0.008 A 
ATOM      9  C   UNL     1      -2.513   0.975   0.020  0.00  0.00    +0.060 C 
ATOM     10  C   UNL     1      -2.567   0.072   1.251  0.00  0.00    +0.109 C 
ATOM     11  C   UNL     1      -1.644  -1.107   1.127  0.00  0.00    +0.218 C 
ATOM     12  O   UNL     1      -1.047  -1.504   2.105  0.00  0.00    -0.275 OA
ATOM     13  N   UNL     1      -1.470  -1.733  -0.064  0.00  0.00    -0.280 N 
ATOM     14  C   UNL     1      -3.698  -0.179  -4.849  0.00  0.00    +0.046 C 
ATOM     15  H   UNL     1      -0.946  -2.546  -0.134  0.00  0.00    +0.155 HD
ENDROOT
BRANCH   9  16
ATOM     16  C   UNL     1      -1.220   1.749   0.017  0.00  0.00    -0.036 A 
ATOM     17  C   UNL     1      -0.013   1.076   0.008  0.00  0.00    +0.008 A 
ATOM     18  C   UNL     1       1.176   1.782   0.000  0.00  0.00    +0.049 A 
ATOM     19  C   UNL     1       1.159   3.167   0.007  0.00  0.00    +0.161 A 
ATOM     20  C   UNL     1      -0.056   3.845   0.022  0.00  0.00    +0.159 A 
ATOM     21  C   UNL     1      -1.244   3.131   0.030  0.00  0.00    +0.053 A 
BRANCH  20  22
ATOM     22  O   UNL     1      -0.078   5.205   0.030  0.00  0.00    -0.503 OA
ATOM     23  H   UNL     1      -0.093   5.603  -0.851  0.00  0.00    +0.292 HD
ENDBRANCH  20  22
BRANCH  19  24
ATOM     24  O   UNL     1       2.327   3.863  -0.000  0.00  0.00    -0.491 OA
ATOM     25  C   UNL     1       3.536   3.101  -0.016  0.00  0.00    +0.277 C 
ENDBRANCH  19  24
ENDBRANCH   9  16
BRANCH   1  27
ATOM     26  C   UNL     1      -5.044   3.025  -6.521  0.00  0.00    +0.011 C 
ATOM     27  C   UNL     1      -4.784   1.531  -6.323  0.00  0.00    -0.035 C 
ATOM     28  C   UNL     1      -4.031   0.979  -7.535  0.00  0.00    +0.011 C 
ATOM     29  C   UNL     1      -6.118   0.796  -6.174  0.00  0.00    +0.011 C 
ENDBRANCH   1  27
TORSDOF 4
