REMARK  Name = ZINC12995162
REMARK  6 active torsions:
REMARK  status: ('A' for Active; 'I' for Inactive)
REMARK    1  A    between atoms: C_8  and  C_10
REMARK    2  A    between atoms: C_13  and  C_15
REMARK    3  A    between atoms: C_15  and  N_16
REMARK    4  A    between atoms: C_17  and  C_19
REMARK    5  A    between atoms: C_21  and  S_26
REMARK    6  A    between atoms: S_26  and  N_29
REMARK                            x       y       z     vdW  Elec       q    Type
REMARK                         _______ _______ _______ _____ _____    ______ ____
ROOT
ATOM      1  N   UNL     1       4.144  10.460   1.401  0.00  0.00    -0.304 N 
ATOM      2  C   UNL     1       5.152  11.322   1.643  0.00  0.00    +0.246 C 
ATOM      3  O   UNL     1       5.743  11.841   0.716  0.00  0.00    -0.270 OA
ATOM      4  H   UNL     1       3.673  10.046   2.141  0.00  0.00    +0.149 HD
ENDROOT
BRANCH   2   5
ATOM      5  C   UNL     1       5.540  11.635   3.034  0.00  0.00    +0.052 A 
ATOM      6  C   UNL     1       4.860  11.044   4.101  0.00  0.00    +0.042 A 
ATOM      7  C   UNL     1       5.229  11.337   5.397  0.00  0.00    +0.106 A 
ATOM      8  C   UNL     1       6.265  12.222   5.642  0.00  0.00    +0.029 A 
ATOM      9  C   UNL     1       6.940  12.815   4.591  0.00  0.00    +0.018 A 
ATOM     10  C   UNL     1       6.584  12.527   3.288  0.00  0.00    +0.030 A 
ATOM     11 BR   UNL     1       7.508  13.338   1.851  0.00  0.00    -0.050 Br
BRANCH   7  12
ATOM     12  S   UNL     1       4.376  10.588   6.745  0.00  0.00    +0.056 S 
ATOM     13  O   UNL     1       3.810   9.383   6.248  0.00  0.00    -0.153 OA
ATOM     14  O   UNL     1       5.266  10.612   7.852  0.00  0.00    -0.153 OA
BRANCH  12  15
ATOM     15  N   UNL     1       3.109  11.581   7.135  0.00  0.00    -0.204 NA
ATOM     16  H   UNL     1       2.296  11.206   7.508  0.00  0.00    +0.144 HD
ATOM     17  H   UNL     1       3.180  12.538   6.990  0.00  0.00    +0.144 HD
ENDBRANCH  12  15
ENDBRANCH   7  12
ENDBRANCH   2   5
BRANCH   1  18
ATOM     18  C   UNL     1       3.760  10.150   0.022  0.00  0.00    +0.179 C 
BRANCH  18  22
ATOM     19  C   UNL     1       1.505   7.275   0.028  0.00  0.00    +0.160 A 
ATOM     20  C   UNL     1       0.585   8.281   0.043  0.00  0.00    +0.052 A 
ATOM     21  C   UNL     1       1.306   9.489   0.043  0.00  0.00    +0.047 A 
ATOM     22  C   UNL     1       2.616   9.168   0.028  0.00  0.00    +0.123 A 
ATOM     23  O   UNL     1       2.733   7.832   0.025  0.00  0.00    -0.456 OA
BRANCH  19  31
ATOM     24  C   UNL     1      -1.220   1.760   0.017  0.00  0.00    +0.002 A 
ATOM     25  C   UNL     1      -0.013   1.076   0.008  0.00  0.00    +0.001 A 
ATOM     26  C   UNL     1       1.171   1.790   0.001  0.00  0.00    +0.017 A 
ATOM     27  C   UNL     1       1.132   3.163   0.008  0.00  0.00    +0.040 A 
ATOM     28  C   UNL     1      -0.083   3.889   0.024  0.00  0.00    +0.079 A 
ATOM     29  C   UNL     1      -1.270   3.119   0.031  0.00  0.00    +0.029 A 
ATOM     30  N   UNL     1       0.039   5.231   0.031  0.00  0.00    -0.236 NA
ATOM     31  C   UNL     1       1.210   5.835   0.023  0.00  0.00    +0.144 A 
ATOM     32  S   UNL     1       2.348   4.457   0.005  0.00  0.00    -0.064 S 
ENDBRANCH  19  31
ENDBRANCH  18  22
ENDBRANCH   1  18
TORSDOF 6
