REMARK  Name = ZINC18052570
REMARK  11 active torsions:
REMARK  status: ('A' for Active; 'I' for Inactive)
REMARK    1  A    between atoms: C_1  and  C_2
REMARK    2  A    between atoms: C_2  and  C_4
REMARK    3  A    between atoms: C_2  and  O_23
REMARK    4  A    between atoms: N_6  and  N_7
REMARK    5  A    between atoms: C_8  and  C_10
REMARK    6  A    between atoms: C_10  and  C_12
REMARK    7  A    between atoms: C_10  and  N_15
REMARK    8  A    between atoms: C_12  and  C_13
REMARK    9  A    between atoms: C_12  and  C_14
REMARK   10  A    between atoms: C_16  and  C_18
REMARK   11  A    between atoms: O_23  and  C_24
REMARK                            x       y       z     vdW  Elec       q    Type
REMARK                         _______ _______ _______ _____ _____    ______ ____
ROOT
ATOM      1  C   UNL     1       0.329  -0.653   1.379  0.00  0.00    +0.270 C 
ATOM      2  O   UNL     1      -0.269  -1.142   2.314  0.00  0.00    -0.270 OA
ATOM      3  N   UNL     1       1.663  -0.476   1.451  0.00  0.00    -0.231 N 
ATOM      4  H   UNL     1       2.141  -0.086   0.703  0.00  0.00    +0.173 HD
ENDROOT
BRANCH   3   5
ATOM      5  N   UNL     1       2.359  -0.857   2.606  0.00  0.00    -0.233 N 
ATOM      6  C   UNL     1       3.693  -0.680   2.677  0.00  0.00    +0.250 C 
ATOM      7  O   UNL     1       4.280  -0.121   1.775  0.00  0.00    -0.272 OA
ATOM      8  H   UNL     1       1.881  -1.248   3.353  0.00  0.00    +0.173 HD
BRANCH   6   9
ATOM      9  C   UNL     1       4.456  -1.177   3.878  0.00  0.00    +0.163 C 
BRANCH   9  10
ATOM     10  N   UNL     1       5.670  -0.376   4.052  0.00  0.00    -0.299 N 
ATOM     11  C   UNL     1       6.237  -0.268   5.270  0.00  0.00    +0.251 C 
ATOM     12  O   UNL     1       5.741  -0.837   6.225  0.00  0.00    -0.270 OA
ATOM     13  H   UNL     1       6.065   0.077   3.291  0.00  0.00    +0.150 HD
BRANCH  11  14
ATOM     14  C   UNL     1       7.452   0.534   5.444  0.00  0.00    +0.074 A 
ATOM     15  C   UNL     1       8.188   0.767   6.596  0.00  0.00    +0.021 A 
ATOM     16  C   UNL     1       9.292   1.571   6.446  0.00  0.00    +0.008 A 
ATOM     17  C   UNL     1       9.583   2.070   5.219  0.00  0.00    +0.046 A 
ATOM     18  S   UNL     1       8.372   1.458   4.228  0.00  0.00    -0.092 S 
ENDBRANCH  11  14
ENDBRANCH   9  10
BRANCH   9  19
ATOM     19  C   UNL     1       4.839  -2.644   3.668  0.00  0.00    +0.012 C 
ATOM     20  C   UNL     1       3.571  -3.499   3.611  0.00  0.00    +0.009 C 
ATOM     21  C   UNL     1       5.609  -2.786   2.354  0.00  0.00    +0.009 C 
ENDBRANCH   9  19
ENDBRANCH   6   9
ENDBRANCH   3   5
BRANCH   1  23
ATOM     22  C   UNL     1      -0.337   1.274  -0.031  0.00  0.00    +0.062 C 
ATOM     23  C   UNL     1      -0.420  -0.244   0.137  0.00  0.00    +0.257 C 
BRANCH  23  24
ATOM     24  O   UNL     1      -1.789  -0.635   0.256  0.00  0.00    -0.480 OA
BRANCH  24  25
ATOM     25  C   UNL     1      -2.487  -0.794  -0.899  0.00  0.00    +0.122 A 
ATOM     26  C   UNL     1      -1.843  -0.606  -2.127  0.00  0.00    +0.046 A 
ATOM     27  C   UNL     1      -2.515  -0.758  -3.299  0.00  0.00    +0.012 A 
ATOM     28  C   UNL     1      -3.877  -1.109  -3.282  0.00  0.00    -0.018 A 
ATOM     29  C   UNL     1      -4.601  -1.274  -4.475  0.00  0.00    +0.008 A 
ATOM     30  C   UNL     1      -5.918  -1.615  -4.422  0.00  0.00    +0.001 A 
ATOM     31  C   UNL     1      -6.562  -1.802  -3.200  0.00  0.00    +0.001 A 
ATOM     32  C   UNL     1      -5.893  -1.651  -2.025  0.00  0.00    +0.008 A 
ATOM     33  C   UNL     1      -4.532  -1.300  -2.040  0.00  0.00    -0.014 A 
ATOM     34  C   UNL     1      -3.808  -1.140  -0.847  0.00  0.00    +0.054 A 
ENDBRANCH  24  25
ENDBRANCH  23  24
ENDBRANCH   1  23
TORSDOF 8
