REMARK  Name = ZINC36551876
REMARK  10 active torsions:
REMARK  status: ('A' for Active; 'I' for Inactive)
REMARK    1  A    between atoms: C_1  and  C_2
REMARK    2  A    between atoms: C_5  and  S_8
REMARK    3  A    between atoms: S_8  and  C_11
REMARK    4  A    between atoms: C_11  and  N_12
REMARK    5  A    between atoms: C_13  and  C_15
REMARK    6  A    between atoms: C_15  and  C_17
REMARK    7  A    between atoms: C_15  and  N_24
REMARK    8  A    between atoms: C_22  and  O_23
REMARK    9  A    between atoms: N_24  and  C_25
REMARK   10  A    between atoms: C_32  and  C_34
REMARK                            x       y       z     vdW  Elec       q    Type
REMARK                         _______ _______ _______ _____ _____    ______ ____
ROOT
ATOM      1  C   UNL     1       3.345  -5.027   3.594  0.00  0.00    +0.201 C 
ENDROOT
BRANCH   1   2
ATOM      2  C   UNL     1       2.527  -4.147   4.504  0.00  0.00    +0.024 A 
ATOM      3  C   UNL     1       1.167  -4.015   4.299  0.00  0.00    +0.009 A 
ATOM      4  C   UNL     1       0.417  -3.207   5.133  0.00  0.00    +0.001 A 
ATOM      5  C   UNL     1       1.024  -2.531   6.175  0.00  0.00    +0.004 A 
ATOM      6  C   UNL     1       2.384  -2.660   6.384  0.00  0.00    +0.046 A 
ATOM      7  C   UNL     1       3.138  -3.474   5.551  0.00  0.00    +0.122 A 
BRANCH   7   8
ATOM      8  O   UNL     1       4.475  -3.607   5.758  0.00  0.00    -0.506 OA
ATOM      9  H   UNL     1       5.008  -2.911   5.350  0.00  0.00    +0.292 HD
ENDBRANCH   7   8
ENDBRANCH   1   2
BRANCH   1  11
ATOM     10  N   UNL     1       2.150  -4.465   1.502  0.00  0.00    -0.294 N 
ATOM     11  C   UNL     1       2.522  -5.408   2.390  0.00  0.00    +0.240 C 
ATOM     12  O   UNL     1       2.193  -6.563   2.221  0.00  0.00    -0.273 OA
ATOM     13  H   UNL     1       2.344  -3.531   1.677  0.00  0.00    +0.150 HD
BRANCH  10  14
ATOM     14  C   UNL     1       1.452  -4.851   0.273  0.00  0.00    +0.278 C 
BRANCH  14  15
ATOM     15  S   UNL     1      -0.339  -4.705   0.523  0.00  0.00    +0.013 S 
ATOM     16  O   UNL     1      -0.713  -5.316   1.750  0.00  0.00    -0.168 OA
ATOM     17  O   UNL     1      -1.028  -5.015  -0.680  0.00  0.00    -0.168 OA
BRANCH  15  22
ATOM     18  C   UNL     1      -1.313   1.188   1.378  0.00  0.00    +0.044 C 
ATOM     19  C   UNL     1      -1.070  -0.284   1.165  0.00  0.00    -0.050 A 
ATOM     20  C   UNL     1      -1.110  -0.813  -0.112  0.00  0.00    +0.005 A 
ATOM     21  C   UNL     1      -0.886  -2.163  -0.308  0.00  0.00    +0.027 A 
ATOM     22  C   UNL     1      -0.622  -2.984   0.773  0.00  0.00    +0.090 A 
ATOM     23  C   UNL     1      -0.582  -2.454   2.049  0.00  0.00    +0.027 A 
ATOM     24  C   UNL     1      -0.801  -1.104   2.245  0.00  0.00    +0.005 A 
ENDBRANCH  15  22
ENDBRANCH  14  15
ENDBRANCH  10  14
ENDBRANCH   1  11
BRANCH   1  25
ATOM     25  N   UNL     1       3.745  -6.238   4.315  0.00  0.00    -0.254 N 
ATOM     26  C   UNL     1       5.049  -6.564   4.413  0.00  0.00    +0.235 C 
ATOM     27  O   UNL     1       5.374  -7.619   4.915  0.00  0.00    -0.274 OA
BRANCH  25  28
ATOM     28  C   UNL     1       2.773  -7.056   4.902  0.00  0.00    +0.039 A 
ATOM     29  C   UNL     1       1.426  -6.822   4.656  0.00  0.00    +0.023 A 
ATOM     30  C   UNL     1       0.469  -7.631   5.236  0.00  0.00    +0.003 A 
ATOM     31  C   UNL     1       0.850  -8.672   6.063  0.00  0.00    +0.020 A 
ATOM     32  C   UNL     1       2.190  -8.907   6.311  0.00  0.00    +0.043 A 
ATOM     33  C   UNL     1       3.153  -8.105   5.727  0.00  0.00    +0.043 A 
ATOM     34 CL   UNL     1       2.664 -10.215   7.350  0.00  0.00    -0.083 Cl
ENDBRANCH  25  28
BRANCH  26  35
ATOM     35  C   UNL     1       6.103  -5.618   3.898  0.00  0.00    +0.204 C 
ATOM     36 CL   UNL     1       7.725  -6.393   4.037  0.00  0.00    -0.116 Cl
ENDBRANCH  26  35
ENDBRANCH   1  25
TORSDOF 9
