REMARK  Name = ZINC44089524
REMARK  7 active torsions:
REMARK  status: ('A' for Active; 'I' for Inactive)
REMARK    1  A    between atoms: C_1  and  C_2
REMARK    2  A    between atoms: C_2  and  C_4
REMARK    3  A    between atoms: C_2  and  N_13
REMARK    4  A    between atoms: N_9  and  C_10
REMARK    5  A    between atoms: C_10  and  C_11
REMARK    6  A    between atoms: C_10  and  C_12
REMARK    7  A    between atoms: C_19  and  C_21
REMARK                            x       y       z     vdW  Elec       q    Type
REMARK                         _______ _______ _______ _____ _____    ______ ____
ROOT
ATOM      1  N   UNL     1       0.275  -0.807   1.122  0.00  0.00    -0.289 NA
ATOM      2  C   UNL     1       0.387  -2.260   0.940  0.00  0.00    +0.104 C 
ATOM      3  C   UNL     1       1.408  -2.820   1.936  0.00  0.00    +0.123 C 
ATOM      4  N   UNL     1       1.024  -2.391   3.289  0.00  0.00    -0.295 N 
ATOM      5  C   UNL     1       0.760  -0.962   3.518  0.00  0.00    +0.123 C 
ATOM      6  C   UNL     1      -0.236  -0.475   2.459  0.00  0.00    +0.104 C 
ATOM      7  C   UNL     1       0.917  -3.283   4.293  0.00  0.00    +0.247 C 
ATOM      8  O   UNL     1       0.505  -2.928   5.380  0.00  0.00    -0.270 OA
ENDROOT
BRANCH   7   9
ATOM      9  C   UNL     1       1.301  -4.693   4.073  0.00  0.00    +0.037 A 
ATOM     10  C   UNL     1       2.341  -5.007   3.196  0.00  0.00    +0.014 A 
ATOM     11  C   UNL     1       2.695  -6.324   2.995  0.00  0.00    +0.021 A 
ATOM     12  C   UNL     1       2.021  -7.335   3.661  0.00  0.00    +0.041 A 
ATOM     13  C   UNL     1       0.989  -7.030   4.532  0.00  0.00    +0.021 A 
ATOM     14  C   UNL     1       0.630  -5.715   4.746  0.00  0.00    +0.014 A 
ATOM     15 CL   UNL     1       2.472  -8.991   3.401  0.00  0.00    -0.084 Cl
ENDBRANCH   7   9
BRANCH   1  17
ATOM     16  C   UNL     1      -2.034  -0.518   0.359  0.00  0.00    +0.034 C 
ATOM     17  C   UNL     1      -0.564  -0.207   0.075  0.00  0.00    +0.140 C 
BRANCH  17  18
ATOM     18  C   UNL     1      -0.359   1.286   0.061  0.00  0.00    +0.237 C 
ATOM     19  O   UNL     1       0.308   1.814   0.925  0.00  0.00    -0.274 OA
ATOM     20  N   UNL     1      -0.917   2.033  -0.911  0.00  0.00    -0.239 N 
ATOM     21  C   UNL     1      -0.735   3.368  -0.924  0.00  0.00    +0.306 C 
ATOM     22  O   UNL     1      -0.066   3.898  -0.058  0.00  0.00    -0.252 OA
ATOM     23  N   UNL     1      -1.293   4.116  -1.896  0.00  0.00    -0.297 N 
ATOM     24  H   UNL     1      -1.451   1.610  -1.602  0.00  0.00    +0.159 HD
ATOM     25  H   UNL     1      -1.827   3.693  -2.587  0.00  0.00    +0.151 HD
BRANCH  23  26
ATOM     26  C   UNL     1      -1.095   5.567  -1.910  0.00  0.00    +0.068 C 
ATOM     27  C   UNL     1       0.222   5.895  -2.616  0.00  0.00    +0.027 C 
ATOM     28  C   UNL     1      -2.253   6.234  -2.655  0.00  0.00    +0.027 C 
ENDBRANCH  23  26
ENDBRANCH  17  18
ENDBRANCH   1  17
TORSDOF 4
