REMARK  Name = ZINC09184261
REMARK  3 active torsions:
REMARK  status: ('A' for Active; 'I' for Inactive)
REMARK    1  A    between atoms: C_1  and  C_2
REMARK    2  A    between atoms: C_11  and  C_13
REMARK    3  A    between atoms: N_19  and  C_20
REMARK                            x       y       z     vdW  Elec       q    Type
REMARK                         _______ _______ _______ _____ _____    ______ ____
ROOT
ATOM      1  C   UNL     1       0.308   2.440  -0.552  0.00  0.00    +0.066 C 
ATOM      2  C   UNL     1      -0.391   2.677   0.761  0.00  0.00    +0.047 A 
ATOM      3  C   UNL     1       0.340   2.948   1.881  0.00  0.00    +0.093 A 
ATOM      4  C   UNL     1      -0.333   3.162   3.100  0.00  0.00    +0.257 A 
ATOM      5  O   UNL     1       0.287   3.416   4.119  0.00  0.00    -0.267 OA
ATOM      6  N   UNL     1      -1.675   3.081   3.113  0.00  0.00    -0.255 N 
ATOM      7  C   UNL     1      -2.354   2.823   1.956  0.00  0.00    +0.207 A 
ATOM      8  N   UNL     1      -1.722   2.627   0.823  0.00  0.00    -0.221 NA
ATOM      9  N   UNL     1      -3.734   2.795   2.031  0.00  0.00    -0.259 N 
ATOM     10  C   UNL     1      -4.318   3.692   2.919  0.00  0.00    +0.166 C 
ATOM     11  C   UNL     1      -2.442   3.248   4.351  0.00  0.00    +0.220 C 
ATOM     12  N   UNL     1      -5.514   4.304   2.620  0.00  0.00    -0.287 N 
ATOM     13  H   UNL     1      -4.264   2.185   1.495  0.00  0.00    +0.158 HD
ATOM     14  H   UNL     1      -6.011   4.037   1.831  0.00  0.00    +0.155 HD
ATOM     15  N   UNL     1      -3.728   3.986   4.088  0.00  0.00    -0.336 N 
ATOM     16  H   UNL     1      -4.124   4.661   4.753  0.00  0.00    +0.164 HD
ENDROOT
BRANCH  12  17
ATOM     17  C   UNL     1      -6.014   5.309   3.455  0.00  0.00    +0.052 A 
ATOM     18  C   UNL     1      -5.156   6.006   4.295  0.00  0.00    +0.025 A 
ATOM     19  C   UNL     1      -5.651   7.002   5.115  0.00  0.00    +0.002 A 
ATOM     20  C   UNL     1      -7.002   7.298   5.107  0.00  0.00    +0.002 A 
ATOM     21  C   UNL     1      -7.861   6.602   4.276  0.00  0.00    +0.022 A 
ATOM     22  C   UNL     1      -7.371   5.608   3.450  0.00  0.00    +0.062 A 
ATOM     23 CL   UNL     1      -8.449   4.736   2.406  0.00  0.00    -0.082 Cl
ENDBRANCH  12  17
BRANCH  11  24
ATOM     24  C   UNL     1      -2.741   1.896   4.945  0.00  0.00    -0.005 A 
ATOM     25  C   UNL     1      -1.870   0.843   4.741  0.00  0.00    +0.007 A 
ATOM     26  C   UNL     1      -2.143  -0.397   5.290  0.00  0.00    +0.000 A 
ATOM     27  C   UNL     1      -3.292  -0.585   6.034  0.00  0.00    +0.000 A 
ATOM     28  C   UNL     1      -4.166   0.467   6.234  0.00  0.00    +0.000 A 
ATOM     29  C   UNL     1      -3.891   1.707   5.690  0.00  0.00    +0.007 A 
ENDBRANCH  11  24
TORSDOF 2
