REMARK  Name = ZINC02252574
REMARK  7 active torsions:
REMARK  status: ('A' for Active; 'I' for Inactive)
REMARK    1  A    between atoms: C_1  and  C_2
REMARK    2  A    between atoms: C_5  and  S_8
REMARK    3  A    between atoms: S_8  and  N_11
REMARK    4  A    between atoms: N_22  and  C_23
REMARK    5  A    between atoms: C_24  and  C_32
REMARK    6  A    between atoms: C_32  and  O_34
REMARK    7  A    between atoms: O_34  and  C_35
REMARK                            x       y       z     vdW  Elec       q    Type
REMARK                         _______ _______ _______ _____ _____    ______ ____
ROOT
ATOM      1  N   UNL     1      -2.669   9.544  -2.379  0.00  0.00    -0.197 N 
ATOM      2  C   UNL     1      -2.645   8.542  -3.337  0.00  0.00    +0.179 A 
ATOM      3  C   UNL     1      -2.288   7.223  -2.966  0.00  0.00    +0.166 A 
ATOM      4  N   UNL     1      -2.266   6.261  -3.865  0.00  0.00    -0.227 NA
ATOM      5  C   UNL     1      -2.578   6.533  -5.141  0.00  0.00    +0.091 A 
ATOM      6  C   UNL     1      -2.561   5.524  -6.118  0.00  0.00    +0.030 A 
ATOM      7  C   UNL     1      -2.882   5.826  -7.407  0.00  0.00    +0.002 A 
ATOM      8  C   UNL     1      -3.228   7.124  -7.772  0.00  0.00    +0.002 A 
ATOM      9  C   UNL     1      -3.254   8.127  -6.851  0.00  0.00    +0.030 A 
ATOM     10  C   UNL     1      -2.929   7.853  -5.513  0.00  0.00    +0.091 A 
ATOM     11  N   UNL     1      -2.948   8.824  -4.587  0.00  0.00    -0.226 NA
ATOM     12  N   UNL     1      -1.966   6.941  -1.646  0.00  0.00    -0.291 N 
ATOM     13  H   UNL     1      -2.443   9.340  -1.458  0.00  0.00    +0.175 HD
ATOM     14  H   UNL     1      -1.982   7.647  -0.982  0.00  0.00    +0.154 HD
ENDROOT
BRANCH  12  15
ATOM     15  C   UNL     1      -1.623   5.653  -1.278  0.00  0.00    +0.085 A 
ATOM     16  C   UNL     1      -1.272   5.178  -0.020  0.00  0.00    +0.091 A 
ATOM     17  C   UNL     1      -0.952   3.765   0.099  0.00  0.00    -0.021 A 
ATOM     18  C   UNL     1      -1.032   3.059  -1.049  0.00  0.00    -0.004 A 
ATOM     19  S   UNL     1      -1.524   4.239  -2.274  0.00  0.00    -0.077 S 
ATOM     20  C   UNL     1      -0.761   1.597  -1.232  0.00  0.00    +0.043 C 
ATOM     21  C   UNL     1      -0.013   1.086   0.008  0.00  0.00    +0.005 C 
ATOM     22  C   UNL     1      -0.735   1.583   1.264  0.00  0.00    +0.005 C 
ATOM     23  C   UNL     1      -0.551   3.094   1.407  0.00  0.00    +0.037 C 
BRANCH  16  24
ATOM     24  C   UNL     1      -1.228   6.067   1.142  0.00  0.00    +0.342 C 
ATOM     25  O   UNL     1      -2.221   6.224   1.826  0.00  0.00    -0.245 OA
BRANCH  24  26
ATOM     26  O   UNL     1      -0.085   6.712   1.454  0.00  0.00    -0.464 OA
ATOM     27  C   UNL     1      -0.114   7.577   2.620  0.00  0.00    +0.280 C 
ENDBRANCH  24  26
ENDBRANCH  16  24
ENDBRANCH  12  15
BRANCH   1  28
ATOM     28  S   UNL     1      -3.086  11.088  -2.807  0.00  0.00    +0.074 S 
ATOM     29  O   UNL     1      -3.044  11.865  -1.618  0.00  0.00    -0.150 OA
ATOM     30  O   UNL     1      -2.315  11.413  -3.956  0.00  0.00    -0.150 OA
BRANCH  28  35
ATOM     31  C   UNL     1      -8.852  10.956  -4.580  0.00  0.00    +0.044 C 
ATOM     32  C   UNL     1      -7.412  10.989  -4.137  0.00  0.00    -0.050 A 
ATOM     33  C   UNL     1      -7.102  11.221  -2.810  0.00  0.00    +0.005 A 
ATOM     34  C   UNL     1      -5.780  11.251  -2.404  0.00  0.00    +0.029 A 
ATOM     35  C   UNL     1      -4.770  11.050  -3.325  0.00  0.00    +0.109 A 
ATOM     36  C   UNL     1      -5.080  10.823  -4.653  0.00  0.00    +0.029 A 
ATOM     37  C   UNL     1      -6.401  10.788  -5.058  0.00  0.00    +0.005 A 
ENDBRANCH  28  35
ENDBRANCH   1  28
TORSDOF 5
