REMARK  Name = ZINC09281305
REMARK  6 active torsions:
REMARK  status: ('A' for Active; 'I' for Inactive)
REMARK    1  A    between atoms: C_1  and  C_2
REMARK    2  A    between atoms: C_14  and  C_35
REMARK    3  A    between atoms: N_16  and  C_17
REMARK    4  A    between atoms: C_17  and  C_19
REMARK    5  A    between atoms: N_27  and  C_28
REMARK    6  A    between atoms: C_28  and  C_29
REMARK                            x       y       z     vdW  Elec       q    Type
REMARK                         _______ _______ _______ _____ _____    ______ ____
ROOT
ATOM      1  C   UNL     1       0.512   1.712   0.580  0.00  0.00    +0.047 C 
ATOM      2  C   UNL     1       0.491   0.206   0.525  0.00  0.00    -0.007 A 
ATOM      3  C   UNL     1       0.657  -0.439  -0.664  0.00  0.00    +0.008 A 
ATOM      4  C   UNL     1       0.636  -1.840  -0.701  0.00  0.00    +0.019 A 
ATOM      5  C   UNL     1       0.451  -2.544   0.439  0.00  0.00    +0.096 A 
ATOM      6  N   UNL     1       0.284  -1.908   1.633  0.00  0.00    -0.267 N 
ATOM      7  C   UNL     1       0.305  -0.543   1.703  0.00  0.00    +0.145 A 
ATOM      8  N   UNL     1       0.150   0.109   2.856  0.00  0.00    -0.211 NA
ATOM      9  C   UNL     1      -0.030  -0.521   4.007  0.00  0.00    +0.150 A 
ATOM     10  C   UNL     1      -0.059  -1.937   4.021  0.00  0.00    +0.084 A 
ATOM     11  C   UNL     1       0.102  -2.647   2.752  0.00  0.00    +0.268 A 
ATOM     12  O   UNL     1       0.085  -3.864   2.706  0.00  0.00    -0.267 OA
ATOM     13  C   UNL     1      -0.248  -2.624   5.223  0.00  0.00    +0.039 A 
ATOM     14  C   UNL     1      -0.407  -1.897   6.401  0.00  0.00    +0.093 A 
ATOM     15  C   UNL     1      -0.374  -0.481   6.360  0.00  0.00    +0.146 A 
ATOM     16  N   UNL     1      -0.525   0.215   7.485  0.00  0.00    -0.158 NA
ATOM     17  N   UNL     1      -0.186   0.177   5.176  0.00  0.00    -0.308 N 
ENDROOT
BRANCH  16  18
ATOM     18  C   UNL     1       0.204   1.316   7.692  0.00  0.00    +0.270 C 
ATOM     19  O   UNL     1       1.417   1.275   7.578  0.00  0.00    -0.268 OA
BRANCH  18  20
ATOM     20  C   UNL     1      -0.462   2.585   8.060  0.00  0.00    +0.057 A 
ATOM     21  C   UNL     1      -1.833   2.608   8.320  0.00  0.00    +0.016 A 
ATOM     22  C   UNL     1      -2.448   3.793   8.663  0.00  0.00    +0.021 A 
ATOM     23  C   UNL     1      -1.708   4.961   8.750  0.00  0.00    +0.042 A 
ATOM     24  C   UNL     1      -0.348   4.947   8.494  0.00  0.00    +0.040 A 
ATOM     25  C   UNL     1       0.280   3.764   8.155  0.00  0.00    +0.055 A 
ATOM     26 CL   UNL     1       1.987   3.746   7.841  0.00  0.00    -0.083 Cl
ATOM     27 CL   UNL     1      -2.491   6.450   9.182  0.00  0.00    -0.083 Cl
ENDBRANCH  18  20
ENDBRANCH  16  18
BRANCH  14  28
ATOM     28  C   UNL     1      -0.603  -2.576   7.646  0.00  0.00    +0.103 C 
ATOM     29  N   UNL     1      -0.758  -3.115   8.634  0.00  0.00    -0.191 NA
ENDBRANCH  14  28
BRANCH  17  30
ATOM     30  C   UNL     1      -0.155   1.642   5.157  0.00  0.00    +0.156 C 
BRANCH  30  31
ATOM     31  C   UNL     1      -1.586   2.183   5.170  0.00  0.00    +0.138 C 
ATOM     32  C   UNL     1      -1.578   3.728   5.053  0.00  0.00    +0.035 C 
ATOM     33  C   UNL     1      -2.985   3.986   4.448  0.00  0.00    +0.031 C 
ATOM     34  C   UNL     1      -3.183   2.751   3.542  0.00  0.00    +0.160 C 
ATOM     35  O   UNL     1      -2.304   1.721   4.014  0.00  0.00    -0.375 OA
ENDBRANCH  30  31
ENDBRANCH  17  30
TORSDOF 5
