REMARK  Name = ZINC03773514
REMARK  11 active torsions:
REMARK  status: ('A' for Active; 'I' for Inactive)
REMARK    1  A    between atoms: C_1  and  N_2
REMARK    2  A    between atoms: N_2  and  C_3
REMARK    3  A    between atoms: N_2  and  C_4
REMARK    4  A    between atoms: C_7  and  N_10
REMARK    5  A    between atoms: C_11  and  C_13
REMARK    6  A    between atoms: C_13  and  C_15
REMARK    7  A    between atoms: C_13  and  N_20
REMARK    8  A    between atoms: N_20  and  C_21
REMARK    9  A    between atoms: C_21  and  C_22
REMARK   10  A    between atoms: C_28  and  C_30
REMARK   11  A    between atoms: C_30  and  N_31
REMARK                            x       y       z     vdW  Elec       q    Type
REMARK                         _______ _______ _______ _____ _____    ______ ____
ROOT
ATOM      1  N   UNL     1       4.806  -1.169  -1.089  0.00  0.00    -0.280 N 
ATOM      2  C   UNL     1       4.348  -2.349  -1.555  0.00  0.00    +0.235 C 
ATOM      3  O   UNL     1       4.256  -2.534  -2.750  0.00  0.00    -0.274 OA
ENDROOT
BRANCH   1   4
ATOM      4  C   UNL     1       5.298  -0.154  -2.023  0.00  0.00    +0.199 C 
BRANCH   4   5
ATOM      5  C   UNL     1       6.697   0.251  -1.633  0.00  0.00    +0.019 A 
ATOM      6  C   UNL     1       7.754   0.545  -2.429  0.00  0.00    +0.013 A 
ATOM      7  C   UNL     1       8.955   0.899  -1.845  0.00  0.00    +0.008 A 
ATOM      8  C   UNL     1       9.044   0.932  -0.492  0.00  0.00    +0.045 A 
ATOM      9  S   UNL     1       7.393   0.459  -0.003  0.00  0.00    -0.099 S 
ENDBRANCH   4   5
BRANCH   4  11
ATOM     10  N   UNL     1       4.547   2.041  -2.880  0.00  0.00    -0.284 N 
ATOM     11  C   UNL     1       4.395   1.051  -1.978  0.00  0.00    +0.243 C 
ATOM     12  O   UNL     1       3.532   1.131  -1.129  0.00  0.00    -0.273 OA
ATOM     13  H   UNL     1       5.185   1.944  -3.604  0.00  0.00    +0.155 HD
BRANCH  10  17
ATOM     14  C   UNL     1       2.274   5.523  -2.556  0.00  0.00    +0.029 A 
ATOM     15  C   UNL     1       3.588   5.591  -2.999  0.00  0.00    +0.025 A 
ATOM     16  C   UNL     1       4.341   4.438  -3.106  0.00  0.00    +0.025 A 
ATOM     17  C   UNL     1       3.783   3.211  -2.771  0.00  0.00    +0.034 A 
ATOM     18  C   UNL     1       2.467   3.143  -2.333  0.00  0.00    +0.025 A 
ATOM     19  C   UNL     1       1.716   4.296  -2.220  0.00  0.00    +0.025 A 
BRANCH  14  21
ATOM     20  C   UNL     1       2.074   7.975  -2.872  0.00  0.00    +0.129 C 
ATOM     21  N   UNL     1       1.512   6.691  -2.447  0.00  0.00    -0.336 N 
ATOM     22  C   UNL     1       0.151   6.630  -1.907  0.00  0.00    +0.129 C 
ENDBRANCH  14  21
ENDBRANCH  10  17
ENDBRANCH   4  11
ENDBRANCH   1   4
BRANCH   1  23
ATOM     23  C   UNL     1       4.809  -0.903   0.351  0.00  0.00    +0.144 C 
BRANCH  23  24
ATOM     24  C   UNL     1       3.472  -1.279   0.935  0.00  0.00    -0.030 A 
ATOM     25  C   UNL     1       3.320  -2.484   1.595  0.00  0.00    +0.005 A 
ATOM     26  C   UNL     1       2.094  -2.829   2.131  0.00  0.00    +0.000 A 
ATOM     27  C   UNL     1       1.018  -1.969   2.007  0.00  0.00    +0.000 A 
ATOM     28  C   UNL     1       1.170  -0.764   1.347  0.00  0.00    +0.000 A 
ATOM     29  C   UNL     1       2.397  -0.419   0.811  0.00  0.00    +0.005 A 
ENDBRANCH  23  24
ENDBRANCH   1  23
BRANCH   2  30
ATOM     30  C   UNL     1       3.953  -3.437  -0.591  0.00  0.00    +0.210 C 
BRANCH  30  31
ATOM     31  N   UNL     1       3.675  -4.670  -1.333  0.00  0.00    -0.255 N 
ATOM     32  C   UNL     1       4.630  -5.640  -1.628  0.00  0.00    +0.048 A 
ATOM     33  C   UNL     1       5.985  -5.713  -1.333  0.00  0.00    +0.024 A 
ATOM     34  C   UNL     1       6.728  -6.803  -1.746  0.00  0.00    +0.002 A 
ATOM     35  C   UNL     1       6.136  -7.835  -2.456  0.00  0.00    +0.001 A 
ATOM     36  C   UNL     1       4.790  -7.783  -2.758  0.00  0.00    +0.014 A 
ATOM     37  C   UNL     1       4.032  -6.687  -2.348  0.00  0.00    +0.048 A 
ATOM     38  C   UNL     1       2.609  -6.332  -2.505  0.00  0.00    +0.250 C 
ATOM     39  O   UNL     1       1.744  -6.971  -3.067  0.00  0.00    -0.282 OA
ATOM     40  C   UNL     1       2.465  -5.010  -1.811  0.00  0.00    +0.292 C 
ATOM     41  O   UNL     1       1.444  -4.364  -1.703  0.00  0.00    -0.266 OA
ENDBRANCH  30  31
ENDBRANCH   2  30
TORSDOF 9
