REMARK  Name = ZINC10058972
REMARK  12 active torsions:
REMARK  status: ('A' for Active; 'I' for Inactive)
REMARK    1  A    between atoms: C_1  and  C_2
REMARK    2  A    between atoms: C_2  and  C_3
REMARK    3  A    between atoms: C_2  and  C_4
REMARK    4  A    between atoms: C_2  and  C_5
REMARK    5  A    between atoms: C_14  and  O_38
REMARK    6  A    between atoms: C_16  and  C_19
REMARK    7  A    between atoms: C_22  and  O_25
REMARK    8  A    between atoms: O_25  and  C_26
REMARK    9  A    between atoms: C_26  and  C_28
REMARK   10  A    between atoms: C_29  and  C_30
REMARK   11  A    between atoms: C_33  and  O_36
REMARK   12  A    between atoms: O_36  and  C_37
REMARK                            x       y       z     vdW  Elec       q    Type
REMARK                         _______ _______ _______ _____ _____    ______ ____
ROOT
ATOM      1  C   UNL     1       1.498   6.232  -0.261  0.00  0.00    -0.000 C 
ATOM      2  C   UNL     1       0.368   5.629  -1.101  0.00  0.00    +0.009 C 
ATOM      3  C   UNL     1      -0.108   4.320  -0.470  0.00  0.00    +0.037 C 
ATOM      4  C   UNL     1       1.098   3.417  -0.241  0.00  0.00    -0.023 A 
ATOM      5  C   UNL     1       2.351   3.926  -0.226  0.00  0.00    -0.004 A 
ATOM      6  S   UNL     1       3.406   2.530   0.069  0.00  0.00    -0.078 S 
ATOM      7  C   UNL     1       2.211   1.310   0.171  0.00  0.00    +0.080 A 
ATOM      8  C   UNL     1       1.000   1.983  -0.028  0.00  0.00    +0.068 A 
ATOM      9  C   UNL     1      -0.243   1.170  -0.004  0.00  0.00    +0.220 C 
ATOM     10  N   UNL     1      -0.119  -0.129   0.000  0.00  0.00    -0.223 NA
ATOM     11  C   UNL     1       1.145  -0.844  -0.119  0.00  0.00    +0.224 C 
ATOM     12  N   UNL     1       2.274  -0.044   0.393  0.00  0.00    -0.313 N 
ATOM     13  C   UNL     1       2.749   5.356  -0.415  0.00  0.00    +0.046 C 
ATOM     14  H   UNL     1       3.019  -0.452   0.860  0.00  0.00    +0.149 HD
ENDROOT
BRANCH  11  15
ATOM     15  C   UNL     1       1.392  -1.167  -1.570  0.00  0.00    -0.005 A 
ATOM     16  C   UNL     1       2.687  -1.250  -2.048  0.00  0.00    +0.011 A 
ATOM     17  C   UNL     1       2.916  -1.553  -3.376  0.00  0.00    +0.047 A 
ATOM     18  C   UNL     1       1.845  -1.762  -4.233  0.00  0.00    +0.132 A 
ATOM     19  C   UNL     1       0.547  -1.672  -3.753  0.00  0.00    +0.047 A 
ATOM     20  C   UNL     1       0.324  -1.375  -2.422  0.00  0.00    +0.011 A 
BRANCH  18  21
ATOM     21  O   UNL     1       2.068  -2.053  -5.542  0.00  0.00    -0.423 OA
BRANCH  21  22
ATOM     22  C   UNL     1       1.741  -1.122  -6.463  0.00  0.00    +0.337 C 
ATOM     23  O   UNL     1       1.361  -0.022  -6.108  0.00  0.00    -0.245 OA
BRANCH  22  24
ATOM     24  C   UNL     1       1.841  -1.426  -7.844  0.00  0.00    +0.092 C 
ATOM     25  C   UNL     1       1.514  -0.494  -8.766  0.00  0.00    +0.015 C 
BRANCH  25  26
ATOM     26  C   UNL     1       1.617  -0.809 -10.198  0.00  0.00    -0.025 A 
ATOM     27  C   UNL     1       2.059  -2.072 -10.609  0.00  0.00    +0.011 A 
ATOM     28  C   UNL     1       2.149  -2.364 -11.951  0.00  0.00    +0.046 A 
ATOM     29  C   UNL     1       1.812  -1.403 -12.898  0.00  0.00    +0.120 A 
ATOM     30  C   UNL     1       1.377  -0.146 -12.495  0.00  0.00    +0.046 A 
ATOM     31  C   UNL     1       1.278   0.154 -11.155  0.00  0.00    +0.011 A 
BRANCH  29  32
ATOM     32  O   UNL     1       1.908  -1.694 -14.220  0.00  0.00    -0.495 OA
ATOM     33  C   UNL     1       2.362  -3.004 -14.565  0.00  0.00    +0.277 C 
ENDBRANCH  29  32
ENDBRANCH  25  26
ENDBRANCH  22  24
ENDBRANCH  21  22
ENDBRANCH  18  21
ENDBRANCH  11  15
BRANCH   1  35
ATOM     34  C   UNL     1       2.210   7.606  -2.222  0.00  0.00    +0.011 C 
ATOM     35  C   UNL     1       1.800   7.650  -0.749  0.00  0.00    -0.035 C 
ATOM     36  C   UNL     1       0.551   8.520  -0.593  0.00  0.00    +0.011 C 
ATOM     37  C   UNL     1       2.941   8.243   0.081  0.00  0.00    +0.011 C 
ENDBRANCH   1  35
BRANCH   9  38
ATOM     38  O   UNL     1      -1.462   1.756   0.009  0.00  0.00    -0.492 OA
ATOM     39  H   UNL     1      -2.200   1.130   0.020  0.00  0.00    +0.294 HD
ENDBRANCH   9  38
TORSDOF 8
