REMARK  Name = ZINC15306773
REMARK  10 active torsions:
REMARK  status: ('A' for Active; 'I' for Inactive)
REMARK    1  A    between atoms: C_1  and  C_2
REMARK    2  A    between atoms: C_2  and  N_3
REMARK    3  A    between atoms: N_3  and  C_4
REMARK    4  A    between atoms: N_3  and  C_6
REMARK    5  A    between atoms: C_4  and  C_5
REMARK    6  A    between atoms: C_9  and  C_13
REMARK    7  A    between atoms: C_10  and  O_12
REMARK    8  A    between atoms: N_21  and  C_24
REMARK    9  A    between atoms: C_30  and  C_32
REMARK   10  A    between atoms: C_30  and  C_33
REMARK                            x       y       z     vdW  Elec       q    Type
REMARK                         _______ _______ _______ _____ _____    ______ ____
ROOT
ATOM      1  C   UNL     1      -3.852  -1.320   5.263  0.00  0.00    -0.023 C 
ATOM      2  C   UNL     1      -3.829  -2.862   5.320  0.00  0.00    +0.077 C 
ATOM      3  C   UNL     1      -3.771  -3.204   6.833  0.00  0.00    +0.086 C 
ATOM      4  C   UNL     1      -2.415  -3.855   6.992  0.00  0.00    +0.229 C 
ATOM      5  O   UNL     1      -1.960  -4.280   8.032  0.00  0.00    -0.275 OA
ATOM      6  N   UNL     1      -1.798  -3.890   5.806  0.00  0.00    -0.210 N 
ATOM      7  C   UNL     1      -2.506  -3.360   4.782  0.00  0.00    +0.229 C 
ATOM      8  O   UNL     1      -2.149  -3.291   3.626  0.00  0.00    -0.275 OA
ATOM      9  C   UNL     1      -3.780  -1.837   7.548  0.00  0.00    +0.045 C 
ATOM     10  N   UNL     1      -3.230  -0.884   6.539  0.00  0.00    +0.395 N 
ATOM     11  C   UNL     1      -5.206  -1.455   7.950  0.00  0.00    +0.002 C 
ATOM     12  H   UNL     1      -2.225  -0.955   6.485  0.00  0.00    -0.083 HD
ATOM     13  H   UNL     1      -3.506   0.060   6.762  0.00  0.00    -0.083 HD
ENDROOT
BRANCH   1  17
ATOM     14  C   UNL     1      -1.561   0.081   1.934  0.00  0.00    +0.033 A 
ATOM     15  C   UNL     1      -0.956  -0.099   3.172  0.00  0.00    +0.023 A 
ATOM     16  C   UNL     1      -1.699  -0.552   4.245  0.00  0.00    +0.007 A 
ATOM     17  C   UNL     1      -3.045  -0.826   4.090  0.00  0.00    -0.019 A 
ATOM     18  C   UNL     1      -3.654  -0.648   2.856  0.00  0.00    +0.120 A 
ATOM     19  C   UNL     1      -2.913  -0.190   1.778  0.00  0.00    +0.068 A 
BRANCH  18  20
ATOM     20  O   UNL     1      -4.977  -0.918   2.706  0.00  0.00    -0.506 OA
ATOM     21  H   UNL     1      -5.555  -0.163   2.879  0.00  0.00    +0.292 HD
ENDBRANCH  18  20
BRANCH  14  22
ATOM     22  N   UNL     1      -0.810   0.538   0.849  0.00  0.00    -0.330 N 
BRANCH  22  24
ATOM     23  C   UNL     1       0.801   2.284   1.429  0.00  0.00    +0.024 C 
ATOM     24  C   UNL     1       0.618   0.823   1.014  0.00  0.00    +0.102 C 
ENDBRANCH  22  24
BRANCH  22  25
ATOM     25  C   UNL     1      -1.449   0.733  -0.455  0.00  0.00    +0.102 C 
ATOM     26  C   UNL     1      -1.359  -0.561  -1.266  0.00  0.00    +0.024 C 
ENDBRANCH  22  25
ENDBRANCH  14  22
ENDBRANCH   1  17
BRANCH   6  27
ATOM     27  C   UNL     1      -0.519  -4.438   5.633  0.00  0.00    +0.044 A 
ATOM     28  C   UNL     1      -0.353  -5.596   4.886  0.00  0.00    +0.024 A 
ATOM     29  C   UNL     1       0.908  -6.134   4.718  0.00  0.00    +0.002 A 
ATOM     30  C   UNL     1       2.005  -5.518   5.292  0.00  0.00    +0.000 A 
ATOM     31  C   UNL     1       1.844  -4.364   6.036  0.00  0.00    +0.002 A 
ATOM     32  C   UNL     1       0.586  -3.819   6.203  0.00  0.00    +0.024 A 
ENDBRANCH   6  27
BRANCH   9  33
ATOM     33  C   UNL     1      -2.884  -1.871   8.759  0.00  0.00    +0.346 C 
ATOM     34  O   UNL     1      -1.936  -1.108   8.839  0.00  0.00    -0.248 OA
ATOM     35  O   UNL     1      -3.106  -2.663   9.660  0.00  0.00    -0.248 OA
ENDBRANCH   9  33
TORSDOF 7
