REMARK  Name = ZINC23304276
REMARK  10 active torsions:
REMARK  status: ('A' for Active; 'I' for Inactive)
REMARK    1  A    between atoms: C_1  and  C_2
REMARK    2  A    between atoms: C_2  and  C_3
REMARK    3  A    between atoms: C_2  and  C_4
REMARK    4  A    between atoms: C_2  and  C_5
REMARK    5  A    between atoms: C_8  and  C_11
REMARK    6  A    between atoms: C_11  and  O_12
REMARK    7  A    between atoms: O_12  and  C_13
REMARK    8  A    between atoms: C_16  and  C_20
REMARK    9  A    between atoms: C_20  and  N_21
REMARK   10  A    between atoms: C_28  and  C_30
REMARK                            x       y       z     vdW  Elec       q    Type
REMARK                         _______ _______ _______ _____ _____    ______ ____
ROOT
ATOM      1  C   UNL     1       1.260   3.366  -0.729  0.00  0.00    -0.003 C 
ENDROOT
BRANCH   1   2
ATOM      2  N   UNL     1       1.294   2.084  -0.013  0.00  0.00    +0.385 N 
ATOM      3  C   UNL     1      -0.028   1.458   0.006  0.00  0.00    -0.077 C 
ATOM      4  C   UNL     1      -0.004  -0.017   0.007  0.00  0.00    +0.000 C 
ATOM      5  C   UNL     1       0.702  -0.528   1.288  0.00  0.00    +0.106 C 
ATOM      6  N   UNL     1       2.113  -0.218   1.219  0.00  0.00    -0.300 N 
ATOM      7  C   UNL     1       2.681   1.054   1.714  0.00  0.00    +0.089 C 
ATOM      8  C   UNL     1       1.796   2.255   1.334  0.00  0.00    -0.059 C 
ATOM      9  C   UNL     1       2.947  -1.129   0.679  0.00  0.00    +0.260 C 
ATOM     10  O   UNL     1       2.523  -2.214   0.342  0.00  0.00    -0.271 OA
ATOM     11  H   UNL     1       1.987   1.412  -0.540  0.00  0.00    -0.081 HD
BRANCH   9  12
ATOM     12  C   UNL     1       4.406  -0.799   0.495  0.00  0.00    +0.296 C 
ATOM     13  C   UNL     1       5.101  -0.745   1.863  0.00  0.00    +0.283 C 
ATOM     14  O   UNL     1       6.484  -0.444   1.651  0.00  0.00    -0.484 OA
ATOM     15  C   UNL     1       7.121  -1.145   0.673  0.00  0.00    +0.162 A 
ATOM     16  C   UNL     1       8.507  -1.174   0.649  0.00  0.00    +0.049 A 
ATOM     17  C   UNL     1       9.167  -1.879  -0.340  0.00  0.00    +0.004 A 
ATOM     18  C   UNL     1       8.448  -2.557  -1.307  0.00  0.00    +0.004 A 
ATOM     19  C   UNL     1       7.066  -2.533  -1.287  0.00  0.00    +0.049 A 
ATOM     20  C   UNL     1       6.398  -1.828  -0.297  0.00  0.00    +0.163 A 
ATOM     21  O   UNL     1       5.036  -1.818  -0.288  0.00  0.00    -0.473 OA
ENDBRANCH   9  12
ENDBRANCH   1   2
BRANCH   1  25
ATOM     22  C   UNL     1       4.897   5.459  -0.061  0.00  0.00    +0.202 A 
ATOM     23  C   UNL     1       3.827   5.600   0.752  0.00  0.00    +0.244 A 
ATOM     24  O   UNL     1       2.690   4.932   0.514  0.00  0.00    -0.466 OA
ATOM     25  C   UNL     1       2.563   4.093  -0.520  0.00  0.00    +0.092 A 
ATOM     26  C   UNL     1       3.580   3.892  -1.382  0.00  0.00    +0.094 A 
ATOM     27  C   UNL     1       4.802   4.581  -1.176  0.00  0.00    +0.226 A 
ATOM     28  O   UNL     1       5.746   4.425  -1.935  0.00  0.00    -0.284 OA
BRANCH  22  29
ATOM     29  O   UNL     1       6.047   6.145   0.184  0.00  0.00    -0.481 OA
BRANCH  29  30
ATOM     30  C   UNL     1       6.059   7.006   1.324  0.00  0.00    +0.264 C 
BRANCH  30  34
ATOM     31  C   UNL     1       9.872   8.906   1.635  0.00  0.00    -0.042 A 
ATOM     32  C   UNL     1       8.860   9.502   0.906  0.00  0.00    +0.004 A 
ATOM     33  C   UNL     1       7.626   8.887   0.806  0.00  0.00    +0.007 A 
ATOM     34  C   UNL     1       7.404   7.676   1.434  0.00  0.00    -0.010 A 
ATOM     35  C   UNL     1       8.415   7.082   2.166  0.00  0.00    +0.007 A 
ATOM     36  C   UNL     1       9.650   7.694   2.263  0.00  0.00    +0.004 A 
BRANCH  31  38
ATOM     37  C   UNL     1      11.052  10.949   2.397  0.00  0.00    +0.015 C 
ATOM     38  C   UNL     1      11.218   9.576   1.744  0.00  0.00    -0.013 C 
ATOM     39  C   UNL     1      12.149   8.714   2.599  0.00  0.00    +0.015 C 
ATOM     40  C   UNL     1      11.818   9.745   0.347  0.00  0.00    +0.015 C 
ENDBRANCH  31  38
ENDBRANCH  30  34
ENDBRANCH  29  30
ENDBRANCH  22  29
ENDBRANCH   1  25
TORSDOF 7
