REMARK  Name = ZINC36549961
REMARK  8 active torsions:
REMARK  status: ('A' for Active; 'I' for Inactive)
REMARK    1  A    between atoms: C_4  and  O_37
REMARK    2  A    between atoms: C_5  and  C_7
REMARK    3  A    between atoms: C_7  and  C_9
REMARK    4  A    between atoms: C_7  and  N_18
REMARK    5  A    between atoms: N_11  and  C_12
REMARK    6  A    between atoms: N_18  and  C_19
REMARK    7  A    between atoms: C_26  and  C_28
REMARK    8  A    between atoms: C_31  and  N_34
REMARK                            x       y       z     vdW  Elec       q    Type
REMARK                         _______ _______ _______ _____ _____    ______ ____
ROOT
ATOM      1  C   UNL     1       1.217  -2.116   0.038  0.00  0.00    +0.201 C 
ENDROOT
BRANCH   1   6
ATOM      2  C   UNL     1      -0.913   0.994   0.257  0.00  0.00    +0.001 A 
ATOM      3  C   UNL     1       0.048   1.986   0.331  0.00  0.00    +0.004 A 
ATOM      4  C   UNL     1       1.389   1.654   0.311  0.00  0.00    +0.046 A 
ATOM      5  C   UNL     1       1.771   0.323   0.216  0.00  0.00    +0.122 A 
ATOM      6  C   UNL     1       0.805  -0.670   0.142  0.00  0.00    +0.024 A 
ATOM      7  C   UNL     1      -0.534  -0.332   0.162  0.00  0.00    +0.009 A 
BRANCH   5   8
ATOM      8  O   UNL     1       3.089  -0.006   0.196  0.00  0.00    -0.506 OA
ATOM      9  H   UNL     1       3.489  -0.084   1.073  0.00  0.00    +0.292 HD
ENDBRANCH   5   8
ENDBRANCH   1   6
BRANCH   1  10
ATOM     10  C   UNL     1       1.377  -2.693   1.421  0.00  0.00    +0.239 C 
ATOM     11  O   UNL     1       0.756  -3.685   1.740  0.00  0.00    -0.273 OA
ATOM     12  N   UNL     1       2.209  -2.106   2.304  0.00  0.00    -0.311 N 
ATOM     13  H   UNL     1       2.649  -1.273   2.076  0.00  0.00    +0.149 HD
BRANCH  12  14
ATOM     14  C   UNL     1       2.449  -2.728   3.609  0.00  0.00    +0.073 C 
ATOM     15  C   UNL     1       1.350  -2.304   4.586  0.00  0.00    +0.022 C 
ATOM     16  C   UNL     1       1.601  -2.954   5.949  0.00  0.00    +0.002 C 
ATOM     17  C   UNL     1       2.962  -2.504   6.485  0.00  0.00    +0.000 C 
ATOM     18  C   UNL     1       4.060  -2.928   5.508  0.00  0.00    +0.002 C 
ATOM     19  C   UNL     1       3.810  -2.279   4.146  0.00  0.00    +0.022 C 
ENDBRANCH  12  14
ENDBRANCH   1  10
BRANCH   1  20
ATOM     20  N   UNL     1       0.189  -2.865  -0.688  0.00  0.00    -0.250 N 
ATOM     21  C   UNL     1      -0.044  -2.601  -1.989  0.00  0.00    +0.252 C 
ATOM     22  O   UNL     1       0.659  -1.809  -2.584  0.00  0.00    -0.270 OA
BRANCH  20  23
ATOM     23  C   UNL     1      -0.550  -3.855  -0.031  0.00  0.00    +0.056 A 
ATOM     24  C   UNL     1      -1.648  -3.505   0.743  0.00  0.00    +0.025 A 
ATOM     25  C   UNL     1      -2.376  -4.485   1.389  0.00  0.00    +0.002 A 
ATOM     26  C   UNL     1      -2.012  -5.814   1.267  0.00  0.00    +0.002 A 
ATOM     27  C   UNL     1      -0.919  -6.166   0.498  0.00  0.00    +0.022 A 
ATOM     28  C   UNL     1      -0.190  -5.192  -0.157  0.00  0.00    +0.062 A 
ATOM     29 CL   UNL     1       1.179  -5.636  -1.129  0.00  0.00    -0.082 Cl
ENDBRANCH  20  23
BRANCH  21  30
ATOM     30  C   UNL     1      -1.157  -3.275  -2.692  0.00  0.00    +0.037 A 
ATOM     31  C   UNL     1      -2.412  -3.371  -2.088  0.00  0.00    +0.015 A 
ATOM     32  C   UNL     1      -3.445  -4.002  -2.750  0.00  0.00    +0.033 A 
ATOM     33  C   UNL     1      -3.240  -4.539  -4.008  0.00  0.00    +0.126 A 
ATOM     34  C   UNL     1      -1.998  -4.447  -4.612  0.00  0.00    +0.033 A 
ATOM     35  C   UNL     1      -0.958  -3.814  -3.964  0.00  0.00    +0.015 A 
BRANCH  33  36
ATOM     36  N   UNL     1      -4.353  -5.215  -4.711  0.00  0.00    +0.056 N 
ATOM     37  O   UNL     1      -5.439  -5.296  -4.186  0.00  0.00    -0.126 OA
ATOM     38  O   UNL     1      -4.176  -5.685  -5.811  0.00  0.00    -0.126 OA
ENDBRANCH  33  36
ENDBRANCH  21  30
ENDBRANCH   1  20
TORSDOF 8
