REMARK  Name = ZINC11735590
REMARK  10 active torsions:
REMARK  status: ('A' for Active; 'I' for Inactive)
REMARK    1  A    between atoms: C_1  and  O_2
REMARK    2  A    between atoms: O_2  and  C_3
REMARK    3  A    between atoms: C_5  and  C_13
REMARK    4  A    between atoms: C_7  and  O_11
REMARK    5  A    between atoms: C_8  and  O_9
REMARK    6  A    between atoms: O_9  and  C_10
REMARK    7  A    between atoms: O_11  and  C_12
REMARK    8  A    between atoms: C_13  and  C_15
REMARK    9  A    between atoms: C_13  and  N_52
REMARK   10  A    between atoms: N_23  and  C_24
REMARK                            x       y       z     vdW  Elec       q    Type
REMARK                         _______ _______ _______ _____ _____    ______ ____
ROOT
ATOM      1  C   UNL     1       2.343  -2.402   2.250  0.00  0.00    +0.024 C 
ENDROOT
BRANCH   1   2
ATOM      2  C   UNL     1       1.728  -2.887   0.963  0.00  0.00    +0.105 A 
ATOM      3  N   UNL     1       1.585  -4.137   0.629  0.00  0.00    -0.233 NA
ATOM      4  C   UNL     1       1.002  -4.220  -0.595  0.00  0.00    +0.090 A 
ATOM      5  C   UNL     1       0.632  -5.289  -1.414  0.00  0.00    +0.030 A 
ATOM      6  C   UNL     1       0.048  -5.048  -2.626  0.00  0.00    +0.002 A 
ATOM      7  C   UNL     1      -0.181  -3.748  -3.055  0.00  0.00    +0.002 A 
ATOM      8  C   UNL     1       0.177  -2.678  -2.263  0.00  0.00    +0.028 A 
ATOM      9  C   UNL     1       0.770  -2.904  -1.029  0.00  0.00    +0.074 A 
ATOM     10  N   UNL     1       1.237  -2.081  -0.021  0.00  0.00    -0.297 N 
BRANCH  10  11
ATOM     11  C   UNL     1       1.215  -0.680  -0.013  0.00  0.00    +0.048 A 
ATOM     12  C   UNL     1       0.002  -0.004   0.002  0.00  0.00    +0.026 A 
ATOM     13  C   UNL     1      -0.017   1.377   0.010  0.00  0.00    +0.002 A 
ATOM     14  C   UNL     1       1.171   2.086   0.002  0.00  0.00    +0.000 A 
ATOM     15  C   UNL     1       2.380   1.415  -0.013  0.00  0.00    +0.002 A 
ATOM     16  C   UNL     1       2.405   0.034  -0.021  0.00  0.00    +0.026 A 
ENDBRANCH  10  11
ENDBRANCH   1   2
BRANCH   1  19
ATOM     17  C   UNL     1       6.017  -1.623   1.831  0.00  0.00    +0.165 A 
ATOM     18  C   UNL     1       4.639  -1.477   1.892  0.00  0.00    +0.052 A 
ATOM     19  C   UNL     1       3.839  -2.565   2.185  0.00  0.00    -0.048 A 
ATOM     20  C   UNL     1       4.409  -3.802   2.425  0.00  0.00    +0.052 A 
ATOM     21  C   UNL     1       5.785  -3.958   2.361  0.00  0.00    +0.165 A 
ATOM     22  C   UNL     1       6.593  -2.866   2.066  0.00  0.00    +0.204 A 
BRANCH  17  24
ATOM     23  C   UNL     1       6.143   0.695   1.314  0.00  0.00    +0.277 C 
ATOM     24  O   UNL     1       6.804  -0.552   1.543  0.00  0.00    -0.491 OA
ENDBRANCH  17  24
BRANCH  22  25
ATOM     25  O   UNL     1       7.945  -3.014   2.009  0.00  0.00    -0.488 OA
ATOM     26  C   UNL     1       8.672  -2.811   3.222  0.00  0.00    +0.277 C 
ENDBRANCH  22  25
BRANCH  21  27
ATOM     27  O   UNL     1       6.344  -5.176   2.591  0.00  0.00    -0.491 OA
ATOM     28  C   UNL     1       5.452  -6.253   2.888  0.00  0.00    +0.277 C 
ENDBRANCH  21  27
ENDBRANCH   1  19
BRANCH   1  31
ATOM     29  H   UNL     1       2.026  -4.167   3.261  0.00  0.00    -0.089 HD
ATOM     30  H   UNL     1       2.160  -2.840   4.254  0.00  0.00    -0.089 HD
ATOM     31  N   UNL     1       1.788  -3.183   3.370  0.00  0.00    +0.387 N 
ATOM     32  H   UNL     1       0.766  -3.085   3.376  0.00  0.00    -0.089 HD
ENDBRANCH   1  31
TORSDOF 7
