REMARK  Name = ZINC38754723
REMARK  4 active torsions:
REMARK  status: ('A' for Active; 'I' for Inactive)
REMARK    1  A    between atoms: C_8  and  C_10
REMARK    2  A    between atoms: C_12  and  C_15
REMARK    3  A    between atoms: C_15  and  N_16
REMARK    4  A    between atoms: C_17  and  C_19
REMARK                            x       y       z     vdW  Elec       q    Type
REMARK                         _______ _______ _______ _____ _____    ______ ____
ROOT
ATOM      1  C   UNL     1       6.966  -5.226  -0.082  0.00  0.00    +0.163 C 
ENDROOT
BRANCH   1   4
ATOM      2  C   UNL     1       3.796  -3.326  -0.051  0.00  0.00    +0.202 A 
ATOM      3  C   UNL     1       5.159  -3.371  -0.059  0.00  0.00    +0.081 A 
ATOM      4  C   UNL     1       5.547  -4.717  -0.071  0.00  0.00    +0.101 A 
ATOM      5  N   UNL     1       4.471  -5.454  -0.070  0.00  0.00    -0.081 NA
ATOM      6  O   UNL     1       3.345  -4.596  -0.053  0.00  0.00    -0.351 OA
BRANCH   2  14
ATOM      7  C   UNL     1      -0.017   1.363   0.009  0.00  0.00    +0.001 A 
ATOM      8  C   UNL     1       1.171   2.082   0.002  0.00  0.00    +0.004 A 
ATOM      9  C   UNL     1       2.387   1.433  -0.013  0.00  0.00    +0.047 A 
ATOM     10  C   UNL     1       2.430   0.044  -0.021  0.00  0.00    +0.136 A 
ATOM     11  C   UNL     1       1.224  -0.679  -0.013  0.00  0.00    +0.021 A 
ATOM     12  C   UNL     1       0.002  -0.004   0.002  0.00  0.00    +0.011 A 
ATOM     13  C   UNL     1       1.609  -2.091  -0.025  0.00  0.00    +0.061 A 
ATOM     14  C   UNL     1       2.967  -2.111  -0.038  0.00  0.00    +0.174 A 
ATOM     15  O   UNL     1       3.441  -0.848  -0.035  0.00  0.00    -0.452 OA
ENDBRANCH   2  14
ENDBRANCH   1   4
BRANCH   1  16
ATOM     16  N   UNL     1       7.393  -5.514   1.289  0.00  0.00    -0.306 N 
ATOM     17  C   UNL     1       8.634  -5.983   1.524  0.00  0.00    +0.244 C 
ATOM     18  O   UNL     1       9.399  -6.168   0.598  0.00  0.00    -0.270 OA
ATOM     19  H   UNL     1       6.782  -5.366   2.028  0.00  0.00    +0.149 HD
BRANCH  17  20
ATOM     20  C   UNL     1       9.064  -6.273   2.907  0.00  0.00    +0.039 A 
ATOM     21  C   UNL     1       8.178  -6.065   3.973  0.00  0.00    +0.015 A 
ATOM     22  C   UNL     1       8.564  -6.329   5.254  0.00  0.00    +0.028 A 
ATOM     23  C   UNL     1       9.844  -6.808   5.514  0.00  0.00    +0.066 A 
ATOM     24  C   UNL     1      10.746  -7.023   4.456  0.00  0.00    +0.089 A 
ATOM     25  C   UNL     1      10.346  -6.758   3.147  0.00  0.00    +0.043 A 
ATOM     26  N   UNL     1      11.898  -7.487   5.006  0.00  0.00    -0.236 NA
ATOM     27  C   UNL     1      11.763  -7.566   6.298  0.00  0.00    +0.197 A 
ATOM     28  N   UNL     1      10.516  -7.160   6.664  0.00  0.00    -0.344 N 
ATOM     29  H   UNL     1      10.166  -7.126   7.567  0.00  0.00    +0.167 HD
ENDBRANCH  17  20
ENDBRANCH   1  16
TORSDOF 4
