REMARK  Name = ZINC38704038
REMARK  9 active torsions:
REMARK  status: ('A' for Active; 'I' for Inactive)
REMARK    1  A    between atoms: C_1  and  C_2
REMARK    2  A    between atoms: C_4  and  C_36
REMARK    3  A    between atoms: C_5  and  C_9
REMARK    4  A    between atoms: C_6  and  O_8
REMARK    5  A    between atoms: C_12  and  C_14
REMARK    6  A    between atoms: N_16  and  C_17
REMARK    7  A    between atoms: C_19  and  C_27
REMARK    8  A    between atoms: N_29  and  C_30
REMARK    9  A    between atoms: C_30  and  C_31
REMARK                            x       y       z     vdW  Elec       q    Type
REMARK                         _______ _______ _______ _____ _____    ______ ____
ROOT
ATOM      1  C   UNL     1      -0.979  -7.918   0.438  0.00  0.00    +0.261 C 
ATOM      2  O   UNL     1      -2.098  -8.057   0.893  0.00  0.00    -0.269 OA
ATOM      3  N   UNL     1      -0.324  -8.978  -0.078  0.00  0.00    -0.297 N 
ATOM      4  H   UNL     1       0.569  -8.867  -0.441  0.00  0.00    +0.150 HD
ENDROOT
BRANCH   3   5
ATOM      5  C   UNL     1      -0.961 -10.297  -0.090  0.00  0.00    +0.152 C 
ATOM      6  C   UNL     1      -0.458 -11.159  -1.270  0.00  0.00    +0.132 C 
ATOM      7  C   UNL     1      -1.575 -11.999  -1.861  0.00  0.00    -0.046 C 
ATOM      8  C   UNL     1      -2.817 -11.630  -1.606  0.00  0.00    -0.013 C 
ATOM      9  S   UNL     1      -2.737 -10.186  -0.560  0.00  0.00    -0.106 S 
ATOM     10  C   UNL     1      -3.831 -12.531  -2.269  0.00  0.00    +0.042 C 
ATOM     11  C   UNL     1      -3.026 -13.298  -3.340  0.00  0.00    +0.009 C 
ATOM     12  C   UNL     1      -1.607 -13.255  -2.740  0.00  0.00    +0.033 C 
BRANCH   6  13
ATOM     13  C   UNL     1       0.095 -10.254  -2.341  0.00  0.00    +0.223 C 
ATOM     14  O   UNL     1      -0.649  -9.763  -3.163  0.00  0.00    -0.275 OA
ATOM     15  N   UNL     1       1.415  -9.990  -2.384  0.00  0.00    -0.308 N 
ATOM     16  H   UNL     1       2.020 -10.438  -1.772  0.00  0.00    +0.149 HD
BRANCH  15  17
ATOM     17  C   UNL     1       1.938  -9.025  -3.355  0.00  0.00    +0.178 C 
BRANCH  17  18
ATOM     18  C   UNL     1       3.433  -8.913  -3.197  0.00  0.00    +0.122 A 
ATOM     19  C   UNL     1       4.350  -9.655  -3.843  0.00  0.00    +0.046 A 
ATOM     20  C   UNL     1       5.618  -9.219  -3.396  0.00  0.00    +0.041 A 
ATOM     21  C   UNL     1       5.400  -8.236  -2.504  0.00  0.00    +0.195 A 
ATOM     22  O   UNL     1       4.075  -8.052  -2.391  0.00  0.00    -0.466 OA
ENDBRANCH  17  18
ENDBRANCH  15  17
ENDBRANCH   6  13
ENDBRANCH   3   5
BRANCH   1  26
ATOM     23  C   UNL     1       0.216  -4.324   0.705  0.00  0.00    +0.080 C 
ATOM     24  N   UNL     1       1.152  -5.053   0.139  0.00  0.00    -0.153 NA
ATOM     25  N   UNL     1       0.847  -6.283   0.003  0.00  0.00    -0.148 NA
ATOM     26  C   UNL     1      -0.341  -6.598   0.450  0.00  0.00    +0.131 C 
ATOM     27  C   UNL     1      -0.915  -5.298   0.989  0.00  0.00    +0.120 C 
BRANCH  23  32
ATOM     28  C   UNL     1       0.371   1.302   1.863  0.00  0.00    +0.044 C 
ATOM     29  C   UNL     1       0.332  -0.174   1.563  0.00  0.00    -0.047 A 
ATOM     30  C   UNL     1      -0.161  -0.616   0.344  0.00  0.00    +0.007 A 
ATOM     31  C   UNL     1      -0.202  -1.961   0.057  0.00  0.00    -0.038 A 
ATOM     32  C   UNL     1       0.257  -2.891   1.001  0.00  0.00    +0.043 A 
ATOM     33  C   UNL     1       0.756  -2.437   2.235  0.00  0.00    +0.126 A 
ATOM     34  C   UNL     1       0.793  -1.077   2.501  0.00  0.00    +0.049 A 
ATOM     35  C   UNL     1      -0.740  -2.434  -1.268  0.00  0.00    +0.044 C 
BRANCH  33  36
ATOM     36  O   UNL     1       1.204  -3.324   3.158  0.00  0.00    -0.506 OA
ATOM     37  H   UNL     1       2.145  -3.533   3.079  0.00  0.00    +0.292 HD
ENDBRANCH  33  36
ENDBRANCH  23  32
ENDBRANCH   1  26
TORSDOF 7
