REMARK  Name = ZINC14161170
REMARK  8 active torsions:
REMARK  status: ('A' for Active; 'I' for Inactive)
REMARK    1  A    between atoms: C_1  and  C_2
REMARK    2  A    between atoms: C_2  and  C_4
REMARK    3  A    between atoms: C_2  and  N_14
REMARK    4  A    between atoms: C_7  and  S_10
REMARK    5  A    between atoms: S_10  and  N_13
REMARK    6  A    between atoms: C_15  and  C_17
REMARK    7  A    between atoms: C_17  and  N_54
REMARK    8  A    between atoms: C_21  and  C_23
REMARK                            x       y       z     vdW  Elec       q    Type
REMARK                         _______ _______ _______ _____ _____    ______ ____
ROOT
ATOM      1  N   UNL     1       0.013   2.862   4.702  0.00  0.00    -0.310 N 
ATOM      2  C   UNL     1      -0.625   2.565   3.552  0.00  0.00    +0.197 C 
ATOM      3  O   UNL     1      -1.836   2.513   3.527  0.00  0.00    -0.278 OA
ATOM      4  H   UNL     1       0.982   2.904   4.721  0.00  0.00    +0.149 HD
ENDROOT
BRANCH   1   6
ATOM      5  C   UNL     1      -1.185   4.590   5.951  0.00  0.00    +0.033 C 
ATOM      6  C   UNL     1      -0.756   3.122   5.921  0.00  0.00    +0.100 C 
BRANCH   6   7
ATOM      7  C   UNL     1       0.097   2.823   7.127  0.00  0.00    -0.027 A 
ATOM      8  C   UNL     1       1.435   3.171   7.130  0.00  0.00    +0.007 A 
ATOM      9  C   UNL     1       2.217   2.902   8.238  0.00  0.00    +0.029 A 
ATOM     10  C   UNL     1       1.663   2.273   9.338  0.00  0.00    +0.105 A 
ATOM     11  C   UNL     1       0.327   1.920   9.332  0.00  0.00    +0.029 A 
ATOM     12  C   UNL     1      -0.456   2.194   8.226  0.00  0.00    +0.007 A 
BRANCH  10  13
ATOM     13  S   UNL     1       2.661   1.923  10.747  0.00  0.00    +0.056 S 
ATOM     14  O   UNL     1       3.743   2.843  10.717  0.00  0.00    -0.153 OA
ATOM     15  O   UNL     1       1.778   1.821  11.855  0.00  0.00    -0.153 OA
BRANCH  13  16
ATOM     16  N   UNL     1       3.314   0.417  10.523  0.00  0.00    -0.204 NA
ATOM     17  H   UNL     1       4.179   0.202  10.905  0.00  0.00    +0.144 HD
ATOM     18  H   UNL     1       2.831  -0.249  10.009  0.00  0.00    +0.144 HD
ENDBRANCH  13  16
ENDBRANCH  10  13
ENDBRANCH   6   7
ENDBRANCH   1   6
BRANCH   2  19
ATOM     19  C   UNL     1       0.167   2.299   2.298  0.00  0.00    +0.019 C 
BRANCH  19  24
ATOM     20  C   UNL     1      -1.514   3.202   0.800  0.00  0.00    -0.077 C 
ATOM     21  C   UNL     1      -1.252   3.439  -0.702  0.00  0.00    -0.020 C 
ATOM     22  C   UNL     1      -0.812   2.038  -1.207  0.00  0.00    -0.010 C 
ATOM     23  C   UNL     1      -0.018   1.503   0.010  0.00  0.00    -0.011 C 
ATOM     24  N   UNL     1      -0.768   1.992   1.184  0.00  0.00    +0.391 N 
ATOM     25  H   UNL     1      -1.430   1.269   1.491  0.00  0.00    -0.080 HD
BRANCH  23  26
ATOM     26  C   UNL     1       0.002  -0.004   0.002  0.00  0.00    +0.066 A 
ATOM     27  N   UNL     1      -0.974  -0.827   0.265  0.00  0.00    -0.246 NA
ATOM     28  C   UNL     1      -0.824  -2.167   0.217  0.00  0.00    +0.078 A 
ATOM     29  C   UNL     1      -1.777  -3.179   0.468  0.00  0.00    +0.029 A 
ATOM     30  C   UNL     1      -1.436  -4.493   0.375  0.00  0.00    +0.002 A 
ATOM     31  C   UNL     1      -0.150  -4.889   0.034  0.00  0.00    +0.001 A 
ATOM     32  C   UNL     1       0.811  -3.929  -0.220  0.00  0.00    +0.017 A 
ATOM     33  C   UNL     1       0.477  -2.600  -0.129  0.00  0.00    +0.039 A 
ATOM     34  S   UNL     1       1.333  -1.061  -0.353  0.00  0.00    -0.074 S 
ENDBRANCH  23  26
ENDBRANCH  19  24
ENDBRANCH   2  19
TORSDOF 7
