REMARK  Name = ZINC01776001
REMARK  3 active torsions:
REMARK  status: ('A' for Active; 'I' for Inactive)
REMARK    1  A    between atoms: C_13  and  C_21
REMARK    2  A    between atoms: C_14  and  C_17
REMARK    3  A    between atoms: N_22  and  C_23
REMARK                            x       y       z     vdW  Elec       q    Type
REMARK                         _______ _______ _______ _____ _____    ______ ____
ROOT
ATOM      1  C   UNL     1      -0.017   1.366   0.010  0.00  0.00    +0.002 A 
ATOM      2  C   UNL     1       1.156   2.107   0.002  0.00  0.00    +0.001 A 
ATOM      3  C   UNL     1       2.373   1.450  -0.013  0.00  0.00    +0.017 A 
ATOM      4  C   UNL     1       2.401   0.077  -0.021  0.00  0.00    +0.041 A 
ATOM      5  C   UNL     1       1.227  -0.710  -0.013  0.00  0.00    +0.081 A 
ATOM      6  C   UNL     1       0.002  -0.004   0.002  0.00  0.00    +0.029 A 
ATOM      7  N   UNL     1       1.420  -2.047  -0.023  0.00  0.00    -0.221 NA
ATOM      8  C   UNL     1       2.616  -2.588  -0.037  0.00  0.00    +0.196 A 
ATOM      9  S   UNL     1       3.682  -1.153  -0.039  0.00  0.00    -0.048 S 
ATOM     10  N   UNL     1       2.963  -3.928  -0.047  0.00  0.00    -0.194 N 
ATOM     11  C   UNL     1       4.221  -4.415  -0.056  0.00  0.00    +0.282 A 
ATOM     12  O   UNL     1       5.252  -3.769  -0.057  0.00  0.00    -0.265 OA
ATOM     13  C   UNL     1       4.101  -5.882  -0.065  0.00  0.00    +0.086 A 
ATOM     14  C   UNL     1       2.751  -6.166  -0.060  0.00  0.00    +0.150 A 
ATOM     15  N   UNL     1       2.069  -5.002  -0.043  0.00  0.00    -0.284 N 
ATOM     16  H   UNL     1       1.102  -4.923  -0.033  0.00  0.00    +0.187 HD
ENDROOT
BRANCH  14  17
ATOM     17  C   UNL     1       2.141  -7.544  -0.066  0.00  0.00    +0.434 C 
ATOM     18  F   UNL     1       3.159  -8.504  -0.077  0.00  0.00    -0.164 F 
ATOM     19  F   UNL     1       1.355  -7.711   1.079  0.00  0.00    -0.164 F 
ATOM     20  F   UNL     1       1.344  -7.697  -1.205  0.00  0.00    -0.164 F 
ENDBRANCH  14  17
BRANCH  13  21
ATOM     21  C   UNL     1       5.203  -6.852  -0.077  0.00  0.00    +0.094 C 
ATOM     22  N   UNL     1       6.432  -6.438  -0.080  0.00  0.00    -0.387 N 
ATOM     23  H   UNL     1       6.624  -5.487  -0.075  0.00  0.00    +0.159 HD
BRANCH  22  24
ATOM     24  C   UNL     1       7.532  -7.407  -0.092  0.00  0.00    +0.079 C 
ATOM     25  C   UNL     1       8.352  -7.246   1.204  0.00  0.00    +0.024 C 
ATOM     26  C   UNL     1       9.125  -8.516   1.440  0.00  0.00    +0.002 C 
ATOM     27  C   UNL     1      10.554  -8.451   0.866  0.00  0.00    +0.000 C 
ATOM     28  C   UNL     1      10.611  -7.784  -0.521  0.00  0.00    +0.000 C 
ATOM     29  C   UNL     1       9.481  -8.217  -1.416  0.00  0.00    +0.002 C 
ATOM     30  C   UNL     1       8.334  -7.194  -1.288  0.00  0.00    +0.024 C 
ENDBRANCH  22  24
ENDBRANCH  13  21
TORSDOF 3
