REMARK  Name = ZINC14479266
REMARK  7 active torsions:
REMARK  status: ('A' for Active; 'I' for Inactive)
REMARK    1  A    between atoms: C_1  and  O_2
REMARK    2  A    between atoms: O_2  and  C_3
REMARK    3  A    between atoms: C_6  and  C_11
REMARK    4  A    between atoms: C_8  and  O_9
REMARK    5  A    between atoms: O_9  and  C_10
REMARK    6  A    between atoms: C_21  and  N_28
REMARK    7  A    between atoms: C_24  and  O_27
REMARK                            x       y       z     vdW  Elec       q    Type
REMARK                         _______ _______ _______ _____ _____    ______ ____
ROOT
ATOM      1  C   UNL     1      -4.997  -2.723   0.106  0.00  0.00    +0.105 C 
ATOM      2  C   UNL     1      -5.584  -2.708  -1.295  0.00  0.00    +0.029 C 
ATOM      3  C   UNL     1      -4.880  -3.561  -2.358  0.00  0.00    +0.033 C 
ATOM      4  C   UNL     1      -6.042  -3.911  -3.290  0.00  0.00    -0.030 C 
ATOM      5  C   UNL     1      -7.188  -3.875  -2.621  0.00  0.00    -0.023 C 
ATOM      6  C   UNL     1      -6.914  -3.513  -1.196  0.00  0.00    +0.051 C 
ATOM      7  C   UNL     1      -7.858  -2.731  -0.369  0.00  0.00    +0.014 A 
ATOM      8  C   UNL     1      -9.216  -2.712  -0.612  0.00  0.00    +0.132 A 
ATOM      9  C   UNL     1     -10.062  -1.977   0.197  0.00  0.00    +0.037 A 
ATOM     10  C   UNL     1      -9.548  -1.254   1.258  0.00  0.00    +0.049 A 
ATOM     11  C   UNL     1      -8.188  -1.260   1.508  0.00  0.00    +0.138 A 
ATOM     12  C   UNL     1      -7.327  -1.994   0.693  0.00  0.00    +0.076 A 
ATOM     13  N   UNL     1      -5.946  -1.960   0.946  0.00  0.00    -0.334 N 
ATOM     14  H   UNL     1      -5.608  -1.427   1.682  0.00  0.00    +0.147 HD
ENDROOT
BRANCH   1  18
ATOM     15  C   UNL     1      -1.164  -0.828   0.121  0.00  0.00    +0.162 A 
ATOM     16  C   UNL     1      -2.318  -0.062   0.102  0.00  0.00    +0.050 A 
ATOM     17  C   UNL     1      -3.556  -0.678   0.097  0.00  0.00    +0.009 A 
ATOM     18  C   UNL     1      -3.646  -2.057   0.111  0.00  0.00    -0.023 A 
ATOM     19  C   UNL     1      -2.498  -2.827   0.131  0.00  0.00    +0.055 A 
ATOM     20  C   UNL     1      -1.254  -2.217   0.130  0.00  0.00    +0.162 A 
BRANCH  15  22
ATOM     21  C   UNL     1       0.071   1.205   0.117  0.00  0.00    +0.277 C 
ATOM     22  O   UNL     1       0.055  -0.224   0.126  0.00  0.00    -0.491 OA
ENDBRANCH  15  22
BRANCH  20  23
ATOM     23  O   UNL     1      -0.123  -2.973   0.143  0.00  0.00    -0.491 OA
ATOM     24  C   UNL     1      -0.292  -4.392   0.152  0.00  0.00    +0.277 C 
ENDBRANCH  20  23
ENDBRANCH   1  18
BRANCH   8  25
ATOM     25  N   UNL     1      -9.771  -3.485  -1.746  0.00  0.00    +0.057 N 
ATOM     26  O   UNL     1     -10.476  -2.939  -2.562  0.00  0.00    -0.126 OA
ATOM     27  O   UNL     1      -9.519  -4.662  -1.856  0.00  0.00    -0.126 OA
ENDBRANCH   8  25
BRANCH  11  28
ATOM     28  O   UNL     1      -7.687  -0.548   2.554  0.00  0.00    -0.505 OA
ATOM     29  H   UNL     1      -7.643  -1.045   3.382  0.00  0.00    +0.292 HD
ENDBRANCH  11  28
TORSDOF 5
