REMARK  Name = ZINC38827321
REMARK  9 active torsions:
REMARK  status: ('A' for Active; 'I' for Inactive)
REMARK    1  A    between atoms: C_1  and  N_2
REMARK    2  A    between atoms: N_2  and  C_3
REMARK    3  A    between atoms: N_2  and  C_4
REMARK    4  A    between atoms: C_4  and  C_5
REMARK    5  A    between atoms: C_5  and  N_6
REMARK    6  A    between atoms: C_10  and  C_15
REMARK    7  A    between atoms: C_11  and  C_13
REMARK    8  A    between atoms: C_17  and  C_22
REMARK    9  A    between atoms: C_19  and  N_21
REMARK                            x       y       z     vdW  Elec       q    Type
REMARK                         _______ _______ _______ _____ _____    ______ ____
ROOT
ATOM      1  N   UNL     1      -3.027  -2.828   0.478  0.00  0.00    -0.329 N 
ATOM      2  C   UNL     1      -4.162  -3.085   1.228  0.00  0.00    +0.144 A 
ATOM      3  C   UNL     1      -5.280  -3.294   0.416  0.00  0.00    +0.093 A 
ATOM      4  N   UNL     1      -6.457  -3.554   0.944  0.00  0.00    -0.234 NA
ATOM      5  C   UNL     1      -6.599  -3.620   2.266  0.00  0.00    +0.176 A 
ATOM      6  C   UNL     1      -5.482  -3.411   3.093  0.00  0.00    +0.178 A 
ATOM      7  N   UNL     1      -4.298  -3.150   2.552  0.00  0.00    -0.217 NA
ATOM      8  C   UNL     1      -4.848  -3.165  -1.028  0.00  0.00    +0.111 C 
ATOM      9  C   UNL     1      -3.346  -2.849  -0.952  0.00  0.00    +0.031 C 
ENDROOT
BRANCH   8  10
ATOM     10  C   UNL     1      -5.085  -4.457  -1.766  0.00  0.00    +0.142 A 
ATOM     11  N   UNL     1      -4.630  -5.582  -1.235  0.00  0.00    -0.193 NA
ATOM     12  C   UNL     1      -4.805  -6.750  -1.833  0.00  0.00    +0.281 A 
ATOM     13  O   UNL     1      -4.334  -7.891  -1.278  0.00  0.00    -0.265 OA
ATOM     14  C   UNL     1      -5.497  -6.773  -3.066  0.00  0.00    +0.068 A 
ATOM     15  C   UNL     1      -5.728  -7.963  -3.767  0.00  0.00    +0.030 A 
ATOM     16  C   UNL     1      -6.402  -7.924  -4.952  0.00  0.00    +0.019 A 
ATOM     17  C   UNL     1      -6.864  -6.716  -5.473  0.00  0.00    +0.017 A 
ATOM     18  C   UNL     1      -6.655  -5.542  -4.814  0.00  0.00    +0.029 A 
ATOM     19  C   UNL     1      -5.965  -5.545  -3.594  0.00  0.00    +0.078 A 
ATOM     20  N   UNL     1      -5.738  -4.419  -2.903  0.00  0.00    -0.231 NA
ATOM     21 BR   UNL     1      -6.715  -9.529  -5.901  0.00  0.00    -0.050 Br
ENDBRANCH   8  10
BRANCH   9  22
ATOM     22  N   UNL     1      -2.573  -3.898  -1.631  0.00  0.00    +0.391 N 
ATOM     23  H   UNL     1      -2.708  -4.777  -1.154  0.00  0.00    -0.087 HD
ATOM     24  H   UNL     1      -2.885  -3.981  -2.586  0.00  0.00    -0.087 HD
ATOM     25  H   UNL     1      -1.593  -3.655  -1.617  0.00  0.00    -0.087 HD
ENDBRANCH   9  22
BRANCH   6  26
ATOM     26  C   UNL     1      -5.620  -3.480   4.517  0.00  0.00    +0.122 C 
ATOM     27  N   UNL     1      -5.730  -3.535   5.646  0.00  0.00    -0.189 NA
ENDBRANCH   6  26
BRANCH   5  28
ATOM     28  C   UNL     1      -7.880  -3.902   2.841  0.00  0.00    +0.122 C 
ATOM     29  N   UNL     1      -8.896  -4.125   3.298  0.00  0.00    -0.189 NA
ENDBRANCH   5  28
BRANCH   1  30
ATOM     30  C   UNL     1      -1.697  -2.567   1.035  0.00  0.00    +0.086 C 
BRANCH  30  31
ATOM     31  C   UNL     1      -1.531  -1.065   1.274  0.00  0.00    -0.060 C 
BRANCH  31  33
ATOM     32  C   UNL     1       0.008   0.646   1.951  0.00  0.00    -0.097 C 
ATOM     33  N   UNL     1      -0.197  -0.803   1.833  0.00  0.00    +0.377 N 
ATOM     34  C   UNL     1      -0.093  -1.423   3.161  0.00  0.00    -0.097 C 
ATOM     35  H   UNL     1       0.505  -1.194   1.223  0.00  0.00    -0.083 HD
ENDBRANCH  31  33
ENDBRANCH  30  31
ENDBRANCH   1  30
TORSDOF 7
