REMARK  Name = ZINC11663982
REMARK  10 active torsions:
REMARK  status: ('A' for Active; 'I' for Inactive)
REMARK    1  A    between atoms: C_1  and  C_2
REMARK    2  A    between atoms: C_2  and  C_3
REMARK    3  A    between atoms: C_2  and  C_4
REMARK    4  A    between atoms: C_2  and  C_5
REMARK    5  A    between atoms: C_5  and  N_63
REMARK    6  A    between atoms: C_11  and  C_13
REMARK    7  A    between atoms: C_13  and  C_14
REMARK    8  A    between atoms: N_16  and  C_17
REMARK    9  A    between atoms: N_16  and  C_18
REMARK   10  A    between atoms: C_18  and  C_19
REMARK                            x       y       z     vdW  Elec       q    Type
REMARK                         _______ _______ _______ _____ _____    ______ ____
ROOT
ATOM      1  C   UNL     1      -0.881   0.914  -1.378  0.00  0.00    +0.215 C 
ATOM      2  O   UNL     1      -1.734   1.654  -0.935  0.00  0.00    -0.276 OA
ATOM      3  N   UNL     1      -0.895   0.576  -2.682  0.00  0.00    -0.299 N 
ATOM      4  C   UNL     1       0.135  -0.318  -3.218  0.00  0.00    +0.132 C 
ENDROOT
BRANCH   1   5
ATOM      5  C   UNL     1       0.194   0.374  -0.470  0.00  0.00    +0.090 C 
BRANCH   5  11
ATOM      6  C   UNL     1      -1.488   1.429   2.717  0.00  0.00    -0.059 C 
ATOM      7  C   UNL     1      -1.709   2.892   2.330  0.00  0.00    +0.085 C 
ATOM      8  N   UNL     1      -0.634   3.345   1.453  0.00  0.00    -0.318 N 
ATOM      9  C   UNL     1       0.167   2.504   0.790  0.00  0.00    +0.200 C 
ATOM     10  O   UNL     1       1.016   2.966   0.057  0.00  0.00    -0.278 OA
ATOM     11  C   UNL     1       0.059   1.011   0.914  0.00  0.00    +0.028 C 
ATOM     12  H   UNL     1      -0.494   4.299   1.346  0.00  0.00    +0.149 HD
ATOM     13  N   UNL     1      -1.258   0.658   1.478  0.00  0.00    +0.389 N 
ATOM     14  H   UNL     1      -1.989   0.893   0.796  0.00  0.00    -0.081 HD
BRANCH  13  15
ATOM     15  C   UNL     1      -1.314  -0.793   1.765  0.00  0.00    -0.072 C 
BRANCH  15  17
ATOM     16  C   UNL     1      -3.271  -1.006   0.226  0.00  0.00    +0.009 C 
ATOM     17  C   UNL     1      -2.765  -1.263   1.647  0.00  0.00    -0.052 C 
ATOM     18  C   UNL     1      -2.844  -2.760   1.954  0.00  0.00    +0.009 C 
ATOM     19  C   UNL     1      -3.633  -0.492   2.644  0.00  0.00    +0.009 C 
ENDBRANCH  15  17
ENDBRANCH  13  15
ENDBRANCH   5  11
ENDBRANCH   1   5
BRANCH   3  20
ATOM     20  C   UNL     1      -1.940   1.101  -3.565  0.00  0.00    +0.164 C 
BRANCH  20  21
ATOM     21  C   UNL     1      -1.423   2.318  -4.287  0.00  0.00    +0.083 A 
ATOM     22  C   UNL     1      -1.461   3.631  -3.810  0.00  0.00    -0.002 A 
ATOM     23  C   UNL     1      -0.908   4.432  -4.751  0.00  0.00    +0.040 A 
ATOM     24  N   UNL     1      -0.522   3.653  -5.781  0.00  0.00    -0.281 N 
ATOM     25  H   UNL     1      -0.077   3.965  -6.620  0.00  0.00    +0.189 HD
ATOM     26  N   UNL     1      -0.855   2.329  -5.466  0.00  0.00    -0.177 NA
ATOM     27  C   UNL     1      -0.763   5.930  -4.654  0.00  0.00    +0.055 C 
ATOM     28  C   UNL     1      -0.186   6.293  -3.283  0.00  0.00    +0.006 C 
ATOM     29  C   UNL     1      -1.323   6.482  -2.282  0.00  0.00    +0.001 C 
ATOM     30  C   UNL     1      -2.478   5.536  -2.594  0.00  0.00    +0.005 C 
ATOM     31  C   UNL     1      -2.004   4.085  -2.478  0.00  0.00    +0.039 C 
ENDBRANCH  20  21
ENDBRANCH   3  20
TORSDOF 6
