REMARK  Name = ZINC24377860
REMARK  6 active torsions:
REMARK  status: ('A' for Active; 'I' for Inactive)
REMARK    1  A    between atoms: C_1  and  C_2
REMARK    2  A    between atoms: C_8  and  N_10
REMARK    3  A    between atoms: C_11  and  C_13
REMARK    4  A    between atoms: C_13  and  N_14
REMARK    5  A    between atoms: C_18  and  C_26
REMARK    6  A    between atoms: C_23  and  C_25
REMARK                            x       y       z     vdW  Elec       q    Type
REMARK                         _______ _______ _______ _____ _____    ______ ____
ROOT
ATOM      1  N   UNL     1       2.504   2.281   1.886  0.00  0.00    -0.215 N 
ATOM      2  C   UNL     1       2.160   1.153   1.231  0.00  0.00    +0.247 C 
ATOM      3  O   UNL     1       2.395   0.011   1.562  0.00  0.00    -0.273 OA
ATOM      4  C   UNL     1       1.418   1.613  -0.003  0.00  0.00    +0.118 C 
ATOM      5  C   UNL     1      -0.013   1.086   0.008  0.00  0.00    +0.019 C 
ATOM      6  C   UNL     1      -0.754   1.593  -1.232  0.00  0.00    +0.006 C 
ATOM      7  C   UNL     1      -0.026   1.116  -2.490  0.00  0.00    +0.001 C 
ATOM      8  C   UNL     1       1.400   1.670  -2.498  0.00  0.00    +0.006 C 
ATOM      9  C   UNL     1       2.149   1.164  -1.263  0.00  0.00    +0.019 C 
ATOM     10  C   UNL     1       2.213  -0.365  -1.297  0.00  0.00    +0.010 C 
ATOM     11  C   UNL     1      -0.728   1.579   1.267  0.00  0.00    +0.010 C 
ATOM     12  N   UNL     1       1.426   3.078   0.101  0.00  0.00    -0.284 N 
ATOM     13  C   UNL     1       2.084   3.375   1.238  0.00  0.00    +0.310 C 
ATOM     14  O   UNL     1       2.275   4.509   1.633  0.00  0.00    -0.252 OA
ATOM     15  H   UNL     1       0.946   3.688  -0.678  0.00  0.00    +0.151 HD
ENDROOT
BRANCH   1  16
ATOM     16  C   UNL     1       3.245   2.306   3.149  0.00  0.00    +0.213 C 
BRANCH  16  18
ATOM     17  N   UNL     1       2.733   2.284   5.569  0.00  0.00    -0.311 N 
ATOM     18  C   UNL     1       2.275   2.269   4.302  0.00  0.00    +0.231 C 
ATOM     19  O   UNL     1       1.082   2.227   4.089  0.00  0.00    -0.274 OA
ATOM     20  H   UNL     1       3.815   2.323   5.762  0.00  0.00    +0.149 HD
BRANCH  17  27
ATOM     21  C   UNL     1       2.958   0.241   7.610  0.00  0.00    +0.009 C 
ATOM     22  C   UNL     1       2.482   1.661   7.921  0.00  0.00    +0.006 C 
ATOM     23  C   UNL     1       3.684   2.532   8.294  0.00  0.00    +0.005 C 
ATOM     24  C   UNL     1       3.208   3.952   8.605  0.00  0.00    +0.000 C 
ATOM     25  C   UNL     1       2.516   4.539   7.373  0.00  0.00    +0.002 C 
ATOM     26  C   UNL     1       1.314   3.669   7.001  0.00  0.00    +0.022 C 
ATOM     27  C   UNL     1       1.790   2.248   6.690  0.00  0.00    +0.076 C 
ENDBRANCH  17  27
ENDBRANCH  16  18
ENDBRANCH   1  16
TORSDOF 3
