REMARK  Name = ZINC44253351
REMARK  4 active torsions:
REMARK  status: ('A' for Active; 'I' for Inactive)
REMARK    1  A    between atoms: C_6  and  C_7
REMARK    2  A    between atoms: N_9  and  N_10
REMARK    3  A    between atoms: N_10  and  S_11
REMARK    4  A    between atoms: S_11  and  C_14
REMARK                            x       y       z     vdW  Elec       q    Type
REMARK                         _______ _______ _______ _____ _____    ______ ____
ROOT
ATOM      1  S   UNL     1      -2.746  -3.955  -1.168  0.00  0.00    +0.074 S 
ATOM      2  O   UNL     1      -3.957  -4.606  -0.810  0.00  0.00    -0.152 OA
ATOM      3  O   UNL     1      -2.576  -3.293  -2.414  0.00  0.00    -0.152 OA
ENDROOT
BRANCH   1   4
ATOM      4  C   UNL     1      -1.472  -5.169  -1.065  0.00  0.00    +0.108 A 
ATOM      5  C   UNL     1      -0.304  -5.005  -1.796  0.00  0.00    +0.032 A 
ATOM      6  C   UNL     1       0.705  -5.943  -1.729  0.00  0.00    +0.049 A 
ATOM      7  C   UNL     1       0.553  -7.064  -0.922  0.00  0.00    +0.139 A 
ATOM      8  C   UNL     1      -0.631  -7.226  -0.183  0.00  0.00    +0.019 A 
ATOM      9  C   UNL     1      -1.640  -6.261  -0.261  0.00  0.00    +0.040 A 
ATOM     10  C   UNL     1      -0.783  -8.412   0.665  0.00  0.00    +0.018 A 
ATOM     11  C   UNL     1       0.235  -9.309   0.701  0.00  0.00    +0.092 A 
ATOM     12  C   UNL     1       1.397  -9.082  -0.068  0.00  0.00    +0.337 A 
ATOM     13  O   UNL     1       2.303  -9.895  -0.027  0.00  0.00    -0.245 OA
ATOM     14  O   UNL     1       1.528  -7.995  -0.843  0.00  0.00    -0.422 OA
ENDBRANCH   1   4
BRANCH   1  15
ATOM     15  N   UNL     1      -2.446  -2.830   0.010  0.00  0.00    -0.108 NA
ATOM     16  H   UNL     1      -3.103  -2.670   0.706  0.00  0.00    +0.172 HD
BRANCH  15  19
ATOM     17  C   UNL     1      -1.266  -0.763   0.010  0.00  0.00    +0.259 C 
ATOM     18  O   UNL     1      -2.328  -0.172   0.023  0.00  0.00    -0.269 OA
ATOM     19  N   UNL     1      -1.244  -2.111   0.003  0.00  0.00    -0.228 N 
ATOM     20  H   UNL     1      -0.397  -2.582  -0.008  0.00  0.00    +0.171 HD
BRANCH  17  26
ATOM     21  C   UNL     1      -0.017   1.392   0.010  0.00  0.00    +0.014 A 
ATOM     22  C   UNL     1       1.169   2.095   0.002  0.00  0.00    +0.021 A 
ATOM     23  C   UNL     1       2.378   1.419  -0.013  0.00  0.00    +0.041 A 
ATOM     24  C   UNL     1       2.403   0.034  -0.021  0.00  0.00    +0.021 A 
ATOM     25  C   UNL     1       1.224  -0.680  -0.014  0.00  0.00    +0.014 A 
ATOM     26  C   UNL     1       0.002  -0.004   0.002  0.00  0.00    +0.038 A 
ATOM     27 CL   UNL     1       3.868   2.310  -0.022  0.00  0.00    -0.084 Cl
ENDBRANCH  17  26
ENDBRANCH  15  19
ENDBRANCH   1  15
TORSDOF 4
