REMARK  Name = ZINC02750819
REMARK  6 active torsions:
REMARK  status: ('A' for Active; 'I' for Inactive)
REMARK    1  A    between atoms: C_3  and  N_22
REMARK    2  A    between atoms: C_6  and  C_7
REMARK    3  A    between atoms: N_8  and  N_9
REMARK    4  A    between atoms: C_10  and  C_12
REMARK    5  A    between atoms: C_12  and  N_13
REMARK    6  A    between atoms: N_13  and  C_14
REMARK                            x       y       z     vdW  Elec       q    Type
REMARK                         _______ _______ _______ _____ _____    ______ ____
ROOT
ATOM      1  N   UNL     1      -0.288   1.272  -2.443  0.00  0.00    -0.206 N 
ATOM      2  C   UNL     1      -0.742   1.585  -1.213  0.00  0.00    +0.249 C 
ATOM      3  O   UNL     1      -1.736   2.268  -1.088  0.00  0.00    -0.272 OA
ATOM      4  H   UNL     1       0.507   0.726  -2.543  0.00  0.00    +0.177 HD
ENDROOT
BRANCH   1   6
ATOM      5  C   UNL     1      -0.530   1.435  -4.762  0.00  0.00    +0.138 C 
ATOM      6  N   UNL     1      -0.966   1.736  -3.578  0.00  0.00    -0.188 NA
BRANCH   5  12
ATOM      7  C   UNL     1      -2.392   2.706  -5.818  0.00  0.00    +0.012 A 
ATOM      8  C   UNL     1      -3.051   3.164  -6.940  0.00  0.00    +0.033 A 
ATOM      9  C   UNL     1      -2.583   2.841  -8.201  0.00  0.00    +0.126 A 
ATOM     10  C   UNL     1      -1.448   2.062  -8.347  0.00  0.00    +0.033 A 
ATOM     11  C   UNL     1      -0.776   1.602  -7.234  0.00  0.00    +0.012 A 
ATOM     12  C   UNL     1      -1.243   1.924  -5.957  0.00  0.00    -0.005 A 
BRANCH   9  13
ATOM     13  N   UNL     1      -3.299   3.332  -9.400  0.00  0.00    +0.056 N 
ATOM     14  O   UNL     1      -2.889   3.049 -10.512  0.00  0.00    -0.126 OA
ATOM     15  O   UNL     1      -4.297   4.018  -9.275  0.00  0.00    -0.126 OA
ENDBRANCH   9  13
ENDBRANCH   5  12
ENDBRANCH   1   6
BRANCH   2  16
ATOM     16  C   UNL     1      -0.013   1.086   0.008  0.00  0.00    +0.199 C 
BRANCH  16  17
ATOM     17  N   UNL     1      -0.698   1.558   1.213  0.00  0.00    -0.335 N 
ATOM     18  H   UNL     1      -1.495   2.106   1.135  0.00  0.00    +0.147 HD
BRANCH  17  19
ATOM     19  C   UNL     1      -0.204   1.220   2.476  0.00  0.00    +0.029 A 
ATOM     20  C   UNL     1       0.934   0.432   2.590  0.00  0.00    +0.024 A 
ATOM     21  C   UNL     1       1.424   0.104   3.839  0.00  0.00    +0.023 A 
ATOM     22  C   UNL     1       0.776   0.551   4.977  0.00  0.00    +0.059 A 
ATOM     23  C   UNL     1      -0.362   1.332   4.867  0.00  0.00    +0.061 A 
ATOM     24  C   UNL     1      -0.853   1.668   3.619  0.00  0.00    +0.044 A 
ATOM     25 CL   UNL     1      -1.173   1.890   6.297  0.00  0.00    -0.082 Cl
ATOM     26 CL   UNL     1       1.391   0.131   6.545  0.00  0.00    -0.082 Cl
ENDBRANCH  17  19
ENDBRANCH  16  17
ENDBRANCH   2  16
TORSDOF 6
