REMARK  Name = ZINC18143936
REMARK  5 active torsions:
REMARK  status: ('A' for Active; 'I' for Inactive)
REMARK    1  A    between atoms: C_3  and  S_27
REMARK    2  A    between atoms: C_4  and  C_23
REMARK    3  A    between atoms: C_6  and  C_7
REMARK    4  A    between atoms: C_17  and  C_20
REMARK    5  A    between atoms: S_27  and  C_28
REMARK                            x       y       z     vdW  Elec       q    Type
REMARK                         _______ _______ _______ _____ _____    ______ ____
ROOT
ATOM      1  C   UNL     1      -0.000   1.307   0.105  0.00  0.00    +0.009 A 
ATOM      2  C   UNL     1       1.194   1.994   0.123  0.00  0.00    +0.016 A 
ATOM      3  C   UNL     1       2.398   1.298   0.102  0.00  0.00    +0.024 A 
ATOM      4  C   UNL     1       2.399  -0.093   0.063  0.00  0.00    +0.069 A 
ATOM      5  C   UNL     1       1.207  -0.783   0.046  0.00  0.00    +0.022 A 
ATOM      6  C   UNL     1      -0.002  -0.087   0.067  0.00  0.00    -0.017 A 
ENDROOT
BRANCH   6   7
ATOM      7  C   UNL     1      -1.286  -0.828   0.049  0.00  0.00    -0.013 A 
ATOM      8  C   UNL     1      -1.308  -2.227   0.016  0.00  0.00    +0.026 A 
ATOM      9  C   UNL     1      -2.521  -2.880  -0.001  0.00  0.00    +0.085 A 
ATOM     10  N   UNL     1      -3.656  -2.206   0.013  0.00  0.00    -0.350 N 
ATOM     11  C   UNL     1      -3.683  -0.882   0.043  0.00  0.00    +0.099 A 
ATOM     12  C   UNL     1      -2.504  -0.148   0.069  0.00  0.00    +0.050 A 
ATOM     13  N   UNL     1      -4.906  -0.220   0.057  0.00  0.00    -0.316 N 
ATOM     14  C   UNL     1      -6.163  -0.970   0.181  0.00  0.00    +0.106 C 
ATOM     15  C   UNL     1      -6.966  -0.395   1.352  0.00  0.00    +0.020 C 
ATOM     16  C   UNL     1      -7.151   1.110   1.147  0.00  0.00    +0.018 C 
ATOM     17  C   UNL     1      -5.783   1.795   1.119  0.00  0.00    +0.119 C 
ATOM     18  C   UNL     1      -4.965   1.245  -0.048  0.00  0.00    +0.121 C 
ATOM     19  H   UNL     1      -4.494  -2.694   0.001  0.00  0.00    +0.166 HD
BRANCH  17  20
ATOM     20  C   UNL     1      -5.967   3.281   0.950  0.00  0.00    +0.361 C 
ATOM     21  O   UNL     1      -6.596   3.915   1.780  0.00  0.00    -0.246 OA
ATOM     22  O   UNL     1      -5.487   3.849  -0.016  0.00  0.00    -0.246 OA
ENDBRANCH  17  20
ENDBRANCH   6   7
BRANCH   4  23
ATOM     23  C   UNL     1       3.705  -0.846   0.039  0.00  0.00    +0.418 C 
ATOM     24  F   UNL     1       3.450  -2.221   0.001  0.00  0.00    -0.166 F 
ATOM     25  F   UNL     1       4.435  -0.475  -1.095  0.00  0.00    -0.166 F 
ATOM     26  F   UNL     1       4.441  -0.539   1.189  0.00  0.00    -0.166 F 
ENDBRANCH   4  23
BRANCH   3  27
ATOM     27  S   UNL     1       3.925   2.178   0.123  0.00  0.00    -0.089 S 
BRANCH  27  28
ATOM     28  C   UNL     1       3.443   3.869   0.017  0.00  0.00    +0.016 A 
ATOM     29  C   UNL     1       3.306   4.627   1.173  0.00  0.00    +0.019 A 
ATOM     30  C   UNL     1       2.928   5.953   1.089  0.00  0.00    +0.050 A 
ATOM     31  C   UNL     1       2.683   6.532  -0.147  0.00  0.00    +0.162 A 
ATOM     32  C   UNL     1       2.821   5.777  -1.306  0.00  0.00    +0.163 A 
ATOM     33  C   UNL     1       3.205   4.447  -1.223  0.00  0.00    +0.064 A 
ATOM     34  O   UNL     1       2.593   6.330  -2.529  0.00  0.00    -0.485 OA
ATOM     35  C   UNL     1       1.856   7.557  -2.554  0.00  0.00    +0.270 C 
ATOM     36  C   UNL     1       2.436   8.487  -1.479  0.00  0.00    +0.270 C 
ATOM     37  O   UNL     1       2.307   7.840  -0.209  0.00  0.00    -0.485 OA
ENDBRANCH  27  28
ENDBRANCH   3  27
TORSDOF 5
