REMARK  Name = ZINC13494938
REMARK  12 active torsions:
REMARK  status: ('A' for Active; 'I' for Inactive)
REMARK    1  A    between atoms: C_1  and  C_2
REMARK    2  A    between atoms: C_2  and  C_3
REMARK    3  A    between atoms: C_3  and  C_5
REMARK    4  A    between atoms: C_3  and  N_16
REMARK    5  A    between atoms: N_9  and  C_10
REMARK    6  A    between atoms: N_16  and  C_17
REMARK    7  A    between atoms: N_16  and  C_25
REMARK    8  A    between atoms: C_17  and  C_18
REMARK    9  A    between atoms: C_25  and  C_26
REMARK   10  A    between atoms: C_30  and  O_38
REMARK   11  A    between atoms: O_38  and  C_39
REMARK   12  A    between atoms: C_39  and  C_40
REMARK                            x       y       z     vdW  Elec       q    Type
REMARK                         _______ _______ _______ _____ _____    ______ ____
ROOT
ATOM      1  N   UNL     1      -2.818   4.891   0.947  0.00  0.00    -0.284 NA
ENDROOT
BRANCH   1   2
ATOM      2  C   UNL     1      -3.792   5.774   1.601  0.00  0.00    +0.127 C 
BRANCH   2   3
ATOM      3  C   UNL     1      -3.265   6.192   2.950  0.00  0.00    +0.169 A 
ATOM      4  N   UNL     1      -2.704   5.417   3.845  0.00  0.00    -0.112 NA
ATOM      5  N   UNL     1      -2.390   6.145   4.861  0.00  0.00    -0.023 NA
ATOM      6  N   UNL     1      -2.737   7.364   4.636  0.00  0.00    -0.044 NA
ATOM      7  N   UNL     1      -3.275   7.435   3.466  0.00  0.00    -0.225 N 
BRANCH   7   8
ATOM      8  C   UNL     1      -3.802   8.641   2.822  0.00  0.00    +0.111 C 
ATOM      9  C   UNL     1      -2.679   9.670   2.670  0.00  0.00    +0.027 C 
ATOM     10  C   UNL     1      -3.229  10.929   1.997  0.00  0.00    +0.002 C 
ATOM     11  C   UNL     1      -4.349  11.519   2.857  0.00  0.00    +0.000 C 
ATOM     12  C   UNL     1      -5.471  10.491   3.009  0.00  0.00    +0.002 C 
ATOM     13  C   UNL     1      -4.921   9.231   3.682  0.00  0.00    +0.027 C 
ENDBRANCH   7   8
ENDBRANCH   2   3
BRANCH   2  15
ATOM     14  C   UNL     1      -5.706   4.702   0.406  0.00  0.00    +0.006 C 
ATOM     15  C   UNL     1      -5.117   5.030   1.779  0.00  0.00    +0.023 C 
ENDBRANCH   2  15
ENDBRANCH   1   2
BRANCH   1  16
ATOM     16  C   UNL     1      -2.936   3.515   1.448  0.00  0.00    +0.122 C 
BRANCH  16  17
ATOM     17  C   UNL     1      -1.764   2.701   0.962  0.00  0.00    -0.015 A 
ATOM     18  C   UNL     1      -1.925   1.814  -0.085  0.00  0.00    +0.006 A 
ATOM     19  C   UNL     1      -0.850   1.071  -0.533  0.00  0.00    +0.000 A 
ATOM     20  C   UNL     1       0.386   1.207   0.072  0.00  0.00    +0.001 A 
ATOM     21  C   UNL     1       0.547   2.090   1.122  0.00  0.00    +0.020 A 
ATOM     22  C   UNL     1      -0.528   2.838   1.569  0.00  0.00    +0.045 A 
ATOM     23 CL   UNL     1      -0.326   3.947   2.889  0.00  0.00    -0.083 Cl
ENDBRANCH  16  17
ENDBRANCH   1  16
BRANCH   1  24
ATOM     24  C   UNL     1      -2.965   4.934  -0.514  0.00  0.00    +0.126 C 
BRANCH  24  25
ATOM     25  C   UNL     1      -2.332   6.193  -1.046  0.00  0.00    +0.031 A 
ATOM     26  C   UNL     1      -1.040   6.178  -1.457  0.00  0.00    +0.020 A 
ATOM     27  C   UNL     1      -0.455   7.417  -1.974  0.00  0.00    +0.002 A 
ATOM     28  C   UNL     1       0.872   7.460  -2.416  0.00  0.00    +0.055 A 
ATOM     29  C   UNL     1       1.393   8.646  -2.891  0.00  0.00    +0.121 A 
ATOM     30  C   UNL     1       0.606   9.794  -2.931  0.00  0.00    +0.047 A 
ATOM     31  C   UNL     1      -0.702   9.764  -2.499  0.00  0.00    +0.030 A 
ATOM     32  C   UNL     1      -1.247   8.580  -2.016  0.00  0.00    +0.049 A 
ATOM     33  N   UNL     1      -2.555   8.529  -1.578  0.00  0.00    -0.322 N 
ATOM     34  H   UNL     1      -3.180   9.434  -1.608  0.00  0.00    +0.169 HD
ATOM     35  C   UNL     1      -3.084   7.386  -1.110  0.00  0.00    +0.254 A 
ATOM     36  O   UNL     1      -4.242   7.378  -0.731  0.00  0.00    -0.268 OA
BRANCH  29  37
ATOM     37  O   UNL     1       2.682   8.694  -3.321  0.00  0.00    -0.492 OA
BRANCH  37  38
ATOM     38  C   UNL     1       3.159   9.952  -3.801  0.00  0.00    +0.225 C 
ATOM     39  C   UNL     1       4.619   9.811  -4.238  0.00  0.00    +0.048 C 
ENDBRANCH  37  38
ENDBRANCH  29  37
ENDBRANCH  24  25
ENDBRANCH   1  24
TORSDOF 10
