REMARK  Name = ZINC05292186
REMARK  2 active torsions:
REMARK  status: ('A' for Active; 'I' for Inactive)
REMARK    1  A    between atoms: C_8  and  C_10
REMARK    2  A    between atoms: C_10  and  N_11
REMARK                            x       y       z     vdW  Elec       q    Type
REMARK                         _______ _______ _______ _____ _____    ______ ____
ROOT
ATOM      1  N   UNL     1       2.981   6.044   0.328  0.00  0.00    -0.215 N 
ATOM      2  C   UNL     1       3.137   7.218  -0.319  0.00  0.00    +0.247 C 
ATOM      3  O   UNL     1       2.265   7.924  -0.777  0.00  0.00    -0.273 OA
ATOM      4  C   UNL     1       4.628   7.465  -0.354  0.00  0.00    +0.113 C 
ATOM      5  C   UNL     1       4.970   8.752   0.390  0.00  0.00    +0.035 C 
ATOM      6  C   UNL     1       6.484   8.970   0.368  0.00  0.00    +0.003 C 
ATOM      7  C   UNL     1       6.965   9.056  -1.082  0.00  0.00    +0.000 C 
ATOM      8  C   UNL     1       6.637   7.749  -1.807  0.00  0.00    +0.003 C 
ATOM      9  C   UNL     1       5.123   7.526  -1.794  0.00  0.00    +0.035 C 
ATOM     10  N   UNL     1       5.198   6.303   0.339  0.00  0.00    -0.285 N 
ATOM     11  C   UNL     1       4.158   5.530   0.706  0.00  0.00    +0.310 C 
ATOM     12  O   UNL     1       4.275   4.482   1.310  0.00  0.00    -0.252 OA
ATOM     13  H   UNL     1       6.138   6.128   0.503  0.00  0.00    +0.151 HD
ENDROOT
BRANCH   1  14
ATOM     14  C   UNL     1       1.685   5.414   0.591  0.00  0.00    +0.213 C 
BRANCH  14  22
ATOM     15  C   UNL     1      -0.013   1.086   0.008  0.00  0.00    +0.002 C 
ATOM     16  C   UNL     1      -0.728   1.578   1.262  0.00  0.00    +0.002 C 
ATOM     17  C   UNL     1      -0.335   2.928   1.693  0.00  0.00    +0.019 C 
ATOM     18  C   UNL     1      -0.706   3.968   0.607  0.00  0.00    +0.108 C 
ATOM     19  N   UNL     1       0.170   3.814  -0.532  0.00  0.00    -0.300 N 
ATOM     20  C   UNL     1      -0.150   2.931  -1.671  0.00  0.00    +0.108 C 
ATOM     21  C   UNL     1      -0.743   1.586  -1.214  0.00  0.00    +0.019 C 
ATOM     22  C   UNL     1       1.328   4.504  -0.556  0.00  0.00    +0.234 C 
ATOM     23  O   UNL     1       2.081   4.393  -1.499  0.00  0.00    -0.274 OA
ENDBRANCH  14  22
ENDBRANCH   1  14
TORSDOF 2
