REMARK  Name = ZINC13127199
REMARK  3 active torsions:
REMARK  status: ('A' for Active; 'I' for Inactive)
REMARK    1  A    between atoms: C_4  and  O_24
REMARK    2  A    between atoms: C_5  and  C_7
REMARK    3  A    between atoms: C_14  and  C_17
REMARK                            x       y       z     vdW  Elec       q    Type
REMARK                         _______ _______ _______ _____ _____    ______ ____
ROOT
ATOM      1  C   UNL     1       1.253  -2.153  -0.022  0.00  0.00    +0.058 C 
ATOM      2  N   UNL     1       2.412  -2.758  -0.031  0.00  0.00    -0.215 NA
ATOM      3  C   UNL     1       2.441  -4.114  -0.127  0.00  0.00    +0.249 A 
ATOM      4  N   UNL     1       3.416  -4.965   0.078  0.00  0.00    -0.198 NA
ATOM      5  C   UNL     1       2.976  -6.208  -0.125  0.00  0.00    +0.247 A 
ATOM      6  N   UNL     1       1.710  -6.173  -0.468  0.00  0.00    -0.156 NA
ATOM      7  N   UNL     1       1.335  -4.834  -0.486  0.00  0.00    -0.222 N 
ATOM      8  C   UNL     1       0.056  -4.205  -0.815  0.00  0.00    +0.147 C 
ATOM      9  C   UNL     1      -0.051  -2.899  -0.013  0.00  0.00    +0.088 C 
ENDROOT
BRANCH   8  10
ATOM     10  C   UNL     1      -1.076  -5.126  -0.438  0.00  0.00    -0.022 A 
ATOM     11  C   UNL     1      -1.236  -5.521   0.877  0.00  0.00    +0.008 A 
ATOM     12  C   UNL     1      -2.274  -6.365   1.224  0.00  0.00    +0.038 A 
ATOM     13  C   UNL     1      -3.154  -6.815   0.254  0.00  0.00    +0.123 A 
ATOM     14  C   UNL     1      -2.992  -6.418  -1.063  0.00  0.00    +0.038 A 
ATOM     15  C   UNL     1      -1.956  -5.570  -1.407  0.00  0.00    +0.008 A 
ATOM     16  F   UNL     1      -4.168  -7.640   0.591  0.00  0.00    -0.205 F 
ENDBRANCH   8  10
BRANCH   1  21
ATOM     17  C   UNL     1      -0.017   1.373   0.010  0.00  0.00    +0.001 A 
ATOM     18  C   UNL     1       1.170   2.089   0.002  0.00  0.00    +0.004 A 
ATOM     19  C   UNL     1       2.384   1.431  -0.013  0.00  0.00    +0.046 A 
ATOM     20  C   UNL     1       2.424   0.045  -0.021  0.00  0.00    +0.126 A 
ATOM     21  C   UNL     1       1.225  -0.685  -0.013  0.00  0.00    +0.038 A 
ATOM     22  C   UNL     1       0.002  -0.004   0.002  0.00  0.00    +0.013 A 
BRANCH  20  23
ATOM     23  O   UNL     1       3.616  -0.602  -0.036  0.00  0.00    -0.506 OA
ATOM     24  H   UNL     1       3.971  -0.795   0.843  0.00  0.00    +0.292 HD
ENDBRANCH  20  23
ENDBRANCH   1  21
TORSDOF 3
