REMARK  Name = ZINC11559472
REMARK  11 active torsions:
REMARK  status: ('A' for Active; 'I' for Inactive)
REMARK    1  A    between atoms: C_1  and  C_2
REMARK    2  A    between atoms: C_2  and  O_3
REMARK    3  A    between atoms: O_3  and  C_4
REMARK    4  A    between atoms: C_6  and  C_11
REMARK    5  A    between atoms: C_9  and  O_10
REMARK    6  A    between atoms: C_13  and  C_28
REMARK    7  A    between atoms: C_14  and  C_27
REMARK    8  A    between atoms: N_15  and  C_19
REMARK    9  A    between atoms: C_22  and  C_26
REMARK   10  A    between atoms: C_28  and  O_30
REMARK   11  A    between atoms: O_30  and  C_31
REMARK                            x       y       z     vdW  Elec       q    Type
REMARK                         _______ _______ _______ _____ _____    ______ ____
ROOT
ATOM      1  C   UNL     1       0.053   0.069  -0.020  0.00  0.00    +0.141 C 
ATOM      2  C   UNL     1       0.480   0.022  -1.473  0.00  0.00    +0.078 C 
ATOM      3  C   UNL     1       1.440  -0.864  -1.818  0.00  0.00    +0.027 C 
ATOM      4  N   UNL     1       2.005  -1.689  -0.888  0.00  0.00    -0.255 N 
ATOM      5  C   UNL     1       1.665  -1.690   0.407  0.00  0.00    +0.142 C 
ATOM      6  S   UNL     1       2.452  -2.778   1.469  0.00  0.00    -0.018 S 
ATOM      7  N   UNL     1       0.723  -0.863   0.903  0.00  0.00    -0.315 N 
ATOM      8  C   UNL     1       1.894  -0.943  -3.253  0.00  0.00    +0.062 C 
ATOM      9  H   UNL     1       0.493  -0.880   1.845  0.00  0.00    +0.149 HD
ENDROOT
BRANCH   4  10
ATOM     10  C   UNL     1       2.994  -2.584  -1.312  0.00  0.00    +0.043 A 
ATOM     11  C   UNL     1       4.330  -2.203  -1.297  0.00  0.00    +0.024 A 
ATOM     12  C   UNL     1       5.305  -3.089  -1.711  0.00  0.00    +0.008 A 
ATOM     13  C   UNL     1       4.953  -4.352  -2.150  0.00  0.00    -0.015 A 
ATOM     14  C   UNL     1       3.623  -4.734  -2.172  0.00  0.00    +0.128 A 
ATOM     15  C   UNL     1       2.642  -3.852  -1.753  0.00  0.00    +0.062 A 
ATOM     16  F   UNL     1       3.281  -5.969  -2.601  0.00  0.00    -0.205 F 
ATOM     17  C   UNL     1       6.020  -5.314  -2.606  0.00  0.00    +0.047 C 
ENDBRANCH   4  10
BRANCH   1  20
ATOM     18  C   UNL     1      -0.536   3.686   0.899  0.00  0.00    +0.162 A 
ATOM     19  C   UNL     1      -0.742   2.398   0.429  0.00  0.00    +0.055 A 
ATOM     20  C   UNL     1       0.280   1.470   0.487  0.00  0.00    -0.019 A 
ATOM     21  C   UNL     1       1.512   1.824   1.003  0.00  0.00    +0.009 A 
ATOM     22  C   UNL     1       1.726   3.108   1.469  0.00  0.00    +0.049 A 
ATOM     23  C   UNL     1       0.705   4.043   1.419  0.00  0.00    +0.158 A 
BRANCH  23  24
ATOM     24  O   UNL     1       0.914   5.307   1.875  0.00  0.00    -0.503 OA
ATOM     25  H   UNL     1       1.240   5.919   1.202  0.00  0.00    +0.292 HD
ENDBRANCH  23  24
BRANCH  18  26
ATOM     26  O   UNL     1      -1.542   4.599   0.847  0.00  0.00    -0.489 OA
BRANCH  26  28
ATOM     27  C   UNL     1      -3.789   5.318   0.326  0.00  0.00    +0.048 C 
ATOM     28  C   UNL     1      -2.788   4.162   0.301  0.00  0.00    +0.226 C 
ENDBRANCH  26  28
ENDBRANCH  18  26
ENDBRANCH   1  20
BRANCH   2  29
ATOM     29  C   UNL     1      -0.106   0.877  -2.435  0.00  0.00    +0.339 C 
ATOM     30  O   UNL     1       0.253   0.823  -3.597  0.00  0.00    -0.245 OA
BRANCH  29  31
ATOM     31  O   UNL     1      -1.063   1.754  -2.066  0.00  0.00    -0.465 OA
ATOM     32  C   UNL     1      -1.611   2.586  -3.089  0.00  0.00    +0.280 C 
ENDBRANCH  29  31
ENDBRANCH   2  29
TORSDOF 7
