REMARK  Name = ZINC35804832
REMARK  18 active torsions:
REMARK  status: ('A' for Active; 'I' for Inactive)
REMARK    1  A    between atoms: C_1  and  C_2
REMARK    2  A    between atoms: C_2  and  C_3
REMARK    3  A    between atoms: C_3  and  N_4
REMARK    4  A    between atoms: N_4  and  C_5
REMARK    5  A    between atoms: C_5  and  C_6
REMARK    6  A    between atoms: N_8  and  C_9
REMARK    7  A    between atoms: N_8  and  C_21
REMARK    8  A    between atoms: C_9  and  C_10
REMARK    9  A    between atoms: C_10  and  C_11
REMARK   10  A    between atoms: C_14  and  O_19
REMARK   11  A    between atoms: C_15  and  O_17
REMARK   12  A    between atoms: O_17  and  C_18
REMARK   13  A    between atoms: O_19  and  C_20
REMARK   14  A    between atoms: C_21  and  C_22
REMARK   15  A    between atoms: C_25  and  C_27
REMARK   16  A    between atoms: N_30  and  C_31
REMARK   17  A    between atoms: C_35  and  C_38
REMARK   18  A    between atoms: C_36  and  C_37
REMARK                            x       y       z     vdW  Elec       q    Type
REMARK                         _______ _______ _______ _____ _____    ______ ____
ROOT
ATOM      1  C   UNL     1       2.962  -2.921   1.562  0.00  0.00    +0.233 C 
ATOM      2  O   UNL     1       2.844  -2.529   2.704  0.00  0.00    -0.274 OA
ATOM      3  N   UNL     1       4.084  -3.565   1.183  0.00  0.00    -0.295 N 
ENDROOT
BRANCH   1   4
ATOM      4  C   UNL     1       1.854  -2.689   0.567  0.00  0.00    +0.205 C 
BRANCH   4   5
ATOM      5  N   UNL     1       0.754  -1.975   1.220  0.00  0.00    -0.277 N 
ATOM      6  C   UNL     1      -0.236  -2.666   1.819  0.00  0.00    +0.307 C 
ATOM      7  O   UNL     1      -0.215  -3.882   1.819  0.00  0.00    -0.252 OA
ATOM      8  N   UNL     1      -1.248  -2.010   2.420  0.00  0.00    -0.269 N 
ATOM      9  H   UNL     1      -1.224  -1.042   2.491  0.00  0.00    +0.156 HD
BRANCH   8  10
ATOM     10  C   UNL     1      -2.334  -2.723   2.940  0.00  0.00    +0.038 A 
ATOM     11  C   UNL     1      -2.654  -3.974   2.428  0.00  0.00    +0.023 A 
ATOM     12  C   UNL     1      -3.726  -4.675   2.943  0.00  0.00    +0.002 A 
ATOM     13  C   UNL     1      -4.481  -4.134   3.968  0.00  0.00    +0.004 A 
ATOM     14  C   UNL     1      -4.165  -2.888   4.479  0.00  0.00    -0.046 A 
ATOM     15  C   UNL     1      -3.090  -2.184   3.972  0.00  0.00    -0.026 A 
ATOM     16  C   UNL     1      -2.743  -0.830   4.534  0.00  0.00    +0.046 C 
ATOM     17  C   UNL     1      -4.991  -2.301   5.595  0.00  0.00    +0.044 C 
ENDBRANCH   8  10
BRANCH   5  18
ATOM     18  C   UNL     1       0.729  -0.510   1.220  0.00  0.00    +0.109 C 
BRANCH  18  20
ATOM     19  C   UNL     1      -0.048   1.517  -0.017  0.00  0.00    +0.005 C 
ATOM     20  C   UNL     1      -0.022  -0.013  -0.018  0.00  0.00    +0.016 C 
ENDBRANCH  18  20
ENDBRANCH   5  18
ENDBRANCH   4   5
ENDBRANCH   1   4
BRANCH   3  21
ATOM     21  C   UNL     1       5.161  -3.791   2.150  0.00  0.00    +0.113 C 
BRANCH  21  22
ATOM     22  C   UNL     1       4.939  -5.129   2.857  0.00  0.00    +0.054 C 
BRANCH  22  23
ATOM     23  C   UNL     1       6.046  -5.362   3.852  0.00  0.00    -0.042 A 
ATOM     24  C   UNL     1       7.199  -6.017   3.461  0.00  0.00    +0.007 A 
ATOM     25  C   UNL     1       8.218  -6.232   4.370  0.00  0.00    +0.049 A 
ATOM     26  C   UNL     1       8.086  -5.791   5.676  0.00  0.00    +0.161 A 
ATOM     27  C   UNL     1       6.926  -5.131   6.071  0.00  0.00    +0.162 A 
ATOM     28  C   UNL     1       5.910  -4.914   5.153  0.00  0.00    +0.053 A 
BRANCH  27  29
ATOM     29  O   UNL     1       6.791  -4.696   7.352  0.00  0.00    -0.491 OA
ATOM     30  C   UNL     1       5.574  -4.027   7.685  0.00  0.00    +0.277 C 
ENDBRANCH  27  29
BRANCH  26  31
ATOM     31  O   UNL     1       9.087  -6.003   6.572  0.00  0.00    -0.491 OA
ATOM     32  C   UNL     1      10.248  -6.687   6.097  0.00  0.00    +0.277 C 
ENDBRANCH  26  31
ENDBRANCH  22  23
ENDBRANCH  21  22
ENDBRANCH   3  21
BRANCH   3  33
ATOM     33  C   UNL     1       4.227  -4.038  -0.196  0.00  0.00    +0.150 C 
BRANCH  33  34
ATOM     34  C   UNL     1       4.864  -2.960  -1.034  0.00  0.00    +0.007 A 
ATOM     35  C   UNL     1       6.177  -2.736  -1.283  0.00  0.00    +0.013 A 
ATOM     36  C   UNL     1       6.535  -1.674  -2.092  0.00  0.00    +0.011 A 
ATOM     37  C   UNL     1       5.562  -0.888  -2.613  0.00  0.00    -0.013 A 
ATOM     38  S   UNL     1       4.084  -1.650  -1.963  0.00  0.00    -0.097 S 
ATOM     39  C   UNL     1       5.693   0.315  -3.511  0.00  0.00    +0.051 C 
ENDBRANCH  33  34
ENDBRANCH   3  33
TORSDOF 12
