REMARK  Name = ZINC41597913
REMARK  8 active torsions:
REMARK  status: ('A' for Active; 'I' for Inactive)
REMARK    1  A    between atoms: C_1  and  C_2
REMARK    2  A    between atoms: C_6  and  C_23
REMARK    3  A    between atoms: C_7  and  N_8
REMARK    4  A    between atoms: C_9  and  C_11
REMARK    5  A    between atoms: N_13  and  C_14
REMARK    6  A    between atoms: C_14  and  C_15
REMARK    7  A    between atoms: C_15  and  C_17
REMARK    8  A    between atoms: C_15  and  N_18
REMARK                            x       y       z     vdW  Elec       q    Type
REMARK                         _______ _______ _______ _____ _____    ______ ____
ROOT
ATOM      1  N   UNL     1       0.079   0.075   2.399  0.00  0.00    -0.277 N 
ATOM      2  C   UNL     1      -0.047  -0.566   3.578  0.00  0.00    +0.303 C 
ATOM      3  O   UNL     1       0.058  -1.775   3.625  0.00  0.00    -0.265 OA
ATOM      4  H   UNL     1       0.044   1.044   2.368  0.00  0.00    +0.155 HD
ENDROOT
BRANCH   1  11
ATOM      5  C   UNL     1       2.089   0.936   0.579  0.00  0.00    +0.046 C 
ATOM      6  C   UNL     1       1.229  -0.271   0.305  0.00  0.00    -0.028 A 
ATOM      7  C   UNL     1       1.408  -0.998  -0.855  0.00  0.00    +0.020 A 
ATOM      8  C   UNL     1       0.619  -2.106  -1.108  0.00  0.00    +0.018 A 
ATOM      9  C   UNL     1      -0.352  -2.489  -0.199  0.00  0.00    +0.020 A 
ATOM     10  C   UNL     1      -0.536  -1.766   0.963  0.00  0.00    -0.028 A 
ATOM     11  C   UNL     1       0.259  -0.656   1.222  0.00  0.00    +0.040 A 
ATOM     12  C   UNL     1      -1.594  -2.183   1.952  0.00  0.00    +0.046 C 
ATOM     13 BR   UNL     1       0.867  -3.099  -2.698  0.00  0.00    -0.050 Br
ENDBRANCH   1  11
BRANCH   2  14
ATOM     14  C   UNL     1      -0.316   0.210   4.825  0.00  0.00    +0.299 C 
ATOM     15  O   UNL     1      -0.421   1.418   4.777  0.00  0.00    -0.265 OA
ATOM     16  N   UNL     1      -0.442  -0.432   6.004  0.00  0.00    -0.309 N 
ATOM     17  H   UNL     1      -0.358  -1.397   6.042  0.00  0.00    +0.149 HD
BRANCH  16  18
ATOM     18  C   UNL     1      -0.706   0.330   7.227  0.00  0.00    +0.089 C 
BRANCH  18  19
ATOM     19  C   UNL     1      -0.932  -0.638   8.391  0.00  0.00    -0.054 C 
ATOM     20  C   UNL     1      -2.212  -1.440   8.145  0.00  0.00    -0.012 C 
BRANCH  19  21
ATOM     21  N   UNL     1      -1.063   0.122   9.641  0.00  0.00    +0.382 N 
ATOM     22  C   UNL     1      -1.141  -0.805  10.799  0.00  0.00    -0.078 C 
ATOM     23  C   UNL     1      -0.710   0.082  11.993  0.00  0.00    -0.020 C 
ATOM     24  C   UNL     1       0.402   0.966  11.384  0.00  0.00    -0.020 C 
ATOM     25  C   UNL     1       0.144   0.946   9.866  0.00  0.00    -0.078 C 
ATOM     26  H   UNL     1      -1.883   0.709   9.608  0.00  0.00    -0.081 HD
ENDBRANCH  19  21
ENDBRANCH  18  19
ENDBRANCH  16  18
ENDBRANCH   2  14
TORSDOF 5
