REMARK  Name = ZINC36503305
REMARK  13 active torsions:
REMARK  status: ('A' for Active; 'I' for Inactive)
REMARK    1  A    between atoms: C_1  and  C_2
REMARK    2  A    between atoms: C_5  and  S_8
REMARK    3  A    between atoms: S_8  and  C_11
REMARK    4  A    between atoms: C_11  and  N_12
REMARK    5  A    between atoms: C_13  and  C_15
REMARK    6  A    between atoms: C_15  and  C_17
REMARK    7  A    between atoms: C_15  and  N_26
REMARK    8  A    between atoms: C_18  and  O_25
REMARK    9  A    between atoms: C_20  and  O_24
REMARK   10  A    between atoms: C_22  and  O_23
REMARK   11  A    between atoms: N_26  and  C_27
REMARK   12  A    between atoms: C_27  and  C_28
REMARK   13  A    between atoms: C_33  and  C_35
REMARK                            x       y       z     vdW  Elec       q    Type
REMARK                         _______ _______ _______ _____ _____    ______ ____
ROOT
ATOM      1  C   UNL     1       2.675  -4.949   4.868  0.00  0.00    +0.200 C 
ENDROOT
BRANCH   1   2
ATOM      2  C   UNL     1       3.620  -3.844   5.264  0.00  0.00    +0.065 A 
ATOM      3  C   UNL     1       4.975  -3.959   4.992  0.00  0.00    +0.129 A 
ATOM      4  C   UNL     1       5.844  -2.942   5.357  0.00  0.00    +0.091 A 
ATOM      5  C   UNL     1       5.358  -1.809   5.992  0.00  0.00    +0.124 A 
ATOM      6  C   UNL     1       4.003  -1.693   6.263  0.00  0.00    +0.091 A 
ATOM      7  C   UNL     1       3.133  -2.709   5.894  0.00  0.00    +0.129 A 
BRANCH   7   8
ATOM      8  O   UNL     1       1.805  -2.593   6.155  0.00  0.00    -0.506 OA
ATOM      9  H   UNL     1       1.541  -2.945   7.017  0.00  0.00    +0.292 HD
ENDBRANCH   7   8
BRANCH   5  10
ATOM     10  O   UNL     1       6.210  -0.813   6.350  0.00  0.00    -0.507 OA
ATOM     11  H   UNL     1       6.333  -0.137   5.670  0.00  0.00    +0.292 HD
ENDBRANCH   5  10
BRANCH   3  12
ATOM     12  O   UNL     1       5.451  -5.069   4.370  0.00  0.00    -0.506 OA
ATOM     13  H   UNL     1       5.420  -5.023   3.404  0.00  0.00    +0.292 HD
ENDBRANCH   3  12
ENDBRANCH   1   2
BRANCH   1  15
ATOM     14  N   UNL     1       1.606  -4.171   2.777  0.00  0.00    -0.294 N 
ATOM     15  C   UNL     1       2.521  -4.965   3.369  0.00  0.00    +0.240 C 
ATOM     16  O   UNL     1       3.220  -5.691   2.695  0.00  0.00    -0.273 OA
ATOM     17  H   UNL     1       1.047  -3.590   3.317  0.00  0.00    +0.150 HD
BRANCH  14  18
ATOM     18  C   UNL     1       1.456  -4.186   1.320  0.00  0.00    +0.278 C 
BRANCH  18  19
ATOM     19  S   UNL     1       0.124  -5.330   0.862  0.00  0.00    +0.013 S 
ATOM     20  O   UNL     1       0.278  -6.562   1.553  0.00  0.00    -0.168 OA
ATOM     21  O   UNL     1      -0.076  -5.309  -0.545  0.00  0.00    -0.168 OA
BRANCH  19  26
ATOM     22  C   UNL     1      -4.887  -2.888   3.168  0.00  0.00    +0.044 C 
ATOM     23  C   UNL     1      -3.635  -3.498   2.592  0.00  0.00    -0.050 A 
ATOM     24  C   UNL     1      -3.233  -3.169   1.311  0.00  0.00    +0.005 A 
ATOM     25  C   UNL     1      -2.084  -3.728   0.783  0.00  0.00    +0.027 A 
ATOM     26  C   UNL     1      -1.339  -4.616   1.535  0.00  0.00    +0.090 A 
ATOM     27  C   UNL     1      -1.741  -4.944   2.817  0.00  0.00    +0.027 A 
ATOM     28  C   UNL     1      -2.887  -4.381   3.347  0.00  0.00    +0.005 A 
ENDBRANCH  19  26
ENDBRANCH  18  19
ENDBRANCH  14  18
ENDBRANCH   1  15
BRANCH   1  29
ATOM     29  N   UNL     1       3.214  -6.236   5.316  0.00  0.00    -0.277 N 
ATOM     30  C   UNL     1       3.818  -6.332   6.517  0.00  0.00    +0.231 C 
ATOM     31  O   UNL     1       4.345  -7.372   6.850  0.00  0.00    -0.274 OA
BRANCH  30  32
ATOM     32  C   UNL     1       3.838  -5.146   7.447  0.00  0.00    +0.204 C 
ATOM     33 CL   UNL     1       4.569  -5.630   9.023  0.00  0.00    -0.116 Cl
ENDBRANCH  30  32
BRANCH  29  34
ATOM     34  C   UNL     1       3.096  -7.418   4.460  0.00  0.00    +0.183 C 
BRANCH  34  35
ATOM     35  C   UNL     1       4.445  -7.755   3.880  0.00  0.00    +0.122 A 
ATOM     36  C   UNL     1       5.465  -8.330   4.542  0.00  0.00    +0.046 A 
ATOM     37  C   UNL     1       6.530  -8.461   3.621  0.00  0.00    +0.041 A 
ATOM     38  C   UNL     1       6.097  -7.959   2.451  0.00  0.00    +0.195 A 
ATOM     39  O   UNL     1       4.832  -7.538   2.612  0.00  0.00    -0.466 OA
ENDBRANCH  34  35
ENDBRANCH  29  34
ENDBRANCH   1  29
TORSDOF 12
