REMARK  Name = ZINC33810226
REMARK  7 active torsions:
REMARK  status: ('A' for Active; 'I' for Inactive)
REMARK    1  A    between atoms: C_1  and  C_2
REMARK    2  A    between atoms: C_5  and  C_8
REMARK    3  A    between atoms: C_8  and  S_9
REMARK    4  A    between atoms: S_9  and  C_10
REMARK    5  A    between atoms: C_17  and  C_27
REMARK    6  A    between atoms: C_32  and  O_33
REMARK    7  A    between atoms: O_33  and  C_34
REMARK                            x       y       z     vdW  Elec       q    Type
REMARK                         _______ _______ _______ _____ _____    ______ ____
ROOT
ATOM      1  C   UNL     1       1.835   6.747  -3.471  0.00  0.00    +0.171 A 
ATOM      2  N   UNL     1       2.503   6.795  -2.285  0.00  0.00    -0.208 NA
ATOM      3  C   UNL     1       1.901   6.346  -1.139  0.00  0.00    +0.135 A 
ATOM      4  C   UNL     1       0.634   5.856  -1.201  0.00  0.00    +0.069 A 
ATOM      5  C   UNL     1      -0.025   5.827  -2.449  0.00  0.00    +0.258 A 
ATOM      6  O   UNL     1      -1.166   5.395  -2.532  0.00  0.00    -0.267 OA
ATOM      7  N   UNL     1       0.608   6.276  -3.543  0.00  0.00    -0.302 N 
ATOM      8  C   UNL     1      -0.059   5.351   0.030  0.00  0.00    +0.096 C 
ATOM      9  C   UNL     1       0.620   5.845   1.283  0.00  0.00    +0.024 C 
ATOM     10  C   UNL     1       1.877   6.334   1.245  0.00  0.00    +0.017 C 
ATOM     11  N   UNL     1       2.566   6.395   0.064  0.00  0.00    -0.302 N 
ATOM     12  C   UNL     1       2.556   6.831   2.497  0.00  0.00    +0.051 C 
ATOM     13  C   UNL     1       2.040   6.048   3.707  0.00  0.00    +0.014 C 
ATOM     14  C   UNL     1       0.520   6.228   3.788  0.00  0.00    +0.080 C 
ATOM     15  C   UNL     1      -0.096   5.778   2.491  0.00  0.00    +0.162 C 
ATOM     16  O   UNL     1      -1.232   5.348   2.489  0.00  0.00    -0.292 OA
ATOM     17  H   UNL     1       3.662   6.484   0.083  0.00  0.00    +0.153 HD
ATOM     18  H   UNL     1       0.086   6.247  -4.511  0.00  0.00    +0.171 HD
ENDROOT
BRANCH   8  19
ATOM     19  C   UNL     1      -0.043   3.844   0.022  0.00  0.00    +0.006 A 
ATOM     20  C   UNL     1       1.161   3.165   0.008  0.00  0.00    +0.008 A 
ATOM     21  C   UNL     1       1.176   1.783   0.000  0.00  0.00    +0.001 A 
ATOM     22  C   UNL     1      -0.013   1.076   0.008  0.00  0.00    +0.004 A 
ATOM     23  C   UNL     1      -1.218   1.750   0.017  0.00  0.00    +0.046 A 
ATOM     24  C   UNL     1      -1.236   3.137   0.029  0.00  0.00    +0.124 A 
BRANCH  24  25
ATOM     25  O   UNL     1      -2.421   3.802   0.044  0.00  0.00    -0.495 OA
ATOM     26  C   UNL     1      -3.610   3.009   0.050  0.00  0.00    +0.277 C 
ENDBRANCH  24  25
ENDBRANCH   8  19
BRANCH   1  27
ATOM     27  S   UNL     1       2.628   7.325  -4.935  0.00  0.00    -0.083 S 
BRANCH  27  28
ATOM     28  C   UNL     1       1.313   7.027  -6.143  0.00  0.00    +0.112 C 
BRANCH  28  33
ATOM     29  C   UNL     1       3.100   8.684 -11.383  0.00  0.00    +0.044 C 
ATOM     30  C   UNL     1       2.634   8.252 -10.017  0.00  0.00    -0.050 A 
ATOM     31  C   UNL     1       2.853   6.955  -9.589  0.00  0.00    +0.003 A 
ATOM     32  C   UNL     1       2.426   6.559  -8.336  0.00  0.00    +0.005 A 
ATOM     33  C   UNL     1       1.780   7.459  -7.509  0.00  0.00    -0.037 A 
ATOM     34  C   UNL     1       1.556   8.754  -7.939  0.00  0.00    +0.005 A 
ATOM     35  C   UNL     1       1.987   9.152  -9.190  0.00  0.00    +0.003 A 
ENDBRANCH  28  33
ENDBRANCH  27  28
ENDBRANCH   1  27
TORSDOF 5
