REMARK  Name = ZINC12539048
REMARK  7 active torsions:
REMARK  status: ('A' for Active; 'I' for Inactive)
REMARK    1  A    between atoms: C_1  and  C_2
REMARK    2  A    between atoms: C_3  and  C_22
REMARK    3  A    between atoms: C_7  and  N_21
REMARK    4  A    between atoms: C_9  and  S_11
REMARK    5  A    between atoms: S_11  and  C_12
REMARK    6  A    between atoms: C_12  and  C_13
REMARK    7  A    between atoms: C_16  and  C_19
REMARK                            x       y       z     vdW  Elec       q    Type
REMARK                         _______ _______ _______ _____ _____    ______ ____
ROOT
ATOM      1  C   UNL     1       3.800   1.809   1.525  0.00  0.00    +0.045 C 
ATOM      2  C   UNL     1       2.301   1.886   1.393  0.00  0.00    -0.028 A 
ATOM      3  C   UNL     1       1.674   3.068   1.470  0.00  0.00    -0.008 A 
ATOM      4  S   UNL     1      -0.044   2.643   1.259  0.00  0.00    -0.073 S 
ATOM      5  C   UNL     1       0.127   0.887   1.074  0.00  0.00    +0.115 A 
ATOM      6  C   UNL     1       1.519   0.680   1.181  0.00  0.00    +0.050 A 
ATOM      7  C   UNL     1       1.948  -0.672   1.066  0.00  0.00    +0.129 A 
ATOM      8  N   UNL     1       1.049  -1.622   0.873  0.00  0.00    -0.207 NA
ATOM      9  C   UNL     1      -0.249  -1.357   0.781  0.00  0.00    +0.191 A 
ATOM     10  N   UNL     1      -0.707  -0.116   0.880  0.00  0.00    -0.215 NA
ATOM     11  C   UNL     1       2.278   4.433   1.683  0.00  0.00    +0.052 C 
ENDROOT
BRANCH   7  12
ATOM     12  N   UNL     1       3.291  -0.989   1.157  0.00  0.00    -0.343 N 
ATOM     13  H   UNL     1       3.961  -0.350   0.867  0.00  0.00    +0.144 HD
ATOM     14  H   UNL     1       3.563  -1.850   1.510  0.00  0.00    +0.144 HD
ENDBRANCH   7  12
BRANCH   9  15
ATOM     15  S   UNL     1      -1.385  -2.679   0.523  0.00  0.00    -0.081 S 
BRANCH  15  16
ATOM     16  C   UNL     1      -0.235  -4.076   0.471  0.00  0.00    +0.112 C 
BRANCH  16  17
ATOM     17  C   UNL     1      -1.005  -5.353   0.253  0.00  0.00    -0.037 A 
ATOM     18  C   UNL     1      -1.464  -6.075   1.340  0.00  0.00    +0.006 A 
ATOM     19  C   UNL     1      -2.174  -7.242   1.147  0.00  0.00    +0.019 A 
ATOM     20  C   UNL     1      -2.420  -7.700  -0.149  0.00  0.00    +0.052 A 
ATOM     21  C   UNL     1      -1.949  -6.968  -1.241  0.00  0.00    +0.019 A 
ATOM     22  C   UNL     1      -1.246  -5.800  -1.034  0.00  0.00    +0.006 A 
BRANCH  20  23
ATOM     23  C   UNL     1      -3.151  -8.913  -0.356  0.00  0.00    +0.099 C 
ATOM     24  N   UNL     1      -3.732  -9.875  -0.521  0.00  0.00    -0.191 NA
ENDBRANCH  20  23
ENDBRANCH  16  17
ENDBRANCH  15  16
ENDBRANCH   9  15
TORSDOF 5
