REMARK  Name = ZINC62038781
REMARK  11 active torsions:
REMARK  status: ('A' for Active; 'I' for Inactive)
REMARK    1  A    between atoms: C_1  and  C_2
REMARK    2  A    between atoms: C_4  and  C_10
REMARK    3  A    between atoms: C_7  and  O_8
REMARK    4  A    between atoms: O_8  and  C_9
REMARK    5  A    between atoms: C_18  and  S_20
REMARK    6  A    between atoms: S_20  and  C_21
REMARK    7  A    between atoms: C_21  and  C_23
REMARK    8  A    between atoms: C_21  and  C_24
REMARK    9  A    between atoms: N_26  and  C_27
REMARK   10  A    between atoms: C_29  and  C_34
REMARK   11  A    between atoms: C_32  and  O_33
REMARK                            x       y       z     vdW  Elec       q    Type
REMARK                         _______ _______ _______ _____ _____    ______ ____
ROOT
ATOM      1  C   UNL     1       0.062  -2.777  -2.539  0.00  0.00    +0.004 A 
ATOM      2  C   UNL     1      -0.831  -2.478  -3.512  0.00  0.00    +0.056 A 
ATOM      3  S   UNL     1      -0.416  -3.624  -4.813  0.00  0.00    -0.078 S 
ATOM      4  C   UNL     1       0.929  -4.465  -4.024  0.00  0.00    +0.093 A 
ATOM      5  C   UNL     1       1.031  -3.840  -2.780  0.00  0.00    +0.080 A 
ATOM      6  C   UNL     1       2.103  -4.356  -1.897  0.00  0.00    +0.283 A 
ATOM      7  O   UNL     1       2.270  -3.877  -0.786  0.00  0.00    -0.265 OA
ATOM      8  N   UNL     1       2.885  -5.350  -2.328  0.00  0.00    -0.185 NA
ATOM      9  C   UNL     1       2.741  -5.895  -3.518  0.00  0.00    +0.171 A 
ATOM     10  N   UNL     1       1.770  -5.477  -4.378  0.00  0.00    -0.328 N 
ATOM     11  H   UNL     1       1.683  -5.894  -5.249  0.00  0.00    +0.168 HD
ENDROOT
BRANCH   1  15
ATOM     12  C   UNL     1       0.032   1.553  -0.056  0.00  0.00    +0.047 C 
ATOM     13  C   UNL     1       0.043   0.046  -0.058  0.00  0.00    -0.008 A 
ATOM     14  C   UNL     1       0.048  -0.642  -1.254  0.00  0.00    +0.015 A 
ATOM     15  C   UNL     1       0.058  -2.036  -1.255  0.00  0.00    -0.016 A 
ATOM     16  C   UNL     1       0.065  -2.731  -0.046  0.00  0.00    +0.012 A 
ATOM     17  C   UNL     1       0.061  -2.038   1.146  0.00  0.00    +0.046 A 
ATOM     18  C   UNL     1       0.056  -0.649   1.143  0.00  0.00    +0.123 A 
BRANCH  18  19
ATOM     19  O   UNL     1       0.058   0.031   2.320  0.00  0.00    -0.495 OA
ATOM     20  C   UNL     1       0.071  -0.747   3.519  0.00  0.00    +0.277 C 
ENDBRANCH  18  19
ENDBRANCH   1  15
BRANCH   9  21
ATOM     21  S   UNL     1       3.818  -7.202  -4.004  0.00  0.00    -0.075 S 
BRANCH  21  22
ATOM     22  C   UNL     1       4.912  -7.423  -2.574  0.00  0.00    +0.137 C 
ATOM     23  C   UNL     1       4.094  -7.912  -1.377  0.00  0.00    +0.029 C 
BRANCH  22  24
ATOM     24  C   UNL     1       5.973  -8.441  -2.906  0.00  0.00    +0.230 C 
ATOM     25  O   UNL     1       5.802  -9.220  -3.820  0.00  0.00    -0.274 OA
ATOM     26  N   UNL     1       7.113  -8.485  -2.188  0.00  0.00    -0.282 N 
ATOM     27  H   UNL     1       7.279  -7.821  -1.501  0.00  0.00    +0.155 HD
BRANCH  26  28
ATOM     28  C   UNL     1       8.059  -9.489  -2.435  0.00  0.00    +0.076 A 
ATOM     29  C   UNL     1       8.252  -9.955  -3.722  0.00  0.00    +0.038 A 
ATOM     30  C   UNL     1       9.197 -10.959  -3.964  0.00  0.00    +0.016 A 
ATOM     31  C   UNL     1       9.942 -11.485  -2.901  0.00  0.00    +0.015 A 
ATOM     32  C   UNL     1       9.743 -11.016  -1.622  0.00  0.00    +0.048 A 
ATOM     33  C   UNL     1       8.809 -10.016  -1.382  0.00  0.00    +0.138 A 
BRANCH  33  34
ATOM     34  O   UNL     1       8.622  -9.553  -0.120  0.00  0.00    -0.505 OA
ATOM     35  H   UNL     1       7.949 -10.035   0.379  0.00  0.00    +0.292 HD
ENDBRANCH  33  34
BRANCH  30  36
ATOM     36  C   UNL     1       9.408 -11.459  -5.329  0.00  0.00    +0.258 C 
ATOM     37  O   UNL     1      10.227 -12.328  -5.537  0.00  0.00    -0.296 OA
ENDBRANCH  30  36
ENDBRANCH  26  28
ENDBRANCH  22  24
ENDBRANCH  21  22
ENDBRANCH   9  21
TORSDOF 8
