REMARK  Name = ZINC64158296
REMARK  12 active torsions:
REMARK  status: ('A' for Active; 'I' for Inactive)
REMARK    1  A    between atoms: C_1  and  C_2
REMARK    2  A    between atoms: C_10  and  C_12
REMARK    3  A    between atoms: N_14  and  C_15
REMARK    4  A    between atoms: C_15  and  C_16
REMARK    5  A    between atoms: C_16  and  C_18
REMARK    6  A    between atoms: C_16  and  O_19
REMARK    7  A    between atoms: O_19  and  C_20
REMARK    8  A    between atoms: C_24  and  C_26
REMARK    9  A    between atoms: C_26  and  N_27
REMARK   10  A    between atoms: N_27  and  C_28
REMARK   11  A    between atoms: N_27  and  C_29
REMARK   12  A    between atoms: C_29  and  C_30
REMARK                            x       y       z     vdW  Elec       q    Type
REMARK                         _______ _______ _______ _____ _____    ______ ____
ROOT
ATOM      1  C   UNL     1       2.308   1.856   4.537  0.00  0.00    +0.187 C 
ATOM      2  C   UNL     1       3.403   2.196   5.550  0.00  0.00    +0.053 C 
ENDROOT
BRANCH   1   3
ATOM      3  C   UNL     1       2.765   0.681   3.669  0.00  0.00    +0.148 C 
BRANCH   3   6
ATOM      4  C   UNL     1       1.899  -0.654   1.824  0.00  0.00    +0.240 C 
ATOM      5  O   UNL     1       2.931  -1.292   1.840  0.00  0.00    -0.273 OA
ATOM      6  N   UNL     1       1.717   0.355   2.699  0.00  0.00    -0.310 N 
ATOM      7  H   UNL     1       0.892   0.865   2.686  0.00  0.00    +0.149 HD
BRANCH   4  17
ATOM      8  C   UNL     1       0.698   1.466  -0.295  0.00  0.00    +0.042 C 
ATOM      9  C   UNL     1       0.875  -0.030  -0.342  0.00  0.00    -0.033 C 
ATOM     10  C   UNL     1       1.121  -0.785  -1.437  0.00  0.00    +0.001 A 
ATOM     11  C   UNL     1       1.289  -0.453  -2.857  0.00  0.00    +0.030 A 
ATOM     12  C   UNL     1       1.530  -1.450  -3.740  0.00  0.00    +0.042 A 
ATOM     13  C   UNL     1       1.623  -2.789  -3.333  0.00  0.00    +0.022 A 
ATOM     14  C   UNL     1       1.480  -3.171  -2.047  0.00  0.00    +0.027 A 
ATOM     15  C   UNL     1       1.224  -2.206  -1.034  0.00  0.00    +0.043 A 
ATOM     16  N   UNL     1       1.049  -2.324   0.260  0.00  0.00    -0.370 N 
ATOM     17  C   UNL     1       0.821  -0.990   0.825  0.00  0.00    +0.193 C 
ATOM     18 CL   UNL     1       1.730  -1.061  -5.420  0.00  0.00    -0.084 Cl
ATOM     19  H   UNL     1       1.071  -3.155   0.761  0.00  0.00    +0.161 HD
ENDBRANCH   4  17
ENDBRANCH   3   6
ENDBRANCH   1   3
BRANCH   1  20
ATOM     20  O   UNL     1       2.058   2.991   3.707  0.00  0.00    -0.488 OA
BRANCH  20  21
ATOM     21  C   UNL     1       1.187   3.921   4.180  0.00  0.00    +0.121 A 
ATOM     22  C   UNL     1       0.807   4.989   3.380  0.00  0.00    +0.045 A 
ATOM     23  C   UNL     1      -0.078   5.933   3.863  0.00  0.00    +0.004 A 
ATOM     24  C   UNL     1      -0.586   5.814   5.144  0.00  0.00    +0.002 A 
ATOM     25  C   UNL     1      -0.209   4.751   5.944  0.00  0.00    -0.060 A 
ATOM     26  C   UNL     1       0.672   3.802   5.463  0.00  0.00    +0.047 A 
BRANCH  25  27
ATOM     27  C   UNL     1      -0.763   4.625   7.339  0.00  0.00    -0.043 C 
BRANCH  27  28
ATOM     28  N   UNL     1      -2.004   3.840   7.304  0.00  0.00    +0.384 N 
ATOM     29  C   UNL     1      -1.702   2.466   6.880  0.00  0.00    -0.095 C 
ATOM     30  H   UNL     1      -2.649   4.259   6.651  0.00  0.00    -0.081 HD
BRANCH  28  31
ATOM     31  C   UNL     1      -2.608   3.818   8.643  0.00  0.00    -0.022 C 
BRANCH  31  32
ATOM     32  C   UNL     1      -3.941   3.117   8.581  0.00  0.00    +0.032 A 
ATOM     33  C   UNL     1      -4.064   1.797   8.873  0.00  0.00    +0.068 A 
ATOM     34  S   UNL     1      -5.817   1.567   8.628  0.00  0.00    -0.084 S 
ATOM     35  C   UNL     1      -6.198   3.147   8.189  0.00  0.00    +0.156 A 
ATOM     36  N   UNL     1      -5.043   3.760   8.246  0.00  0.00    -0.254 NA
ENDBRANCH  31  32
ENDBRANCH  28  31
ENDBRANCH  27  28
ENDBRANCH  25  27
ENDBRANCH  20  21
ENDBRANCH   1  20
TORSDOF 9
