REMARK  Name = ZINC46896059
REMARK  10 active torsions:
REMARK  status: ('A' for Active; 'I' for Inactive)
REMARK    1  A    between atoms: C_1  and  C_2
REMARK    2  A    between atoms: C_2  and  C_4
REMARK    3  A    between atoms: C_2  and  N_14
REMARK    4  A    between atoms: C_7  and  S_10
REMARK    5  A    between atoms: S_10  and  N_13
REMARK    6  A    between atoms: C_15  and  C_17
REMARK    7  A    between atoms: C_17  and  N_18
REMARK    8  A    between atoms: N_18  and  C_19
REMARK    9  A    between atoms: N_18  and  S_20
REMARK   10  A    between atoms: S_20  and  C_23
REMARK                            x       y       z     vdW  Elec       q    Type
REMARK                         _______ _______ _______ _____ _____    ______ ____
ROOT
ATOM      1  N   UNL     1       0.711  -0.489   1.189  0.00  0.00    -0.308 N 
ATOM      2  C   UNL     1       2.054  -0.600   1.174  0.00  0.00    +0.229 C 
ATOM      3  O   UNL     1       2.676  -0.297   0.177  0.00  0.00    -0.274 OA
ATOM      4  H   UNL     1       0.213  -0.731   1.986  0.00  0.00    +0.149 HD
ENDROOT
BRANCH   1   6
ATOM      5  C   UNL     1      -0.019   1.526   0.010  0.00  0.00    +0.033 C 
ATOM      6  C   UNL     1       0.002  -0.004   0.002  0.00  0.00    +0.100 C 
BRANCH   6   7
ATOM      7  C   UNL     1      -1.412  -0.526   0.013  0.00  0.00    -0.027 A 
ATOM      8  C   UNL     1      -2.123  -0.571   1.197  0.00  0.00    +0.007 A 
ATOM      9  C   UNL     1      -3.420  -1.049   1.207  0.00  0.00    +0.029 A 
ATOM     10  C   UNL     1      -4.006  -1.482   0.032  0.00  0.00    +0.105 A 
ATOM     11  C   UNL     1      -3.295  -1.436  -1.153  0.00  0.00    +0.029 A 
ATOM     12  C   UNL     1      -2.000  -0.954  -1.163  0.00  0.00    +0.007 A 
BRANCH  10  13
ATOM     13  S   UNL     1      -5.658  -2.093   0.045  0.00  0.00    +0.056 S 
ATOM     14  O   UNL     1      -5.785  -2.944  -1.086  0.00  0.00    -0.153 OA
ATOM     15  O   UNL     1      -5.915  -2.542   1.369  0.00  0.00    -0.153 OA
BRANCH  13  16
ATOM     16  N   UNL     1      -6.660  -0.801  -0.219  0.00  0.00    -0.204 NA
ATOM     17  H   UNL     1      -6.286   0.085  -0.345  0.00  0.00    +0.144 HD
ATOM     18  H   UNL     1      -7.621  -0.931  -0.249  0.00  0.00    +0.144 HD
ENDBRANCH  13  16
ENDBRANCH  10  13
ENDBRANCH   6   7
ENDBRANCH   1   6
BRANCH   2  19
ATOM     19  C   UNL     1       2.783  -1.099   2.395  0.00  0.00    +0.204 C 
BRANCH  19  20
ATOM     20  N   UNL     1       4.223  -1.127   2.126  0.00  0.00    -0.171 NA
ATOM     21  C   UNL     1       5.027   0.083   2.314  0.00  0.00    +0.132 C 
BRANCH  20  22
ATOM     22  S   UNL     1       4.941  -2.527   1.611  0.00  0.00    +0.061 S 
ATOM     23  O   UNL     1       6.314  -2.434   1.968  0.00  0.00    -0.153 OA
ATOM     24  O   UNL     1       4.111  -3.595   2.047  0.00  0.00    -0.153 OA
BRANCH  22  25
ATOM     25  C   UNL     1       4.878  -2.528  -0.150  0.00  0.00    +0.106 A 
ATOM     26  C   UNL     1       3.792  -3.080  -0.802  0.00  0.00    +0.029 A 
ATOM     27  C   UNL     1       3.742  -3.080  -2.184  0.00  0.00    +0.017 A 
ATOM     28  C   UNL     1       4.779  -2.527  -2.913  0.00  0.00    +0.018 A 
ATOM     29  C   UNL     1       5.865  -1.974  -2.260  0.00  0.00    +0.017 A 
ATOM     30  C   UNL     1       5.912  -1.970  -0.879  0.00  0.00    +0.029 A 
ATOM     31 BR   UNL     1       4.711  -2.528  -4.803  0.00  0.00    -0.050 Br
ENDBRANCH  22  25
ENDBRANCH  20  22
ENDBRANCH  19  20
ENDBRANCH   2  19
TORSDOF 8
