REMARK  Name = ZINC61861526
REMARK  3 active torsions:
REMARK  status: ('A' for Active; 'I' for Inactive)
REMARK    1  A    between atoms: C_6  and  C_7
REMARK    2  A    between atoms: C_7  and  C_9
REMARK    3  A    between atoms: C_7  and  N_16
REMARK                            x       y       z     vdW  Elec       q    Type
REMARK                         _______ _______ _______ _____ _____    ______ ____
ROOT
ATOM      1  C   UNL     1      -0.017   1.378   0.010  0.00  0.00    +0.004 A 
ATOM      2  C   UNL     1       1.169   2.087   0.002  0.00  0.00    +0.024 A 
ATOM      3  C   UNL     1       2.380   1.409  -0.013  0.00  0.00    +0.037 A 
ATOM      4  C   UNL     1       2.396   0.020  -0.020  0.00  0.00    -0.025 A 
ATOM      5  C   UNL     1       1.208  -0.682  -0.013  0.00  0.00    +0.007 A 
ATOM      6  C   UNL     1       0.002  -0.004   0.002  0.00  0.00    -0.056 A 
ATOM      7  C   UNL     1       3.711  -0.715  -0.036  0.00  0.00    +0.046 C 
ATOM      8  C   UNL     1       4.733   0.084  -0.846  0.00  0.00    +0.101 C 
ATOM      9  C   UNL     1       4.727   1.522  -0.402  0.00  0.00    +0.218 C 
ATOM     10  O   UNL     1       5.766   2.148  -0.389  0.00  0.00    -0.275 OA
ATOM     11  N   UNL     1       3.584   2.120  -0.020  0.00  0.00    -0.285 N 
ATOM     12  H   UNL     1       3.595   3.051   0.251  0.00  0.00    +0.155 HD
ENDROOT
BRANCH   6  13
ATOM     13  C   UNL     1      -1.294  -0.774   0.011  0.00  0.00    +0.006 C 
BRANCH  13  14
ATOM     14  C   UNL     1      -1.838  -0.825   1.415  0.00  0.00    +0.031 A 
ATOM     15  C   UNL     1      -3.124  -0.385   1.666  0.00  0.00    +0.023 A 
ATOM     16  C   UNL     1      -3.615  -0.436   2.961  0.00  0.00    +0.018 A 
ATOM     17  C   UNL     1      -2.790  -0.932   3.961  0.00  0.00    +0.036 A 
ATOM     18  C   UNL     1      -1.515  -1.355   3.634  0.00  0.00    +0.126 A 
ATOM     19  N   UNL     1      -1.083  -1.296   2.389  0.00  0.00    -0.260 NA
ATOM     20 BR   UNL     1      -3.402  -1.028   5.747  0.00  0.00    -0.049 Br
ENDBRANCH  13  14
BRANCH  13  21
ATOM     21  N   UNL     1      -2.265  -0.107  -0.867  0.00  0.00    +0.386 N 
ATOM     22  H   UNL     1      -1.901  -0.072  -1.807  0.00  0.00    -0.089 HD
ATOM     23  H   UNL     1      -3.133  -0.622  -0.861  0.00  0.00    -0.089 HD
ATOM     24  H   UNL     1      -2.429   0.832  -0.534  0.00  0.00    -0.089 HD
ENDBRANCH  13  21
ENDBRANCH   6  13
TORSDOF 3
