REMARK  Name = ZINC36062524
REMARK  9 active torsions:
REMARK  status: ('A' for Active; 'I' for Inactive)
REMARK    1  A    between atoms: C_1  and  C_2
REMARK    2  A    between atoms: N_11  and  C_15
REMARK    3  A    between atoms: C_15  and  C_16
REMARK    4  A    between atoms: N_18  and  C_19
REMARK    5  A    between atoms: C_19  and  C_20
REMARK    6  A    between atoms: C_20  and  C_22
REMARK    7  A    between atoms: C_20  and  N_30
REMARK    8  A    between atoms: C_27  and  O_28
REMARK    9  A    between atoms: O_28  and  C_29
REMARK                            x       y       z     vdW  Elec       q    Type
REMARK                         _______ _______ _______ _____ _____    ______ ____
ROOT
ATOM      1  C   UNL     1       3.410   3.096   1.498  0.00  0.00    +0.231 C 
ATOM      2  O   UNL     1       2.622   3.570   0.707  0.00  0.00    -0.274 OA
ATOM      3  N   UNL     1       4.254   3.901   2.173  0.00  0.00    -0.315 N 
ATOM      4  H   UNL     1       4.883   3.522   2.806  0.00  0.00    +0.149 HD
ENDROOT
BRANCH   1   5
ATOM      5  C   UNL     1       3.444   1.607   1.727  0.00  0.00    +0.213 C 
BRANCH   5  15
ATOM      6  C   UNL     1       0.735   2.172  -1.737  0.00  0.00    +0.010 C 
ATOM      7  C   UNL     1       0.851   0.683  -2.067  0.00  0.00    +0.018 C 
ATOM      8  C   UNL     1       1.829   0.494  -3.230  0.00  0.00    +0.006 C 
ATOM      9  C   UNL     1       1.961  -0.998  -3.546  0.00  0.00    +0.000 C 
ATOM     10  C   UNL     1       2.497  -1.735  -2.317  0.00  0.00    +0.003 C 
ATOM     11  C   UNL     1       1.522  -1.555  -1.151  0.00  0.00    +0.035 C 
ATOM     12  C   UNL     1       1.362  -0.070  -0.844  0.00  0.00    +0.115 C 
ATOM     13  C   UNL     1       2.672   0.516  -0.371  0.00  0.00    +0.247 C 
ATOM     14  O   UNL     1       3.714   0.576  -0.988  0.00  0.00    -0.273 OA
ATOM     15  N   UNL     1       2.438   0.959   0.881  0.00  0.00    -0.215 N 
ATOM     16  C   UNL     1       1.173   0.733   1.256  0.00  0.00    +0.310 C 
ATOM     17  O   UNL     1       0.724   1.043   2.342  0.00  0.00    -0.252 OA
ATOM     18  N   UNL     1       0.454   0.124   0.294  0.00  0.00    -0.285 N 
ATOM     19  H   UNL     1      -0.480  -0.136   0.344  0.00  0.00    +0.151 HD
ENDBRANCH   5  15
ENDBRANCH   1   5
BRANCH   3  20
ATOM     20  C   UNL     1       4.220   5.349   1.951  0.00  0.00    +0.093 C 
BRANCH  20  21
ATOM     21  C   UNL     1       5.354   6.012   2.735  0.00  0.00    -0.017 C 
BRANCH  21  22
ATOM     22  C   UNL     1       5.118   5.828   4.212  0.00  0.00    -0.018 A 
ATOM     23  C   UNL     1       5.797   4.843   4.904  0.00  0.00    +0.005 A 
ATOM     24  C   UNL     1       5.580   4.674   6.259  0.00  0.00    +0.000 A 
ATOM     25  C   UNL     1       4.683   5.489   6.925  0.00  0.00    +0.004 A 
ATOM     26  C   UNL     1       4.002   6.475   6.238  0.00  0.00    +0.046 A 
ATOM     27  C   UNL     1       4.222   6.651   4.879  0.00  0.00    +0.122 A 
BRANCH  27  28
ATOM     28  O   UNL     1       3.557   7.623   4.202  0.00  0.00    -0.495 OA
ATOM     29  C   UNL     1       2.651   8.433   4.953  0.00  0.00    +0.277 C 
ENDBRANCH  27  28
ENDBRANCH  21  22
BRANCH  21  30
ATOM     30  N   UNL     1       6.634   5.393   2.364  0.00  0.00    +0.385 N 
ATOM     31  C   UNL     1       6.867   5.536   0.904  0.00  0.00    -0.078 C 
ATOM     32  C   UNL     1       8.403   5.377   0.773  0.00  0.00    -0.020 C 
ATOM     33  C   UNL     1       8.933   6.098   2.033  0.00  0.00    -0.020 C 
ATOM     34  C   UNL     1       7.753   6.101   3.022  0.00  0.00    -0.078 C 
ATOM     35  H   UNL     1       6.638   4.418   2.624  0.00  0.00    -0.081 HD
ENDBRANCH  21  30
ENDBRANCH  20  21
ENDBRANCH   3  20
TORSDOF 7
