REMARK  Name = ZINC39688738
REMARK  7 active torsions:
REMARK  status: ('A' for Active; 'I' for Inactive)
REMARK    1  A    between atoms: C_1  and  C_2
REMARK    2  A    between atoms: C_2  and  C_4
REMARK    3  A    between atoms: C_2  and  N_12
REMARK    4  A    between atoms: C_4  and  C_5
REMARK    5  A    between atoms: C_13  and  C_15
REMARK    6  A    between atoms: C_26  and  C_28
REMARK    7  A    between atoms: C_31  and  C_33
REMARK                            x       y       z     vdW  Elec       q    Type
REMARK                         _______ _______ _______ _____ _____    ______ ____
ROOT
ATOM      1  C   UNL     1      -3.465  -1.164  -1.134  0.00  0.00    +0.100 C 
ATOM      2  C   UNL     1      -3.486  -2.652  -0.717  0.00  0.00    +0.121 C 
ATOM      3  N   UNL     1      -4.545  -3.261  -1.556  0.00  0.00    -0.294 N 
ATOM      4  C   UNL     1      -4.383  -2.614  -2.881  0.00  0.00    +0.115 C 
ATOM      5  C   UNL     1      -4.054  -1.143  -2.554  0.00  0.00    -0.004 C 
ATOM      6  C   UNL     1      -5.324  -0.298  -2.587  0.00  0.00    -0.010 C 
ATOM      7  C   UNL     1      -5.859  -0.246  -4.021  0.00  0.00    -0.082 C 
ATOM      8  N   UNL     1      -4.840   0.331  -4.905  0.00  0.00    +0.379 N 
ATOM      9  C   UNL     1      -3.656  -0.537  -4.939  0.00  0.00    -0.082 C 
ATOM     10  C   UNL     1      -3.028  -0.601  -3.545  0.00  0.00    -0.010 C 
ATOM     11  C   UNL     1      -5.450  -4.192  -1.197  0.00  0.00    +0.282 C 
ATOM     12  O   UNL     1      -6.263  -4.596  -2.009  0.00  0.00    -0.267 OA
ATOM     13  H   UNL     1      -5.216   0.421  -5.837  0.00  0.00    -0.086 HD
ATOM     14  H   UNL     1      -4.576   1.243  -4.563  0.00  0.00    -0.086 HD
ENDROOT
BRANCH  11  15
ATOM     15  C   UNL     1      -5.457  -4.719   0.170  0.00  0.00    +0.190 A 
ATOM     16  C   UNL     1      -6.319  -5.672   0.666  0.00  0.00    +0.055 A 
ATOM     17  C   UNL     1      -5.970  -5.874   2.006  0.00  0.00    +0.050 A 
ATOM     18  C   UNL     1      -4.920  -5.045   2.276  0.00  0.00    +0.136 A 
ATOM     19  O   UNL     1      -4.615  -4.359   1.162  0.00  0.00    -0.450 OA
BRANCH  18  20
ATOM     20  C   UNL     1      -4.228  -4.927   3.576  0.00  0.00    +0.017 A 
ATOM     21  C   UNL     1      -4.635  -5.708   4.660  0.00  0.00    +0.011 A 
ATOM     22  C   UNL     1      -3.985  -5.593   5.871  0.00  0.00    +0.001 A 
ATOM     23  C   UNL     1      -2.932  -4.707   6.013  0.00  0.00    +0.000 A 
ATOM     24  C   UNL     1      -2.524  -3.930   4.944  0.00  0.00    +0.001 A 
ATOM     25  C   UNL     1      -3.162  -4.039   3.725  0.00  0.00    +0.011 A 
ENDBRANCH  18  20
ENDBRANCH  11  15
BRANCH   1  27
ATOM     26  N   UNL     1      -1.812   0.661  -0.903  0.00  0.00    -0.312 N 
ATOM     27  C   UNL     1      -2.051  -0.643  -1.145  0.00  0.00    +0.218 C 
ATOM     28  O   UNL     1      -1.128  -1.397  -1.371  0.00  0.00    -0.275 OA
ATOM     29  H   UNL     1      -2.550   1.264  -0.722  0.00  0.00    +0.149 HD
BRANCH  26  31
ATOM     30  C   UNL     1      -0.031   1.511  -2.348  0.00  0.00    +0.028 C 
ATOM     31  C   UNL     1      -0.438   1.169  -0.913  0.00  0.00    +0.074 C 
BRANCH  31  32
ATOM     32  C   UNL     1      -0.351   2.425  -0.045  0.00  0.00    +0.057 C 
BRANCH  32  33
ATOM     33  C   UNL     1      -0.632   2.064   1.391  0.00  0.00    -0.045 A 
ATOM     34  C   UNL     1      -1.928   2.096   1.870  0.00  0.00    +0.006 A 
ATOM     35  C   UNL     1      -2.187   1.764   3.187  0.00  0.00    +0.038 A 
ATOM     36  C   UNL     1      -1.147   1.400   4.026  0.00  0.00    +0.123 A 
ATOM     37  C   UNL     1       0.151   1.369   3.544  0.00  0.00    +0.038 A 
ATOM     38  C   UNL     1       0.406   1.696   2.226  0.00  0.00    +0.006 A 
ATOM     39  F   UNL     1      -1.399   1.076   5.313  0.00  0.00    -0.205 F 
ENDBRANCH  32  33
ENDBRANCH  31  32
ENDBRANCH  26  31
ENDBRANCH   1  27
TORSDOF 6
