REMARK  Name = ZINC41161743
REMARK  2 active torsions:
REMARK  status: ('A' for Active; 'I' for Inactive)
REMARK    1  A    between atoms: C_4  and  C_7
REMARK    2  A    between atoms: C_11  and  C_13
REMARK                            x       y       z     vdW  Elec       q    Type
REMARK                         _______ _______ _______ _____ _____    ______ ____
ROOT
ATOM      1  C   UNL     1       2.859  -0.454  -2.507  0.00  0.00    +0.129 A 
ATOM      2  N   UNL     1       2.297  -0.623  -3.718  0.00  0.00    -0.262 N 
ATOM      3  H   UNL     1       1.372  -0.457  -3.957  0.00  0.00    +0.190 HD
ATOM      4  N   UNL     1       3.314  -1.086  -4.569  0.00  0.00    -0.152 NA
ATOM      5  C   UNL     1       4.407  -1.169  -3.842  0.00  0.00    +0.184 A 
ATOM      6  N   UNL     1       4.122  -0.778  -2.592  0.00  0.00    -0.211 NA
ENDROOT
BRANCH   5   7
ATOM      7  C   UNL     1       5.736  -1.616  -4.326  0.00  0.00    +0.052 C 
ATOM      8  C   UNL     1       5.891  -1.966  -5.585  0.00  0.00    -0.043 C 
ATOM      9  C   UNL     1       7.353  -2.107  -6.038  0.00  0.00    +0.079 C 
ATOM     10  S   UNL     1       8.241  -2.156  -4.445  0.00  0.00    -0.098 S 
ATOM     11  C   UNL     1       6.884  -1.660  -3.392  0.00  0.00    +0.099 C 
ATOM     12  N   UNL     1       6.901  -1.401  -2.114  0.00  0.00    -0.292 NA
ATOM     13  C   UNL     1       7.329  -3.471  -6.744  0.00  0.00    +0.019 C 
ATOM     14  C   UNL     1       6.024  -3.374  -7.581  0.00  0.00    +0.006 C 
ATOM     15  C   UNL     1       5.145  -2.322  -6.867  0.00  0.00    +0.033 C 
ATOM     16  H   UNL     1       7.731  -1.469  -1.616  0.00  0.00    +0.187 HD
ENDBRANCH   5   7
BRANCH   1  20
ATOM     17  C   UNL     1      -0.019   1.526   0.010  0.00  0.00    +0.000 C 
ATOM     18  C   UNL     1       1.417   2.055  -0.000  0.00  0.00    +0.001 C 
ATOM     19  C   UNL     1       2.133   1.562  -1.259  0.00  0.00    +0.011 C 
ATOM     20  C   UNL     1       2.154   0.032  -1.268  0.00  0.00    +0.056 C 
ATOM     21  C   UNL     1       0.718  -0.497  -1.257  0.00  0.00    +0.011 C 
ATOM     22  C   UNL     1       0.002  -0.004   0.002  0.00  0.00    +0.001 C 
ENDBRANCH   1  20
TORSDOF 2
