REMARK  Name = ZINC01830253
REMARK  7 active torsions:
REMARK  status: ('A' for Active; 'I' for Inactive)
REMARK    1  A    between atoms: C_6  and  S_7
REMARK    2  A    between atoms: S_7  and  N_10
REMARK    3  A    between atoms: C_15  and  C_16
REMARK    4  A    between atoms: C_15  and  N_51
REMARK    5  A    between atoms: N_18  and  N_19
REMARK    6  A    between atoms: C_20  and  C_21
REMARK    7  A    between atoms: C_23  and  N_28
REMARK                            x       y       z     vdW  Elec       q    Type
REMARK                         _______ _______ _______ _____ _____    ______ ____
ROOT
ATOM      1  C   UNL     1      -1.472   3.606  -2.377  0.00  0.00    +0.020 C 
ENDROOT
BRANCH   1   7
ATOM      2  N   UNL     1      -0.993   2.209   1.554  0.00  0.00    -0.180 NA
ATOM      3  C   UNL     1      -0.242   1.513   0.499  0.00  0.00    +0.091 C 
ATOM      4  C   UNL     1      -0.898   1.815  -0.852  0.00  0.00    -0.061 C 
ATOM      5  C   UNL     1      -1.882   3.863  -0.005  0.00  0.00    -0.061 C 
ATOM      6  C   UNL     1      -1.266   3.645   1.381  0.00  0.00    +0.091 C 
ATOM      7  N   UNL     1      -0.979   3.282  -1.022  0.00  0.00    +0.387 N 
ATOM      8  H   UNL     1      -0.042   3.684  -0.904  0.00  0.00    -0.081 HD
BRANCH   2   9
ATOM      9  S   UNL     1      -1.523   1.398   2.897  0.00  0.00    +0.061 S 
ATOM     10  O   UNL     1      -2.628   2.132   3.406  0.00  0.00    -0.153 OA
ATOM     11  O   UNL     1      -1.622   0.028   2.532  0.00  0.00    -0.153 OA
BRANCH   9  17
ATOM     12  C   UNL     1       0.734   0.533   4.166  0.00  0.00    +0.029 A 
ATOM     13  C   UNL     1       1.738   0.620   5.113  0.00  0.00    +0.017 A 
ATOM     14  C   UNL     1       1.754   1.674   6.008  0.00  0.00    +0.018 A 
ATOM     15  C   UNL     1       0.769   2.644   5.953  0.00  0.00    +0.017 A 
ATOM     16  C   UNL     1      -0.231   2.559   5.003  0.00  0.00    +0.029 A 
ATOM     17  C   UNL     1      -0.247   1.505   4.108  0.00  0.00    +0.106 A 
ATOM     18 BR   UNL     1       3.123   1.789   7.307  0.00  0.00    -0.050 Br
ENDBRANCH   9  17
ENDBRANCH   2   9
ENDBRANCH   1   7
BRANCH   1  19
ATOM     19  C   UNL     1      -2.874   3.090  -2.569  0.00  0.00    +0.216 C 
ATOM     20  O   UNL     1      -3.394   2.410  -1.709  0.00  0.00    -0.276 OA
ATOM     21  N   UNL     1      -3.552   3.382  -3.697  0.00  0.00    -0.209 N 
ATOM     22  H   UNL     1      -3.136   3.925  -4.385  0.00  0.00    +0.177 HD
BRANCH  21  23
ATOM     23  N   UNL     1      -4.856   2.902  -3.876  0.00  0.00    -0.188 NA
ATOM     24  C   UNL     1      -5.508   3.183  -4.962  0.00  0.00    +0.139 C 
BRANCH  24  25
ATOM     25  C   UNL     1      -6.880   2.678  -5.149  0.00  0.00    +0.015 A 
ATOM     26  C   UNL     1      -7.588   2.984  -6.315  0.00  0.00    +0.043 A 
ATOM     27  C   UNL     1      -8.869   2.504  -6.486  0.00  0.00    +0.127 A 
ATOM     28  C   UNL     1      -9.459   1.729  -5.502  0.00  0.00    +0.034 A 
ATOM     29  C   UNL     1      -8.768   1.425  -4.343  0.00  0.00    +0.023 A 
ATOM     30  C   UNL     1      -7.482   1.895  -4.160  0.00  0.00    +0.050 A 
ATOM     31 CL   UNL     1      -6.615   1.514  -2.705  0.00  0.00    -0.083 Cl
BRANCH  27  32
ATOM     32  N   UNL     1      -9.618   2.823  -7.722  0.00  0.00    +0.056 N 
ATOM     33  O   UNL     1     -10.752   2.405  -7.872  0.00  0.00    -0.126 OA
ATOM     34  O   UNL     1      -9.101   3.505  -8.588  0.00  0.00    -0.126 OA
ENDBRANCH  27  32
ENDBRANCH  24  25
ENDBRANCH  21  23
ENDBRANCH   1  19
TORSDOF 7
