REMARK  Name = ZINC41006609
REMARK  13 active torsions:
REMARK  status: ('A' for Active; 'I' for Inactive)
REMARK    1  A    between atoms: C_1  and  C_2
REMARK    2  A    between atoms: C_7  and  N_8
REMARK    3  A    between atoms: C_9  and  C_11
REMARK    4  A    between atoms: C_13  and  C_33
REMARK    5  A    between atoms: C_15  and  C_23
REMARK    6  A    between atoms: C_17  and  C_21
REMARK    7  A    between atoms: C_17  and  O_22
REMARK    8  A    between atoms: N_25  and  C_26
REMARK    9  A    between atoms: C_31  and  C_32
REMARK   10  A    between atoms: C_36  and  O_39
REMARK   11  A    between atoms: O_39  and  C_40
REMARK   12  A    between atoms: C_40  and  C_41
REMARK   13  A    between atoms: C_40  and  C_42
REMARK                            x       y       z     vdW  Elec       q    Type
REMARK                         _______ _______ _______ _____ _____    ______ ____
ROOT
ATOM      1  C   UNL     1       1.358   1.611   5.098  0.00  0.00    +0.149 C 
ATOM      2  C   UNL     1       0.959   0.492   6.065  0.00  0.00    +0.053 C 
ATOM      3  C   UNL     1       1.093   0.993   7.504  0.00  0.00    +0.115 C 
ATOM      4  C   UNL     1       2.556   1.321   7.805  0.00  0.00    +0.082 C 
ATOM      5  C   UNL     1       3.015   2.472   6.903  0.00  0.00    +0.110 C 
ATOM      6  C   UNL     1       2.744   2.096   5.463  0.00  0.00    +0.148 C 
ATOM      7  O   UNL     1       3.611   2.177   4.627  0.00  0.00    -0.296 OA
ATOM      8  C   UNL     1       2.694   1.736   9.271  0.00  0.00    +0.042 C 
ENDROOT
BRANCH   2   9
ATOM      9  C   UNL     1      -0.469   0.087   5.804  0.00  0.00    -0.042 A 
ATOM     10  C   UNL     1      -1.455   1.052   5.715  0.00  0.00    +0.007 A 
ATOM     11  C   UNL     1      -2.764   0.684   5.476  0.00  0.00    +0.046 A 
ATOM     12  C   UNL     1      -3.090  -0.656   5.325  0.00  0.00    +0.121 A 
ATOM     13  C   UNL     1      -2.099  -1.623   5.414  0.00  0.00    +0.046 A 
ATOM     14  C   UNL     1      -0.790  -1.249   5.648  0.00  0.00    +0.007 A 
BRANCH  12  15
ATOM     15  O   UNL     1      -4.378  -1.021   5.090  0.00  0.00    -0.489 OA
BRANCH  15  16
ATOM     16  C   UNL     1      -5.341   0.029   4.986  0.00  0.00    +0.167 C 
ATOM     17  C   UNL     1      -5.408   0.519   3.538  0.00  0.00    +0.051 C 
ATOM     18  C   UNL     1      -6.715  -0.495   5.411  0.00  0.00    +0.051 C 
ENDBRANCH  15  16
ENDBRANCH  12  15
ENDBRANCH   2   9
BRANCH   1  20
ATOM     19  N   UNL     1       1.693   1.895   2.663  0.00  0.00    -0.285 N 
ATOM     20  C   UNL     1       1.362   1.083   3.686  0.00  0.00    +0.228 C 
ATOM     21  O   UNL     1       1.068  -0.074   3.471  0.00  0.00    -0.275 OA
ATOM     22  H   UNL     1       2.000   2.798   2.841  0.00  0.00    +0.155 HD
BRANCH  19  29
ATOM     23  C   UNL     1       0.969   3.762   0.642  0.00  0.00    +0.045 C 
ATOM     24  C   UNL     1       1.243   2.314   0.328  0.00  0.00    -0.029 A 
ATOM     25  C   UNL     1       1.152   1.859  -0.974  0.00  0.00    +0.005 A 
ATOM     26  C   UNL     1       1.404   0.531  -1.262  0.00  0.00    +0.000 A 
ATOM     27  C   UNL     1       1.748  -0.347  -0.251  0.00  0.00    +0.002 A 
ATOM     28  C   UNL     1       1.842   0.102   1.052  0.00  0.00    +0.023 A 
ATOM     29  C   UNL     1       1.594   1.437   1.345  0.00  0.00    +0.036 A 
ENDBRANCH  19  29
ENDBRANCH   1  20
BRANCH   3  30
ATOM     30  C   UNL     1       0.255   2.233   7.683  0.00  0.00    +0.224 C 
ATOM     31  O   UNL     1       0.503   3.230   7.039  0.00  0.00    -0.275 OA
ATOM     32  N   UNL     1      -0.770   2.233   8.558  0.00  0.00    -0.285 N 
ATOM     33  H   UNL     1      -0.928   1.459   9.120  0.00  0.00    +0.155 HD
BRANCH  32  34
ATOM     34  C   UNL     1      -1.606   3.351   8.656  0.00  0.00    +0.036 A 
ATOM     35  C   UNL     1      -1.674   4.263   7.610  0.00  0.00    +0.023 A 
ATOM     36  C   UNL     1      -2.500   5.365   7.710  0.00  0.00    +0.002 A 
ATOM     37  C   UNL     1      -3.258   5.562   8.850  0.00  0.00    +0.000 A 
ATOM     38  C   UNL     1      -3.192   4.656   9.892  0.00  0.00    +0.005 A 
ATOM     39  C   UNL     1      -2.373   3.548   9.796  0.00  0.00    -0.029 A 
ATOM     40  C   UNL     1      -2.308   2.558  10.930  0.00  0.00    +0.045 C 
ENDBRANCH  32  34
ENDBRANCH   3  30
BRANCH   4  41
ATOM     41  O   UNL     1       3.364   0.170   7.557  0.00  0.00    -0.388 OA
ATOM     42  H   UNL     1       4.306   0.306   7.727  0.00  0.00    +0.210 HD
ENDBRANCH   4  41
TORSDOF 8
