REMARK  Name = ZINC08079886
REMARK  4 active torsions:
REMARK  status: ('A' for Active; 'I' for Inactive)
REMARK    1  A    between atoms: C_10  and  C_13
REMARK    2  A    between atoms: C_13  and  C_14
REMARK    3  A    between atoms: N_16  and  C_17
REMARK    4  A    between atoms: C_21  and  N_23
REMARK                            x       y       z     vdW  Elec       q    Type
REMARK                         _______ _______ _______ _____ _____    ______ ____
ROOT
ATOM      1  C   UNL     1       2.969   3.214   1.431  0.00  0.00    +0.219 C 
ATOM      2  O   UNL     1       3.332   3.739   0.400  0.00  0.00    -0.275 OA
ATOM      3  N   UNL     1       3.622   3.466   2.582  0.00  0.00    -0.285 N 
ATOM      4  H   UNL     1       3.292   3.100   3.418  0.00  0.00    +0.155 HD
ENDROOT
BRANCH   3   5
ATOM      5  C   UNL     1       4.778   4.256   2.573  0.00  0.00    +0.036 A 
ATOM      6  C   UNL     1       5.817   3.979   3.451  0.00  0.00    +0.026 A 
ATOM      7  C   UNL     1       6.959   4.756   3.436  0.00  0.00    +0.042 A 
ATOM      8  C   UNL     1       7.063   5.819   2.554  0.00  0.00    +0.154 A 
ATOM      9  C   UNL     1       6.025   6.100   1.681  0.00  0.00    +0.163 A 
ATOM     10  C   UNL     1       4.884   5.322   1.689  0.00  0.00    +0.059 A 
ATOM     11  F   UNL     1       8.178   6.581   2.545  0.00  0.00    -0.203 F 
BRANCH   9  12
ATOM     12  N   UNL     1       6.139   7.236   0.739  0.00  0.00    +0.059 N 
ATOM     13  O   UNL     1       5.227   7.484  -0.029  0.00  0.00    -0.126 OA
ATOM     14  O   UNL     1       7.145   7.923   0.732  0.00  0.00    -0.126 OA
ENDBRANCH   9  12
ENDBRANCH   3   5
BRANCH   1  15
ATOM     15  C   UNL     1       1.786   2.280   1.424  0.00  0.00    +0.120 C 
BRANCH  15  25
ATOM     16  C   UNL     1       2.093  -2.997   0.122  0.00  0.00    +0.002 A 
ATOM     17  C   UNL     1       3.306  -2.508  -0.329  0.00  0.00    +0.001 A 
ATOM     18  C   UNL     1       3.421  -1.177  -0.685  0.00  0.00    +0.016 A 
ATOM     19  C   UNL     1       2.324  -0.337  -0.585  0.00  0.00    +0.030 A 
ATOM     20  C   UNL     1       1.104  -0.818  -0.110  0.00  0.00    +0.047 A 
ATOM     21  C   UNL     1       0.998  -2.163   0.228  0.00  0.00    +0.024 A 
ATOM     22  N   UNL     1      -0.012   0.005   0.010  0.00  0.00    -0.284 N 
ATOM     23  C   UNL     1      -0.023   1.334   0.011  0.00  0.00    +0.231 C 
ATOM     24  O   UNL     1      -1.094   1.902   0.015  0.00  0.00    -0.274 OA
ATOM     25  C   UNL     1       1.232   2.168   0.003  0.00  0.00    +0.146 C 
ATOM     26  S   UNL     1       2.456   1.355  -1.070  0.00  0.00    -0.110 S 
ATOM     27  H   UNL     1      -0.871  -0.437   0.101  0.00  0.00    +0.155 HD
ENDBRANCH  15  25
ENDBRANCH   1  15
TORSDOF 4
