REMARK  Name = ZINC00153429
REMARK  3 active torsions:
REMARK  status: ('A' for Active; 'I' for Inactive)
REMARK    1  A    between atoms: N_11  and  S_12
REMARK    2  A    between atoms: S_12  and  C_15
REMARK    3  A    between atoms: C_18  and  C_21
REMARK                            x       y       z     vdW  Elec       q    Type
REMARK                         _______ _______ _______ _____ _____    ______ ____
ROOT
ATOM      1  C   UNL     1      -0.017   1.373   0.010  0.00  0.00    +0.001 A 
ATOM      2  C   UNL     1       1.169   2.094   0.002  0.00  0.00    +0.002 A 
ATOM      3  C   UNL     1       2.385   1.443  -0.013  0.00  0.00    +0.026 A 
ATOM      4  C   UNL     1       2.425   0.057  -0.021  0.00  0.00    +0.048 A 
ATOM      5  C   UNL     1       1.226  -0.679  -0.013  0.00  0.00    -0.002 A 
ATOM      6  C   UNL     1       0.002  -0.004   0.002  0.00  0.00    +0.010 A 
ATOM      7  C   UNL     1       1.278  -2.146  -0.021  0.00  0.00    +0.013 A 
ATOM      8  C   UNL     1       2.464  -2.757   0.220  0.00  0.00    +0.048 A 
ATOM      9  C   UNL     1       3.641  -1.914   0.480  0.00  0.00    +0.153 A 
ATOM     10  N   UNL     1       3.634  -0.626  -0.035  0.00  0.00    -0.338 N 
ATOM     11  N   UNL     1       4.659  -2.363   1.175  0.00  0.00    -0.111 NA
ATOM     12  H   UNL     1       4.440  -0.220  -0.391  0.00  0.00    +0.167 HD
ENDROOT
BRANCH  11  13
ATOM     13  S   UNL     1       5.969  -1.387   1.450  0.00  0.00    +0.101 S 
ATOM     14  O   UNL     1       6.578  -1.159   0.186  0.00  0.00    -0.146 OA
ATOM     15  O   UNL     1       5.517  -0.326   2.280  0.00  0.00    -0.146 OA
BRANCH  13  16
ATOM     16  C   UNL     1       7.121  -2.318   2.404  0.00  0.00    +0.113 A 
ATOM     17  C   UNL     1       7.057  -2.284   3.786  0.00  0.00    +0.030 A 
ATOM     18  C   UNL     1       7.956  -3.011   4.539  0.00  0.00    +0.021 A 
ATOM     19  C   UNL     1       8.932  -3.781   3.904  0.00  0.00    +0.052 A 
ATOM     20  C   UNL     1       8.990  -3.811   2.509  0.00  0.00    +0.021 A 
ATOM     21  C   UNL     1       8.082  -3.083   1.768  0.00  0.00    +0.030 A 
BRANCH  19  22
ATOM     22  C   UNL     1       9.868  -4.537   4.679  0.00  0.00    +0.099 C 
ATOM     23  N   UNL     1      10.611  -5.137   5.294  0.00  0.00    -0.191 NA
ENDBRANCH  19  22
ENDBRANCH  13  16
ENDBRANCH  11  13
TORSDOF 3
