REMARK  Name = ZINC49786310
REMARK  6 active torsions:
REMARK  status: ('A' for Active; 'I' for Inactive)
REMARK    1  A    between atoms: C_1  and  C_2
REMARK    2  A    between atoms: C_2  and  C_3
REMARK    3  A    between atoms: C_2  and  C_4
REMARK    4  A    between atoms: C_2  and  N_25
REMARK    5  A    between atoms: C_4  and  N_5
REMARK    6  A    between atoms: C_11  and  N_14
REMARK                            x       y       z     vdW  Elec       q    Type
REMARK                         _______ _______ _______ _____ _____    ______ ____
ROOT
ATOM      1  N   UNL     1      -1.484  -1.874  -0.601  0.00  0.00    -0.301 N 
ATOM      2  C   UNL     1      -2.630  -2.452  -1.013  0.00  0.00    +0.302 C 
ATOM      3  O   UNL     1      -3.652  -1.797  -1.079  0.00  0.00    -0.253 OA
ATOM      4  N   UNL     1      -2.643  -3.757  -1.351  0.00  0.00    -0.286 N 
ATOM      5  C   UNL     1      -1.448  -4.590  -1.165  0.00  0.00    +0.111 C 
ATOM      6  C   UNL     1      -1.111  -5.274  -2.494  0.00  0.00    +0.044 C 
ATOM      7  C   UNL     1      -2.339  -6.039  -2.994  0.00  0.00    +0.095 C 
ATOM      8  C   UNL     1      -3.490  -5.059  -3.233  0.00  0.00    +0.044 C 
ATOM      9  C   UNL     1      -3.855  -4.374  -1.907  0.00  0.00    +0.111 C 
ATOM     10  H   UNL     1      -0.686  -2.412  -0.479  0.00  0.00    +0.150 HD
ENDROOT
BRANCH   7  11
ATOM     11  N   UNL     1      -2.011  -6.721  -4.248  0.00  0.00    -0.289 N 
ATOM     12  C   UNL     1      -2.073  -8.095  -4.469  0.00  0.00    +0.070 A 
ATOM     13  C   UNL     1      -2.426  -9.172  -3.671  0.00  0.00    +0.028 A 
ATOM     14  C   UNL     1      -2.387 -10.452  -4.187  0.00  0.00    +0.002 A 
ATOM     15  C   UNL     1      -1.996 -10.665  -5.498  0.00  0.00    +0.002 A 
ATOM     16  C   UNL     1      -1.641  -9.598  -6.301  0.00  0.00    +0.028 A 
ATOM     17  C   UNL     1      -1.679  -8.309  -5.792  0.00  0.00    +0.067 A 
ATOM     18  N   UNL     1      -1.389  -7.059  -6.333  0.00  0.00    -0.306 N 
ATOM     19  H   UNL     1      -1.089  -6.889  -7.239  0.00  0.00    +0.170 HD
ATOM     20  C   UNL     1      -1.603  -6.127  -5.386  0.00  0.00    +0.328 A 
ATOM     21  O   UNL     1      -1.449  -4.929  -5.534  0.00  0.00    -0.247 OA
ENDBRANCH   7  11
BRANCH   1  22
ATOM     22  C   UNL     1      -1.444  -0.433  -0.338  0.00  0.00    +0.093 C 
BRANCH  22  24
ATOM     23  C   UNL     1       0.878  -0.225  -1.237  0.00  0.00    -0.008 C 
ATOM     24  C   UNL     1      -0.010  -0.015  -0.009  0.00  0.00    -0.055 C 
ATOM     25  C   UNL     1       0.012   1.462   0.389  0.00  0.00    -0.008 C 
BRANCH  24  26
ATOM     26  N   UNL     1       0.494  -0.829   1.105  0.00  0.00    +0.384 N 
ATOM     27  C   UNL     1      -0.383  -0.659   2.269  0.00  0.00    -0.078 C 
ATOM     28  C   UNL     1       0.091  -1.567   3.406  0.00  0.00    -0.019 C 
ATOM     29  C   UNL     1       1.526  -1.193   3.787  0.00  0.00    -0.004 C 
ATOM     30  C   UNL     1       2.418  -1.302   2.547  0.00  0.00    -0.019 C 
ATOM     31  C   UNL     1       1.858  -0.404   1.442  0.00  0.00    -0.078 C 
ATOM     32  H   UNL     1       0.504  -1.801   0.832  0.00  0.00    -0.081 HD
ENDBRANCH  24  26
ENDBRANCH  22  24
ENDBRANCH   1  22
TORSDOF 4
