REMARK  Name = ZINC10519071
REMARK  5 active torsions:
REMARK  status: ('A' for Active; 'I' for Inactive)
REMARK    1  A    between atoms: C_1  and  C_2
REMARK    2  A    between atoms: C_7  and  S_25
REMARK    3  A    between atoms: N_11  and  S_12
REMARK    4  A    between atoms: S_12  and  C_15
REMARK    5  A    between atoms: S_25  and  N_28
REMARK                            x       y       z     vdW  Elec       q    Type
REMARK                         _______ _______ _______ _____ _____    ______ ____
ROOT
ATOM      1  C   UNL     1       1.757   5.635  -2.471  0.00  0.00    +0.030 C 
ATOM      2  C   UNL     1       0.849   6.859  -2.334  0.00  0.00    +0.099 C 
ATOM      3  C   UNL     1       0.293   7.264  -3.709  0.00  0.00    +0.061 C 
ATOM      4  C   UNL     1      -1.207   7.138  -3.565  0.00  0.00    -0.021 A 
ATOM      5  C   UNL     1      -2.227   7.372  -4.467  0.00  0.00    +0.034 A 
ATOM      6  C   UNL     1      -3.543   7.181  -4.091  0.00  0.00    +0.105 A 
ATOM      7  C   UNL     1      -3.838   6.754  -2.809  0.00  0.00    +0.030 A 
ATOM      8  C   UNL     1      -2.824   6.519  -1.906  0.00  0.00    +0.027 A 
ATOM      9  C   UNL     1      -1.491   6.710  -2.278  0.00  0.00    +0.055 A 
ATOM     10  N   UNL     1      -0.329   6.531  -1.526  0.00  0.00    -0.200 N 
ENDROOT
BRANCH  10  11
ATOM     11  S   UNL     1      -0.287   6.028   0.051  0.00  0.00    +0.075 S 
ATOM     12  O   UNL     1      -1.548   6.358   0.616  0.00  0.00    -0.150 OA
ATOM     13  O   UNL     1       0.939   6.499   0.595  0.00  0.00    -0.150 OA
BRANCH  11  14
ATOM     14  C   UNL     1      -0.187   4.269   0.034  0.00  0.00    +0.109 A 
ATOM     15  C   UNL     1      -1.342   3.509   0.038  0.00  0.00    +0.029 A 
ATOM     16  C   UNL     1      -1.256   2.132   0.032  0.00  0.00    +0.006 A 
ATOM     17  C   UNL     1      -0.018   1.502   0.010  0.00  0.00    -0.044 A 
ATOM     18  C   UNL     1       1.131   2.259   0.003  0.00  0.00    -0.042 A 
ATOM     19  C   UNL     1       1.043   3.645   0.018  0.00  0.00    +0.032 A 
ATOM     20  C   UNL     1       2.507   1.644  -0.022  0.00  0.00    +0.035 C 
ATOM     21  C   UNL     1       2.446   0.176   0.393  0.00  0.00    +0.005 C 
ATOM     22  C   UNL     1       1.368  -0.520  -0.446  0.00  0.00    +0.005 C 
ATOM     23  C   UNL     1       0.002  -0.004   0.002  0.00  0.00    +0.035 C 
ENDBRANCH  11  14
ENDBRANCH  10  11
BRANCH   6  24
ATOM     24  S   UNL     1      -4.843   7.480  -5.243  0.00  0.00    +0.056 S 
ATOM     25  O   UNL     1      -4.275   7.348  -6.539  0.00  0.00    -0.153 OA
ATOM     26  O   UNL     1      -5.952   6.703  -4.814  0.00  0.00    -0.153 OA
BRANCH  24  27
ATOM     27  N   UNL     1      -5.285   9.068  -5.080  0.00  0.00    -0.204 NA
ATOM     28  H   UNL     1      -4.836   9.632  -4.433  0.00  0.00    +0.144 HD
ATOM     29  H   UNL     1      -5.994   9.432  -5.633  0.00  0.00    +0.144 HD
ENDBRANCH  24  27
ENDBRANCH   6  24
TORSDOF 4
