REMARK  Name = ZINC09789377
REMARK  6 active torsions:
REMARK  status: ('A' for Active; 'I' for Inactive)
REMARK    1  A    between atoms: C_1  and  C_2
REMARK    2  A    between atoms: C_2  and  C_4
REMARK    3  A    between atoms: C_2  and  N_13
REMARK    4  A    between atoms: C_14  and  C_16
REMARK    5  A    between atoms: C_20  and  S_22
REMARK    6  A    between atoms: S_22  and  N_25
REMARK                            x       y       z     vdW  Elec       q    Type
REMARK                         _______ _______ _______ _____ _____    ______ ____
ROOT
ATOM      1  C   UNL     1       0.018  -2.081  -1.203  0.00  0.00    +0.039 A 
ATOM      2  C   UNL     1       0.039  -2.778   0.006  0.00  0.00    +0.013 A 
ATOM      3  C   UNL     1       0.041  -2.084   1.198  0.00  0.00    +0.003 A 
ATOM      4  C   UNL     1       0.023  -0.701   1.197  0.00  0.00    +0.029 A 
ATOM      5  C   UNL     1       0.002  -0.004   0.002  0.00  0.00    +0.109 A 
ATOM      6  C   UNL     1      -0.006  -0.686  -1.197  0.00  0.00    +0.041 A 
ENDROOT
BRANCH   1   8
ATOM      7  N   UNL     1       0.033  -4.166  -2.487  0.00  0.00    -0.302 N 
ATOM      8  C   UNL     1       0.016  -2.819  -2.485  0.00  0.00    +0.245 C 
ATOM      9  O   UNL     1      -0.002  -2.209  -3.537  0.00  0.00    -0.270 OA
ATOM     10  H   UNL     1       0.048  -4.652  -1.648  0.00  0.00    +0.150 HD
BRANCH   7  12
ATOM     11  C   UNL     1       1.465  -5.023  -4.275  0.00  0.00    +0.036 C 
ATOM     12  C   UNL     1       0.031  -4.897  -3.757  0.00  0.00    +0.136 C 
BRANCH  12  13
ATOM     13  C   UNL     1      -0.550  -6.271  -3.545  0.00  0.00    +0.126 A 
ATOM     14  C   UNL     1      -1.377  -6.894  -4.395  0.00  0.00    +0.055 A 
ATOM     15  C   UNL     1      -1.684  -8.195  -3.789  0.00  0.00    +0.020 A 
ATOM     16  C   UNL     1      -2.468  -9.285  -4.164  0.00  0.00    +0.011 A 
ATOM     17  C   UNL     1      -2.542 -10.379  -3.348  0.00  0.00    +0.001 A 
ATOM     18  C   UNL     1      -1.844 -10.410  -2.149  0.00  0.00    +0.004 A 
ATOM     19  C   UNL     1      -1.064  -9.342  -1.761  0.00  0.00    +0.047 A 
ATOM     20  C   UNL     1      -0.974  -8.220  -2.576  0.00  0.00    +0.135 A 
ATOM     21  O   UNL     1      -0.309  -7.052  -2.478  0.00  0.00    -0.458 OA
ENDBRANCH  12  13
ENDBRANCH   7  12
ENDBRANCH   1   8
BRANCH   5  22
ATOM     22  S   UNL     1      -0.022   1.758   0.012  0.00  0.00    +0.075 S 
ATOM     23  O   UNL     1      -0.590   2.163  -1.226  0.00  0.00    -0.150 OA
ATOM     24  O   UNL     1      -0.566   2.150   1.264  0.00  0.00    -0.150 OA
BRANCH  22  25
ATOM     25  N   UNL     1       1.553   2.269  -0.001  0.00  0.00    -0.202 N 
ATOM     26  C   UNL     1       2.340   2.534  -1.208  0.00  0.00    +0.136 C 
ATOM     27  C   UNL     1       3.721   2.979  -0.699  0.00  0.00    +0.058 C 
ATOM     28  C   UNL     1       3.605   2.929   0.808  0.00  0.00    -0.023 A 
ATOM     29  C   UNL     1       2.323   2.515   1.137  0.00  0.00    +0.054 A 
ATOM     30  C   UNL     1       1.974   2.398   2.484  0.00  0.00    +0.025 A 
ATOM     31  C   UNL     1       2.893   2.693   3.469  0.00  0.00    +0.002 A 
ATOM     32  C   UNL     1       4.167   3.108   3.130  0.00  0.00    +0.000 A 
ATOM     33  C   UNL     1       4.523   3.218   1.798  0.00  0.00    +0.005 A 
ENDBRANCH  22  25
ENDBRANCH   5  22
TORSDOF 5
