REMARK  Name = ZINC36306547
REMARK  5 active torsions:
REMARK  status: ('A' for Active; 'I' for Inactive)
REMARK    1  A    between atoms: C_3  and  O_10
REMARK    2  A    between atoms: C_4  and  C_8
REMARK    3  A    between atoms: O_10  and  C_11
REMARK    4  A    between atoms: C_14  and  C_18
REMARK    5  A    between atoms: C_16  and  N_17
REMARK                            x       y       z     vdW  Elec       q    Type
REMARK                         _______ _______ _______ _____ _____    ______ ____
ROOT
ATOM      1  C   UNL     1       3.361   3.481  -0.006  0.00  0.00    +0.149 A 
ATOM      2  C   UNL     1       2.080   4.008   0.075  0.00  0.00    +0.049 A 
ATOM      3  C   UNL     1       1.891   5.373   0.091  0.00  0.00    +0.022 A 
ATOM      4  C   UNL     1       2.991   6.232   0.027  0.00  0.00    +0.054 A 
ATOM      5  C   UNL     1       4.282   5.704  -0.054  0.00  0.00    +0.045 A 
ATOM      6  C   UNL     1       4.466   4.333  -0.064  0.00  0.00    +0.069 A 
ENDROOT
BRANCH   6   7
ATOM      7  N   UNL     1       5.757   3.800  -0.140  0.00  0.00    -0.355 N 
ATOM      8  H   UNL     1       5.885   2.838  -0.151  0.00  0.00    +0.142 HD
ATOM      9  H   UNL     1       6.525   4.391  -0.180  0.00  0.00    +0.142 HD
ENDBRANCH   6   7
BRANCH   4  10
ATOM     10  C   UNL     1       2.796   7.650   0.043  0.00  0.00    +0.099 C 
ATOM     11  N   UNL     1       2.641   8.776   0.056  0.00  0.00    -0.191 NA
ENDBRANCH   4  10
BRANCH   1  12
ATOM     12  O   UNL     1       3.542   2.135  -0.022  0.00  0.00    -0.453 OA
BRANCH  12  15
ATOM     13  C   UNL     1       3.987   1.589   3.547  0.00  0.00    +0.006 A 
ATOM     14  C   UNL     1       3.739   2.224   2.345  0.00  0.00    +0.048 A 
ATOM     15  C   UNL     1       3.787   1.511   1.158  0.00  0.00    +0.149 A 
ATOM     16  C   UNL     1       4.089   0.142   1.181  0.00  0.00    +0.129 A 
ATOM     17  C   UNL     1       4.339  -0.490   2.404  0.00  0.00    +0.144 A 
ATOM     18  C   UNL     1       4.286   0.238   3.577  0.00  0.00    +0.040 A 
ATOM     19  F   UNL     1       4.631  -1.809   2.438  0.00  0.00    -0.204 F 
BRANCH  16  20
ATOM     20  C   UNL     1       4.141  -0.605  -0.040  0.00  0.00    +0.106 C 
ATOM     21  N   UNL     1       4.181  -1.198  -1.008  0.00  0.00    -0.191 NA
ENDBRANCH  16  20
ENDBRANCH  12  15
ENDBRANCH   1  12
TORSDOF 5
