REMARK  Name = ZINC63573578
REMARK  6 active torsions:
REMARK  status: ('A' for Active; 'I' for Inactive)
REMARK    1  A    between atoms: C_1  and  C_2
REMARK    2  A    between atoms: C_5  and  C_8
REMARK    3  A    between atoms: C_15  and  O_20
REMARK    4  A    between atoms: O_20  and  C_21
REMARK    5  A    between atoms: N_27  and  C_28
REMARK    6  A    between atoms: C_28  and  C_29
REMARK                            x       y       z     vdW  Elec       q    Type
REMARK                         _______ _______ _______ _____ _____    ______ ____
ROOT
ATOM      1  C   UNL     1       0.078  -4.276  -0.008  0.00  0.00    +0.134 C 
ATOM      2  C   UNL     1       1.510  -4.803   0.138  0.00  0.00    +0.131 C 
ATOM      3  C   UNL     1       1.398  -6.301   0.393  0.00  0.00    -0.035 C 
ATOM      4  C   UNL     1       2.119  -6.897  -0.548  0.00  0.00    +0.003 A 
ATOM      5  C   UNL     1       2.449  -8.310  -0.786  0.00  0.00    +0.055 A 
ATOM      6  C   UNL     1       3.221  -8.583  -1.874  0.00  0.00    +0.121 A 
ATOM      7  C   UNL     1       3.705  -7.606  -2.756  0.00  0.00    +0.047 A 
ATOM      8  C   UNL     1       3.466  -6.276  -2.629  0.00  0.00    +0.029 A 
ATOM      9  C   UNL     1       2.645  -5.856  -1.485  0.00  0.00    +0.043 A 
ATOM     10  N   UNL     1       2.276  -4.649  -1.100  0.00  0.00    -0.375 N 
ATOM     11  C   UNL     1       0.533  -6.874   1.489  0.00  0.00    +0.052 C 
ATOM     12  C   UNL     1      -0.859  -6.234   1.335  0.00  0.00    +0.114 C 
ATOM     13  N   UNL     1      -0.711  -4.790   1.122  0.00  0.00    -0.276 N 
ATOM     14  C   UNL     1      -1.302  -3.926   1.971  0.00  0.00    +0.303 C 
ATOM     15  O   UNL     1      -1.277  -2.733   1.739  0.00  0.00    -0.253 OA
ATOM     16  N   UNL     1      -1.919  -4.385   3.078  0.00  0.00    -0.295 N 
ATOM     17  H   UNL     1      -1.873  -5.327   3.303  0.00  0.00    +0.151 HD
ATOM     18  H   UNL     1       2.466  -3.810  -1.549  0.00  0.00    +0.160 HD
ENDROOT
BRANCH   1  23
ATOM     19  C   UNL     1       0.104   1.502   0.087  0.00  0.00    +0.044 C 
ATOM     20  C   UNL     1       0.097  -0.005   0.062  0.00  0.00    -0.050 A 
ATOM     21  C   UNL     1       1.002  -0.713   0.831  0.00  0.00    +0.004 A 
ATOM     22  C   UNL     1       0.996  -2.095   0.808  0.00  0.00    +0.006 A 
ATOM     23  C   UNL     1       0.085  -2.769   0.017  0.00  0.00    -0.025 A 
ATOM     24  C   UNL     1      -0.821  -2.061  -0.751  0.00  0.00    +0.006 A 
ATOM     25  C   UNL     1      -0.817  -0.679  -0.725  0.00  0.00    +0.004 A 
ENDBRANCH   1  23
BRANCH   6  26
ATOM     26  O   UNL     1       3.542  -9.881  -2.120  0.00  0.00    -0.495 OA
ATOM     27  C   UNL     1       4.353 -10.142  -3.267  0.00  0.00    +0.277 C 
ENDBRANCH   6  26
BRANCH  16  28
ATOM     28  C   UNL     1      -2.659  -3.460   3.940  0.00  0.00    +0.141 C 
BRANCH  28  29
ATOM     29  C   UNL     1      -3.250  -4.219   5.100  0.00  0.00    -0.030 A 
ATOM     30  C   UNL     1      -4.513  -4.772   4.992  0.00  0.00    +0.008 A 
ATOM     31  C   UNL     1      -5.055  -5.469   6.055  0.00  0.00    +0.038 A 
ATOM     32  C   UNL     1      -4.335  -5.612   7.229  0.00  0.00    +0.123 A 
ATOM     33  C   UNL     1      -3.071  -5.058   7.335  0.00  0.00    +0.038 A 
ATOM     34  C   UNL     1      -2.527  -4.366   6.269  0.00  0.00    +0.008 A 
ATOM     35  F   UNL     1      -4.864  -6.293   8.268  0.00  0.00    -0.205 F 
ENDBRANCH  28  29
ENDBRANCH  16  28
TORSDOF 4
