REMARK  Name = ZINC13127677
REMARK  3 active torsions:
REMARK  status: ('A' for Active; 'I' for Inactive)
REMARK    1  A    between atoms: C_1  and  C_2
REMARK    2  A    between atoms: C_10  and  C_21
REMARK    3  A    between atoms: C_13  and  C_15
REMARK                            x       y       z     vdW  Elec       q    Type
REMARK                         _______ _______ _______ _____ _____    ______ ____
ROOT
ATOM      1  C   UNL     1      -0.018   1.503   0.010  0.00  0.00    +0.109 C 
ATOM      2  C   UNL     1       0.002  -0.004   0.002  0.00  0.00    +0.216 C 
ATOM      3  O   UNL     1       1.060  -0.596  -0.011  0.00  0.00    -0.276 OA
ATOM      4  N   UNL     1      -1.156  -0.694   0.009  0.00  0.00    -0.253 N 
ATOM      5  C   UNL     1      -1.137  -2.092   0.002  0.00  0.00    +0.242 A 
ATOM      6  N   UNL     1      -0.036  -2.851  -0.007  0.00  0.00    -0.176 NA
ATOM      7  C   UNL     1      -0.373  -4.117  -0.015  0.00  0.00    +0.251 A 
ATOM      8  N   UNL     1      -1.739  -4.180  -0.003  0.00  0.00    -0.220 N 
ATOM      9  N   UNL     1      -2.201  -2.869   0.008  0.00  0.00    -0.131 NA
ATOM     10  C   UNL     1      -2.470  -5.448   0.009  0.00  0.00    +0.147 C 
ATOM     11  C   UNL     1      -1.610  -6.497  -0.705  0.00  0.00    +0.087 C 
ATOM     12  C   UNL     1      -0.169  -6.384  -0.295  0.00  0.00    +0.055 C 
ATOM     13  N   UNL     1       0.393  -5.240  -0.011  0.00  0.00    -0.215 NA
ATOM     14  H   UNL     1      -2.002  -0.220   0.020  0.00  0.00    +0.158 HD
ENDROOT
BRANCH  10  15
ATOM     15  C   UNL     1      -2.722  -5.876   1.432  0.00  0.00    -0.022 A 
ATOM     16  C   UNL     1      -1.657  -6.095   2.286  0.00  0.00    +0.008 A 
ATOM     17  C   UNL     1      -1.887  -6.488   3.591  0.00  0.00    +0.038 A 
ATOM     18  C   UNL     1      -3.184  -6.662   4.043  0.00  0.00    +0.123 A 
ATOM     19  C   UNL     1      -4.250  -6.443   3.186  0.00  0.00    +0.038 A 
ATOM     20  C   UNL     1      -4.018  -6.045   1.883  0.00  0.00    +0.008 A 
ATOM     21  F   UNL     1      -3.410  -7.047   5.318  0.00  0.00    -0.205 F 
ENDBRANCH  10  15
BRANCH  12  22
ATOM     22  C   UNL     1       0.641  -7.610  -0.211  0.00  0.00    -0.004 A 
ATOM     23  C   UNL     1       0.071  -8.851  -0.514  0.00  0.00    +0.010 A 
ATOM     24  C   UNL     1       0.836  -9.995  -0.434  0.00  0.00    +0.001 A 
ATOM     25  C   UNL     1       2.164  -9.918  -0.053  0.00  0.00    +0.000 A 
ATOM     26  C   UNL     1       2.736  -8.694   0.249  0.00  0.00    +0.001 A 
ATOM     27  C   UNL     1       1.985  -7.540   0.167  0.00  0.00    +0.010 A 
ENDBRANCH  12  22
TORSDOF 2
