REMARK  Name = ZINC09533249
REMARK  6 active torsions:
REMARK  status: ('A' for Active; 'I' for Inactive)
REMARK    1  A    between atoms: C_1  and  C_2
REMARK    2  A    between atoms: N_13  and  C_24
REMARK    3  A    between atoms: C_14  and  S_16
REMARK    4  A    between atoms: S_16  and  C_17
REMARK    5  A    between atoms: C_17  and  C_18
REMARK    6  A    between atoms: C_24  and  C_25
REMARK                            x       y       z     vdW  Elec       q    Type
REMARK                         _______ _______ _______ _____ _____    ______ ____
ROOT
ATOM      1  C   UNL     1       2.385   7.719  -0.058  0.00  0.00    +0.008 C 
ATOM      2  C   UNL     1       2.016   6.264  -0.353  0.00  0.00    -0.009 C 
ATOM      3  C   UNL     1       0.806   5.856   0.493  0.00  0.00    +0.008 C 
ATOM      4  C   UNL     1       0.282   4.497   0.026  0.00  0.00    +0.037 C 
ATOM      5  C   UNL     1       1.439   3.502   0.009  0.00  0.00    -0.023 A 
ATOM      6  C   UNL     1       2.717   3.932  -0.001  0.00  0.00    -0.004 A 
ATOM      7  S   UNL     1       3.699   2.456  -0.020  0.00  0.00    -0.073 S 
ATOM      8  C   UNL     1       2.385   1.262  -0.014  0.00  0.00    +0.117 A 
ATOM      9  C   UNL     1       1.225   2.054   0.001  0.00  0.00    +0.076 A 
ATOM     10  C   UNL     1      -0.016   1.341   0.009  0.00  0.00    +0.264 A 
ATOM     11  O   UNL     1      -1.075   1.945   0.018  0.00  0.00    -0.267 OA
ATOM     12  N   UNL     1       0.002  -0.004   0.002  0.00  0.00    -0.280 N 
ATOM     13  C   UNL     1       1.178  -0.696  -0.013  0.00  0.00    +0.173 A 
ATOM     14  N   UNL     1       2.335  -0.065  -0.021  0.00  0.00    -0.216 NA
ATOM     15  C   UNL     1       3.198   5.351   0.004  0.00  0.00    +0.046 C 
ENDROOT
BRANCH  13  16
ATOM     16  S   UNL     1       1.150  -2.458  -0.022  0.00  0.00    -0.078 S 
BRANCH  16  17
ATOM     17  C   UNL     1       2.927  -2.801  -0.041  0.00  0.00    +0.173 C 
BRANCH  17  18
ATOM     18  C   UNL     1       3.151  -4.291  -0.051  0.00  0.00    +0.231 C 
ATOM     19  O   UNL     1       2.203  -5.047  -0.045  0.00  0.00    -0.274 OA
ATOM     20  N   UNL     1       4.405  -4.784  -0.066  0.00  0.00    -0.240 N 
ATOM     21  C   UNL     1       4.606  -6.117  -0.075  0.00  0.00    +0.303 C 
ATOM     22  O   UNL     1       3.655  -6.874  -0.069  0.00  0.00    -0.253 OA
ATOM     23  N   UNL     1       5.860  -6.609  -0.090  0.00  0.00    -0.313 N 
ATOM     24  H   UNL     1       5.164  -4.179  -0.071  0.00  0.00    +0.159 HD
ATOM     25  H   UNL     1       6.619  -6.005  -0.095  0.00  0.00    +0.146 HD
ATOM     26  H   UNL     1       6.004  -7.569  -0.096  0.00  0.00    +0.146 HD
ENDBRANCH  17  18
ENDBRANCH  16  17
ENDBRANCH  13  16
BRANCH  12  27
ATOM     27  C   UNL     1      -1.265  -0.740   0.011  0.00  0.00    +0.201 C 
BRANCH  27  28
ATOM     28  C   UNL     1      -1.714  -0.985  -1.407  0.00  0.00    +0.125 A 
ATOM     29  C   UNL     1      -1.395  -2.053  -2.159  0.00  0.00    +0.046 A 
ATOM     30  C   UNL     1      -2.028  -1.876  -3.411  0.00  0.00    +0.041 A 
ATOM     31  C   UNL     1      -2.688  -0.705  -3.351  0.00  0.00    +0.195 A 
ATOM     32  O   UNL     1      -2.494  -0.170  -2.135  0.00  0.00    -0.466 OA
ENDBRANCH  27  28
ENDBRANCH  12  27
TORSDOF 5
