REMARK  Name = ZINC08746961
REMARK  5 active torsions:
REMARK  status: ('A' for Active; 'I' for Inactive)
REMARK    1  A    between atoms: C_1  and  C_2
REMARK    2  A    between atoms: C_2  and  C_4
REMARK    3  A    between atoms: C_2  and  S_11
REMARK    4  A    between atoms: S_11  and  C_12
REMARK    5  A    between atoms: N_25  and  C_26
REMARK                            x       y       z     vdW  Elec       q    Type
REMARK                         _______ _______ _______ _____ _____    ______ ____
ROOT
ATOM      1  C   UNL     1      -1.295  -2.379   0.789  0.00  0.00    +0.198 A 
ATOM      2  N   UNL     1      -0.233  -3.025   0.373  0.00  0.00    -0.120 NA
ATOM      3  N   UNL     1      -0.442  -4.391   0.596  0.00  0.00    -0.109 NA
ATOM      4  C   UNL     1      -1.632  -4.541   1.134  0.00  0.00    +0.240 A 
ATOM      5  N   UNL     1      -2.189  -3.298   1.267  0.00  0.00    -0.256 N 
ATOM      6  C   UNL     1      -3.462  -3.148   1.815  0.00  0.00    +0.064 A 
ATOM      7  C   UNL     1      -4.036  -1.894   1.955  0.00  0.00    +0.027 A 
ATOM      8  C   UNL     1      -5.298  -1.773   2.503  0.00  0.00    +0.002 A 
ATOM      9  C   UNL     1      -5.998  -2.896   2.914  0.00  0.00    +0.001 A 
ATOM     10  C   UNL     1      -5.443  -4.151   2.783  0.00  0.00    +0.015 A 
ATOM     11  C   UNL     1      -4.169  -4.286   2.232  0.00  0.00    +0.064 A 
ATOM     12  C   UNL     1      -3.540  -5.610   2.074  0.00  0.00    +0.263 A 
ATOM     13  O   UNL     1      -4.124  -6.618   2.425  0.00  0.00    -0.267 OA
ATOM     14  N   UNL     1      -2.306  -5.684   1.536  0.00  0.00    -0.280 N 
ATOM     15  C   UNL     1      -1.668  -6.992   1.373  0.00  0.00    +0.155 C 
ENDROOT
BRANCH   1  16
ATOM     16  S   UNL     1      -1.533  -0.634   0.736  0.00  0.00    -0.078 S 
BRANCH  16  18
ATOM     17  C   UNL     1       0.121  -0.505  -1.439  0.00  0.00    +0.024 C 
ATOM     18  C   UNL     1       0.002  -0.004   0.002  0.00  0.00    +0.082 C 
BRANCH  18  19
ATOM     19  C   UNL     1      -0.018   1.503   0.010  0.00  0.00    -0.016 A 
ATOM     20  C   UNL     1      -1.225   2.178   0.020  0.00  0.00    +0.006 A 
ATOM     21  C   UNL     1      -1.244   3.560   0.033  0.00  0.00    +0.000 A 
ATOM     22  C   UNL     1      -0.056   4.268   0.025  0.00  0.00    +0.001 A 
ATOM     23  C   UNL     1       1.150   3.594   0.010  0.00  0.00    +0.020 A 
ATOM     24  C   UNL     1       1.170   2.211   0.003  0.00  0.00    +0.045 A 
ATOM     25 CL   UNL     1       2.685   1.364  -0.016  0.00  0.00    -0.083 Cl
ENDBRANCH  18  19
ENDBRANCH  16  18
ENDBRANCH   1  16
TORSDOF 3
