REMARK  Name = ZINC10768627
REMARK  6 active torsions:
REMARK  status: ('A' for Active; 'I' for Inactive)
REMARK    1  A    between atoms: C_1  and  C_2
REMARK    2  A    between atoms: C_9  and  N_14
REMARK    3  A    between atoms: C_10  and  C_11
REMARK    4  A    between atoms: C_15  and  C_17
REMARK    5  A    between atoms: N_22  and  S_24
REMARK    6  A    between atoms: S_24  and  C_27
REMARK                            x       y       z     vdW  Elec       q    Type
REMARK                         _______ _______ _______ _____ _____    ______ ____
ROOT
ATOM      1  N   UNL     1      -5.830   2.947  -4.330  0.00  0.00    -0.279 N 
ATOM      2  C   UNL     1      -4.781   2.376  -3.706  0.00  0.00    +0.222 C 
ATOM      3  O   UNL     1      -4.578   1.187  -3.826  0.00  0.00    -0.275 OA
ATOM      4  H   UNL     1      -5.993   3.899  -4.235  0.00  0.00    +0.155 HD
ENDROOT
BRANCH   1  12
ATOM      5  C   UNL     1     -10.422  -1.772  -8.555  0.00  0.00    +0.008 C 
ATOM      6  C   UNL     1      -9.966  -0.649  -7.622  0.00  0.00    -0.009 C 
ATOM      7  C   UNL     1      -9.976   0.683  -8.378  0.00  0.00    +0.008 C 
ATOM      8  C   UNL     1      -9.766   1.839  -7.399  0.00  0.00    +0.037 C 
ATOM      9  C   UNL     1      -8.520   1.558  -6.568  0.00  0.00    -0.023 A 
ATOM     10  C   UNL     1      -8.010   0.310  -6.480  0.00  0.00    -0.004 A 
ATOM     11  S   UNL     1      -6.590   0.475  -5.435  0.00  0.00    -0.077 S 
ATOM     12  C   UNL     1      -6.678   2.174  -5.110  0.00  0.00    +0.084 A 
ATOM     13  C   UNL     1      -7.798   2.575  -5.823  0.00  0.00    +0.068 A 
ATOM     14  C   UNL     1      -8.537  -0.930  -7.134  0.00  0.00    +0.046 C 
BRANCH  13  15
ATOM     15  C   UNL     1      -8.238   3.974  -5.825  0.00  0.00    +0.244 C 
ATOM     16  O   UNL     1      -7.817   4.743  -6.669  0.00  0.00    -0.270 OA
ATOM     17  N   UNL     1      -9.109   4.408  -4.892  0.00  0.00    -0.325 N 
ATOM     18  H   UNL     1      -9.445   3.795  -4.220  0.00  0.00    +0.145 HD
ATOM     19  H   UNL     1      -9.400   5.333  -4.893  0.00  0.00    +0.145 HD
ENDBRANCH  13  15
ENDBRANCH   1  12
BRANCH   2  20
ATOM     20  C   UNL     1      -3.860   3.216  -2.859  0.00  0.00    +0.091 C 
ATOM     21  C   UNL     1      -3.223   4.306  -3.724  0.00  0.00    +0.015 C 
ATOM     22  C   UNL     1      -2.313   5.180  -2.857  0.00  0.00    +0.018 C 
ATOM     23  C   UNL     1      -1.199   4.320  -2.264  0.00  0.00    +0.109 C 
ATOM     24  N   UNL     1      -1.799   3.183  -1.554  0.00  0.00    -0.175 NA
ATOM     25  C   UNL     1      -2.759   2.330  -2.268  0.00  0.00    +0.122 C 
BRANCH  24  26
ATOM     26  S   UNL     1      -1.406   2.872   0.025  0.00  0.00    +0.067 S 
ATOM     27  O   UNL     1      -2.493   2.142   0.578  0.00  0.00    -0.152 OA
ATOM     28  O   UNL     1      -0.951   4.098   0.579  0.00  0.00    -0.152 OA
BRANCH  26  29
ATOM     29  C   UNL     1      -0.022   1.781   0.012  0.00  0.00    +0.144 A 
ATOM     30  C   UNL     1       1.300   2.080   0.001  0.00  0.00    +0.038 A 
ATOM     31  C   UNL     1       2.220   1.048  -0.013  0.00  0.00    +0.030 A 
ATOM     32  C   UNL     1       1.773  -0.232  -0.016  0.00  0.00    +0.080 A 
ATOM     33  S   UNL     1       0.002  -0.004   0.002  0.00  0.00    -0.057 S 
ATOM     34 CL   UNL     1       2.685  -1.709  -0.032  0.00  0.00    -0.076 Cl
ENDBRANCH  26  29
ENDBRANCH  24  26
ENDBRANCH   2  20
TORSDOF 5
