REMARK  Name = ZINC38642953
REMARK  10 active torsions:
REMARK  status: ('A' for Active; 'I' for Inactive)
REMARK    1  A    between atoms: C_1  and  C_2
REMARK    2  A    between atoms: C_5  and  C_8
REMARK    3  A    between atoms: N_14  and  C_15
REMARK    4  A    between atoms: C_15  and  C_16
REMARK    5  A    between atoms: C_16  and  C_17
REMARK    6  A    between atoms: N_19  and  N_20
REMARK    7  A    between atoms: C_21  and  C_23
REMARK    8  A    between atoms: C_24  and  C_37
REMARK    9  A    between atoms: N_25  and  C_30
REMARK   10  A    between atoms: C_26  and  C_29
REMARK                            x       y       z     vdW  Elec       q    Type
REMARK                         _______ _______ _______ _____ _____    ______ ____
ROOT
ATOM      1  C   UNL     1      -0.986  -3.882   4.474  0.00  0.00    +0.231 C 
ATOM      2  O   UNL     1       0.095  -3.550   4.912  0.00  0.00    -0.274 OA
ATOM      3  N   UNL     1      -2.088  -3.767   5.241  0.00  0.00    -0.234 N 
ATOM      4  H   UNL     1      -2.953  -4.034   4.891  0.00  0.00    +0.173 HD
ENDROOT
BRANCH   3   5
ATOM      5  N   UNL     1      -1.985  -3.263   6.544  0.00  0.00    -0.231 N 
ATOM      6  C   UNL     1      -3.087  -3.148   7.312  0.00  0.00    +0.258 C 
ATOM      7  O   UNL     1      -4.173  -3.482   6.872  0.00  0.00    -0.269 OA
ATOM      8  H   UNL     1      -1.120  -2.997   6.894  0.00  0.00    +0.173 HD
BRANCH   6   9
ATOM      9  C   UNL     1      -2.983  -2.639   8.627  0.00  0.00    +0.034 C 
ATOM     10  C   UNL     1      -4.010  -2.378   9.451  0.00  0.00    +0.016 C 
ATOM     11  N   UNL     1      -3.630  -1.895  10.662  0.00  0.00    -0.300 N 
ATOM     12  C   UNL     1      -2.166  -1.794  10.722  0.00  0.00    +0.080 C 
ATOM     13  C   UNL     1      -1.694  -2.302   9.346  0.00  0.00    +0.064 C 
ATOM     14  C   UNL     1      -1.613  -2.685  11.837  0.00  0.00    +0.029 C 
ATOM     15  C   UNL     1      -5.450  -2.600   9.067  0.00  0.00    +0.061 C 
BRANCH  11  16
ATOM     16  C   UNL     1      -4.503  -1.544  11.697  0.00  0.00    +0.034 A 
ATOM     17  C   UNL     1      -5.239  -2.526  12.349  0.00  0.00    +0.026 A 
ATOM     18  C   UNL     1      -6.099  -2.178  13.371  0.00  0.00    +0.040 A 
ATOM     19  C   UNL     1      -6.230  -0.851  13.747  0.00  0.00    +0.124 A 
ATOM     20  C   UNL     1      -5.498   0.129  13.098  0.00  0.00    +0.040 A 
ATOM     21  C   UNL     1      -4.632  -0.215  12.079  0.00  0.00    +0.026 A 
ATOM     22  F   UNL     1      -7.073  -0.512  14.746  0.00  0.00    -0.205 F 
ENDBRANCH  11  16
ENDBRANCH   6   9
ENDBRANCH   3   5
BRANCH   1  23
ATOM     23  C   UNL     1      -1.097  -4.425   3.072  0.00  0.00    +0.119 C 
BRANCH  23  24
ATOM     24  C   UNL     1       0.289  -4.451   2.425  0.00  0.00    +0.135 C 
BRANCH  24  31
ATOM     25  C   UNL     1       0.089  -3.994  -0.060  0.00  0.00    +0.163 A 
ATOM     26  H   UNL     1      -0.066  -6.817  -1.384  0.00  0.00    +0.191 HD
ATOM     27  N   UNL     1      -0.009  -4.707  -1.147  0.00  0.00    -0.153 NA
ATOM     28  N   UNL     1      -0.004  -6.060  -0.781  0.00  0.00    -0.254 N 
ATOM     29  C   UNL     1       0.100  -6.116   0.562  0.00  0.00    +0.176 A 
ATOM     30  S   UNL     1       0.149  -7.539   1.513  0.00  0.00    -0.011 S 
ATOM     31  N   UNL     1       0.164  -4.850   1.021  0.00  0.00    -0.303 N 
BRANCH  25  36
ATOM     32  C   UNL     1       0.212   1.755   0.189  0.00  0.00    +0.044 C 
ATOM     33  C   UNL     1       0.180   0.250   0.124  0.00  0.00    -0.050 A 
ATOM     34  C   UNL     1       0.497  -0.395  -1.058  0.00  0.00    +0.004 A 
ATOM     35  C   UNL     1       0.469  -1.773  -1.124  0.00  0.00    +0.012 A 
ATOM     36  C   UNL     1       0.121  -2.516   0.004  0.00  0.00    +0.019 A 
ATOM     37  C   UNL     1      -0.197  -1.860   1.193  0.00  0.00    +0.012 A 
ATOM     38  C   UNL     1      -0.160  -0.481   1.248  0.00  0.00    +0.004 A 
ENDBRANCH  25  36
ENDBRANCH  24  31
ENDBRANCH  23  24
ENDBRANCH   1  23
TORSDOF 7
