REMARK  Name = ZINC34757655
REMARK  7 active torsions:
REMARK  status: ('A' for Active; 'I' for Inactive)
REMARK    1  A    between atoms: C_4  and  C_7
REMARK    2  A    between atoms: C_7  and  C_8
REMARK    3  A    between atoms: C_8  and  S_9
REMARK    4  A    between atoms: S_9  and  C_10
REMARK    5  A    between atoms: N_25  and  C_28
REMARK    6  A    between atoms: C_28  and  C_29
REMARK    7  A    between atoms: N_31  and  C_32
REMARK                            x       y       z     vdW  Elec       q    Type
REMARK                         _______ _______ _______ _____ _____    ______ ____
ROOT
ATOM      1  C   UNL     1       5.312  -2.936   4.405  0.00  0.00    +0.191 A 
ATOM      2  N   UNL     1       6.463  -3.530   4.699  0.00  0.00    -0.206 NA
ATOM      3  C   UNL     1       7.614  -2.879   4.681  0.00  0.00    +0.134 A 
ATOM      4  C   UNL     1       7.624  -1.499   4.338  0.00  0.00    +0.051 A 
ATOM      5  C   UNL     1       8.778  -0.586   4.256  0.00  0.00    -0.025 A 
ATOM      6  C   UNL     1       8.522   0.684   3.907  0.00  0.00    -0.004 A 
ATOM      7  S   UNL     1       6.762   0.753   3.666  0.00  0.00    -0.073 S 
ATOM      8  C   UNL     1       6.372  -0.935   4.039  0.00  0.00    +0.115 A 
ATOM      9  N   UNL     1       5.264  -1.652   4.073  0.00  0.00    -0.215 NA
ATOM     10  C   UNL     1       9.771   1.523   3.861  0.00  0.00    +0.043 C 
ATOM     11  C   UNL     1      10.817   0.706   4.651  0.00  0.00    +0.010 C 
ATOM     12  C   UNL     1      10.286  -0.731   4.478  0.00  0.00    +0.037 C 
ATOM     13  N   UNL     1       8.793  -3.532   4.993  0.00  0.00    -0.318 N 
ATOM     14  C   UNL     1       9.239  -3.661   6.389  0.00  0.00    +0.088 C 
ATOM     15  C   UNL     1       9.579  -5.131   6.657  0.00  0.00    -0.059 C 
ATOM     16  N   UNL     1      10.554  -5.596   5.663  0.00  0.00    +0.387 N 
ATOM     17  C   UNL     1       9.956  -5.566   4.322  0.00  0.00    -0.059 C 
ATOM     18  C   UNL     1       9.632  -4.123   3.939  0.00  0.00    +0.088 C 
ATOM     19  H   UNL     1      11.364  -4.995   5.681  0.00  0.00    -0.081 HD
ENDROOT
BRANCH   1  20
ATOM     20  S   UNL     1       3.820  -3.872   4.450  0.00  0.00    -0.086 S 
BRANCH  20  21
ATOM     21  C   UNL     1       2.538  -2.677   3.982  0.00  0.00    +0.082 C 
BRANCH  21  22
ATOM     22  C   UNL     1       1.173  -3.368   3.982  0.00  0.00    +0.046 C 
BRANCH  22  26
ATOM     23  C   UNL     1      -1.848  -0.556   2.879  0.00  0.00    +0.000 A 
ATOM     24  C   UNL     1      -1.210  -1.303   1.906  0.00  0.00    +0.000 A 
ATOM     25  C   UNL     1      -0.233  -2.212   2.263  0.00  0.00    +0.003 A 
ATOM     26  C   UNL     1       0.108  -2.375   3.592  0.00  0.00    -0.047 A 
ATOM     27  C   UNL     1      -0.530  -1.628   4.566  0.00  0.00    +0.003 A 
ATOM     28  C   UNL     1      -1.508  -0.720   4.209  0.00  0.00    +0.000 A 
ENDBRANCH  22  26
ENDBRANCH  21  22
ENDBRANCH  20  21
ENDBRANCH   1  20
BRANCH  16  29
ATOM     29  C   UNL     1      10.962  -6.970   5.984  0.00  0.00    +0.019 C 
BRANCH  29  30
ATOM     30  C   UNL     1      12.053  -7.405   5.040  0.00  0.00    +0.197 C 
ATOM     31  O   UNL     1      12.451  -6.645   4.183  0.00  0.00    -0.278 OA
ATOM     32  N   UNL     1      12.585  -8.639   5.147  0.00  0.00    -0.314 N 
ATOM     33  H   UNL     1      12.267  -9.246   5.833  0.00  0.00    +0.149 HD
BRANCH  32  34
ATOM     34  C   UNL     1      13.645  -9.061   4.229  0.00  0.00    +0.073 C 
ATOM     35  C   UNL     1      13.019  -9.604   2.942  0.00  0.00    +0.022 C 
ATOM     36  C   UNL     1      14.127 -10.045   1.983  0.00  0.00    +0.002 C 
ATOM     37  C   UNL     1      14.966 -11.141   2.643  0.00  0.00    +0.000 C 
ATOM     38  C   UNL     1      15.592 -10.599   3.929  0.00  0.00    +0.002 C 
ATOM     39  C   UNL     1      14.485 -10.157   4.889  0.00  0.00    +0.022 C 
ENDBRANCH  32  34
ENDBRANCH  29  30
ENDBRANCH  16  29
TORSDOF 7
