REMARK  Name = ZINC16022070
REMARK  5 active torsions:
REMARK  status: ('A' for Active; 'I' for Inactive)
REMARK    1  A    between atoms: C_1  and  C_2
REMARK    2  A    between atoms: C_2  and  C_3
REMARK    3  A    between atoms: C_3  and  C_5
REMARK    4  A    between atoms: C_3  and  N_6
REMARK    5  A    between atoms: C_11  and  C_28
REMARK                            x       y       z     vdW  Elec       q    Type
REMARK                         _______ _______ _______ _____ _____    ______ ____
ROOT
ATOM      1  N   UNL     1       1.989  -0.050  -1.089  0.00  0.00    -0.239 N 
ATOM      2  C   UNL     1       2.851  -0.502  -0.172  0.00  0.00    +0.227 C 
ATOM      3  O   UNL     1       2.614  -1.363   0.648  0.00  0.00    -0.275 OA
ATOM      4  C   UNL     1       4.168   0.226  -0.318  0.00  0.00    +0.107 C 
ATOM      5  C   UNL     1       4.383   1.133   0.913  0.00  0.00    +0.064 C 
ATOM      6  N   UNL     1       4.824   2.438   0.352  0.00  0.00    -0.296 NA
ATOM      7  C   UNL     1       4.010   2.602  -0.866  0.00  0.00    +0.136 C 
ATOM      8  C   UNL     1       3.912   1.194  -1.506  0.00  0.00    +0.122 C 
ATOM      9  C   UNL     1       2.480   0.900  -1.893  0.00  0.00    +0.228 C 
ATOM     10  O   UNL     1       1.871   1.442  -2.790  0.00  0.00    -0.275 OA
ATOM     11  C   UNL     1       4.630   3.590  -1.813  0.00  0.00    +0.003 A 
ATOM     12  C   UNL     1       5.843   3.650  -2.461  0.00  0.00    +0.008 A 
ATOM     13  C   UNL     1       6.133   4.718  -3.291  0.00  0.00    +0.000 A 
ATOM     14  C   UNL     1       5.202   5.724  -3.468  0.00  0.00    +0.002 A 
ATOM     15  C   UNL     1       3.984   5.668  -2.822  0.00  0.00    +0.023 A 
ATOM     16  C   UNL     1       3.684   4.597  -1.985  0.00  0.00    +0.039 A 
ATOM     17  N   UNL     1       2.540   4.318  -1.234  0.00  0.00    -0.283 N 
ATOM     18  C   UNL     1       2.652   3.164  -0.547  0.00  0.00    +0.243 C 
ATOM     19  O   UNL     1       1.819   2.674   0.185  0.00  0.00    -0.273 OA
ATOM     20  C   UNL     1       5.465   0.549   1.823  0.00  0.00    +0.025 C 
ATOM     21  H   UNL     1       4.653   3.188   1.005  0.00  0.00    +0.123 HD
ATOM     22  H   UNL     1       1.756   4.889  -1.209  0.00  0.00    +0.155 HD
ENDROOT
BRANCH   1  23
ATOM     23  C   UNL     1       0.619  -0.557  -1.207  0.00  0.00    +0.081 C 
ATOM     24  C   UNL     1      -0.370   0.595  -1.018  0.00  0.00    +0.028 C 
BRANCH  23  26
ATOM     25  C   UNL     1       1.314  -2.413  -2.729  0.00  0.00    +0.006 C 
ATOM     26  C   UNL     1       0.423  -1.177  -2.592  0.00  0.00    +0.019 C 
ENDBRANCH  23  26
ENDBRANCH   1  23
TORSDOF 2
