REMARK  Name = ZINC16012776
REMARK  4 active torsions:
REMARK  status: ('A' for Active; 'I' for Inactive)
REMARK    1  A    between atoms: C_1  and  C_2
REMARK    2  A    between atoms: C_2  and  C_3
REMARK    3  A    between atoms: C_2  and  C_4
REMARK    4  A    between atoms: N_12  and  C_15
REMARK                            x       y       z     vdW  Elec       q    Type
REMARK                         _______ _______ _______ _____ _____    ______ ____
ROOT
ATOM      1  C   UNL     1       0.718  -0.522  -1.247  0.00  0.00    +0.070 C 
ATOM      2  C   UNL     1       0.598  -2.058  -1.337  0.00  0.00    +0.107 C 
ATOM      3  C   UNL     1       0.416  -2.357  -2.851  0.00  0.00    +0.123 C 
ATOM      4  C   UNL     1      -0.979  -2.935  -2.926  0.00  0.00    +0.233 C 
ATOM      5  O   UNL     1      -1.526  -3.315  -3.939  0.00  0.00    -0.274 OA
ATOM      6  N   UNL     1      -1.516  -2.963  -1.701  0.00  0.00    -0.207 N 
ATOM      7  C   UNL     1      -0.712  -2.493  -0.720  0.00  0.00    +0.232 C 
ATOM      8  O   UNL     1      -0.987  -2.426   0.459  0.00  0.00    -0.274 OA
ATOM      9  C   UNL     1       0.453  -0.978  -3.523  0.00  0.00    +0.136 C 
ATOM     10  N   UNL     1       0.051  -0.011  -2.474  0.00  0.00    -0.295 NA
ATOM     11  C   UNL     1       1.814  -0.677  -4.085  0.00  0.00    +0.003 A 
ATOM     12  C   UNL     1       3.070  -0.583  -3.528  0.00  0.00    +0.008 A 
ATOM     13  C   UNL     1       4.160  -0.283  -4.325  0.00  0.00    +0.000 A 
ATOM     14  C   UNL     1       3.984  -0.078  -5.682  0.00  0.00    +0.002 A 
ATOM     15  C   UNL     1       2.728  -0.171  -6.244  0.00  0.00    +0.023 A 
ATOM     16  C   UNL     1       1.625  -0.472  -5.448  0.00  0.00    +0.039 A 
ATOM     17  N   UNL     1       0.275  -0.617  -5.776  0.00  0.00    -0.283 N 
ATOM     18  C   UNL     1      -0.480  -0.914  -4.701  0.00  0.00    +0.243 C 
ATOM     19  O   UNL     1      -1.679  -1.095  -4.686  0.00  0.00    -0.273 OA
ATOM     20  H   UNL     1      -0.951   0.013  -2.358  0.00  0.00    +0.124 HD
ATOM     21  H   UNL     1      -0.077  -0.516  -6.674  0.00  0.00    +0.155 HD
ENDROOT
BRANCH   6  22
ATOM     22  C   UNL     1      -2.808  -3.447  -1.450  0.00  0.00    +0.079 A 
ATOM     23  C   UNL     1      -3.003  -4.788  -1.150  0.00  0.00    +0.027 A 
ATOM     24  C   UNL     1      -4.276  -5.262  -0.902  0.00  0.00    +0.002 A 
ATOM     25  C   UNL     1      -5.359  -4.403  -0.954  0.00  0.00    +0.003 A 
ATOM     26  C   UNL     1      -5.170  -3.066  -1.252  0.00  0.00    +0.040 A 
ATOM     27  C   UNL     1      -3.897  -2.584  -1.495  0.00  0.00    +0.145 A 
ATOM     28  F   UNL     1      -3.712  -1.277  -1.782  0.00  0.00    -0.204 F 
ENDBRANCH   6  22
BRANCH   1  30
ATOM     29  C   UNL     1       0.777  -0.434   1.249  0.00  0.00    +0.009 C 
ATOM     30  C   UNL     1       0.002  -0.004   0.002  0.00  0.00    +0.001 C 
ATOM     31  C   UNL     1      -0.074   1.523  -0.050  0.00  0.00    +0.009 C 
ENDBRANCH   1  30
TORSDOF 2
