REMARK  Name = ZINC03670243
REMARK  7 active torsions:
REMARK  status: ('A' for Active; 'I' for Inactive)
REMARK    1  A    between atoms: C_1  and  C_2
REMARK    2  A    between atoms: C_2  and  C_3
REMARK    3  A    between atoms: C_6  and  N_9
REMARK    4  A    between atoms: C_19  and  C_20
REMARK    5  A    between atoms: C_19  and  O_30
REMARK    6  A    between atoms: N_22  and  C_23
REMARK    7  A    between atoms: C_23  and  C_24
REMARK                            x       y       z     vdW  Elec       q    Type
REMARK                         _______ _______ _______ _____ _____    ______ ____
ROOT
ATOM      1  N   UNL     1       3.686   3.107  -0.016  0.00  0.00    -0.214 N 
ATOM      2  C   UNL     1       3.549   1.828  -0.410  0.00  0.00    +0.314 C 
ATOM      3  O   UNL     1       4.540   1.223  -0.771  0.00  0.00    -0.252 OA
ATOM      4  N   UNL     1       2.372   1.190  -0.422  0.00  0.00    -0.269 N 
ATOM      5  C   UNL     1       1.177   1.793  -0.029  0.00  0.00    +0.043 A 
ATOM      6  C   UNL     1      -0.019   1.087  -0.061  0.00  0.00    +0.024 A 
ATOM      7  C   UNL     1      -1.192   1.704   0.328  0.00  0.00    +0.002 A 
ATOM      8  C   UNL     1      -1.180   3.018   0.760  0.00  0.00    +0.001 A 
ATOM      9  C   UNL     1       0.009   3.726   0.793  0.00  0.00    +0.010 A 
ATOM     10  C   UNL     1       1.178   3.116   0.401  0.00  0.00    +0.033 A 
ATOM     11  C   UNL     1       2.496   3.854   0.423  0.00  0.00    +0.247 C 
ATOM     12  H   UNL     1       2.348   0.266  -0.718  0.00  0.00    +0.156 HD
ENDROOT
BRANCH   1  16
ATOM     13  C   UNL     1       7.432   4.931  -0.043  0.00  0.00    -0.048 A 
ATOM     14  C   UNL     1       7.044   4.168   1.043  0.00  0.00    +0.005 A 
ATOM     15  C   UNL     1       5.803   3.562   1.055  0.00  0.00    +0.024 A 
ATOM     16  C   UNL     1       4.944   3.719  -0.025  0.00  0.00    +0.041 A 
ATOM     17  C   UNL     1       5.340   4.481  -1.117  0.00  0.00    +0.024 A 
ATOM     18  C   UNL     1       6.580   5.089  -1.121  0.00  0.00    +0.005 A 
BRANCH  13  20
ATOM     19  C   UNL     1       9.812   4.642  -0.677  0.00  0.00    +0.009 C 
ATOM     20  C   UNL     1       8.787   5.591  -0.053  0.00  0.00    +0.032 C 
ENDBRANCH  13  20
ENDBRANCH   1  16
BRANCH  11  21
ATOM     21  C   UNL     1       2.739   4.328   1.833  0.00  0.00    +0.269 C 
ATOM     22  O   UNL     1       2.768   5.516   2.077  0.00  0.00    -0.270 OA
ATOM     23  N   UNL     1       2.925   3.432   2.823  0.00  0.00    -0.307 N 
ATOM     24  H   UNL     1       2.902   2.482   2.627  0.00  0.00    +0.149 HD
BRANCH  23  25
ATOM     25  C   UNL     1       3.162   3.893   4.193  0.00  0.00    +0.139 C 
BRANCH  25  26
ATOM     26  C   UNL     1       3.337   2.702   5.100  0.00  0.00    -0.030 A 
ATOM     27  C   UNL     1       2.239   2.145   5.729  0.00  0.00    +0.005 A 
ATOM     28  C   UNL     1       2.398   1.050   6.557  0.00  0.00    +0.000 A 
ATOM     29  C   UNL     1       3.657   0.518   6.765  0.00  0.00    +0.000 A 
ATOM     30  C   UNL     1       4.756   1.078   6.140  0.00  0.00    +0.000 A 
ATOM     31  C   UNL     1       4.596   2.170   5.308  0.00  0.00    +0.005 A 
ENDBRANCH  25  26
ENDBRANCH  23  25
ENDBRANCH  11  21
BRANCH  11  32
ATOM     32  O   UNL     1       2.368   5.009  -0.409  0.00  0.00    -0.360 OA
ATOM     33  H   UNL     1       1.677   5.623  -0.126  0.00  0.00    +0.213 HD
ENDBRANCH  11  32
TORSDOF 6
