REMARK  Name = ZINC34912358
REMARK  9 active torsions:
REMARK  status: ('A' for Active; 'I' for Inactive)
REMARK    1  A    between atoms: C_1  and  C_2
REMARK    2  A    between atoms: C_2  and  C_3
REMARK    3  A    between atoms: C_3  and  C_4
REMARK    4  A    between atoms: C_4  and  O_5
REMARK    5  A    between atoms: O_5  and  C_6
REMARK    6  A    between atoms: C_9  and  C_12
REMARK    7  A    between atoms: C_17  and  N_20
REMARK    8  A    between atoms: C_23  and  C_26
REMARK    9  A    between atoms: N_28  and  C_29
REMARK                            x       y       z     vdW  Elec       q    Type
REMARK                         _______ _______ _______ _____ _____    ______ ____
ROOT
ATOM      1  N   UNL     1      -8.124 -10.038   1.794  0.00  0.00    +0.382 N 
ATOM      2  C   UNL     1      -8.413 -11.473   1.694  0.00  0.00    -0.078 C 
ATOM      3  C   UNL     1      -9.377 -11.881   2.810  0.00  0.00    -0.006 C 
ATOM      4  C   UNL     1     -10.678 -11.086   2.670  0.00  0.00    +0.071 C 
ATOM      5  C   UNL     1     -10.355  -9.589   2.701  0.00  0.00    -0.006 C 
ATOM      6  C   UNL     1      -9.355  -9.266   1.589  0.00  0.00    -0.078 C 
ATOM      7  H   UNL     1      -7.749  -9.835   2.708  0.00  0.00    -0.081 HD
ENDROOT
BRANCH   1  13
ATOM      8  C   UNL     1      -3.412  -8.123  -0.009  0.00  0.00    +0.247 C 
ATOM      9  O   UNL     1      -3.272  -6.920   0.104  0.00  0.00    -0.270 OA
ATOM     10  N   UNL     1      -4.648  -8.651  -0.107  0.00  0.00    -0.298 N 
ATOM     11  C   UNL     1      -5.827  -7.781  -0.214  0.00  0.00    +0.106 C 
ATOM     12  C   UNL     1      -6.829  -8.171   0.878  0.00  0.00    +0.004 C 
ATOM     13  C   UNL     1      -7.138  -9.666   0.769  0.00  0.00    -0.066 C 
ATOM     14  C   UNL     1      -5.854 -10.472   0.981  0.00  0.00    +0.004 C 
ATOM     15  C   UNL     1      -4.842 -10.107  -0.115  0.00  0.00    +0.106 C 
BRANCH   8  19
ATOM     16  C   UNL     1      -0.008 -10.660  -0.093  0.00  0.00    +0.121 A 
ATOM     17  C   UNL     1      -0.058  -9.598   0.801  0.00  0.00    +0.046 A 
ATOM     18  C   UNL     1      -1.160  -8.773   0.832  0.00  0.00    +0.016 A 
ATOM     19  C   UNL     1      -2.228  -9.005  -0.039  0.00  0.00    +0.037 A 
ATOM     20  C   UNL     1      -2.174 -10.073  -0.937  0.00  0.00    +0.016 A 
ATOM     21  C   UNL     1      -1.066 -10.891  -0.965  0.00  0.00    +0.046 A 
BRANCH  16  22
ATOM     22  O   UNL     1       1.080 -11.471  -0.120  0.00  0.00    -0.492 OA
BRANCH  22  23
ATOM     23  C   UNL     1       2.132 -11.177   0.802  0.00  0.00    +0.229 C 
BRANCH  23  24
ATOM     24  C   UNL     1       3.264 -12.191   0.624  0.00  0.00    +0.041 C 
BRANCH  24  26
ATOM     25  C   UNL     1       5.522 -12.889   1.434  0.00  0.00    +0.004 C 
ATOM     26  C   UNL     1       4.389 -11.876   1.612  0.00  0.00    -0.000 C 
ENDBRANCH  24  26
ENDBRANCH  23  24
ENDBRANCH  22  23
ENDBRANCH  16  22
ENDBRANCH   8  19
ENDBRANCH   1  13
BRANCH   4  27
ATOM     27  C   UNL     1     -11.602 -11.425   3.811  0.00  0.00    +0.216 C 
ATOM     28  O   UNL     1     -11.256 -12.225   4.655  0.00  0.00    -0.276 OA
ATOM     29  N   UNL     1     -12.813 -10.840   3.895  0.00  0.00    -0.308 N 
ATOM     30  H   UNL     1     -13.091 -10.201   3.220  0.00  0.00    +0.149 HD
BRANCH  29  31
ATOM     31  C   UNL     1     -13.711 -11.170   5.004  0.00  0.00    +0.103 C 
ATOM     32  C   UNL     1     -15.156 -10.924   4.573  0.00  0.00    +0.027 C 
ATOM     33  C   UNL     1     -16.059 -11.063   5.804  0.00  0.00    +0.007 C 
ATOM     34  C   UNL     1     -15.794  -9.879   6.732  0.00  0.00    +0.035 C 
ATOM     35  C   UNL     1     -14.318  -9.729   6.992  0.00  0.00    -0.042 A 
ATOM     36  C   UNL     1     -13.362 -10.319   6.196  0.00  0.00    -0.024 A 
ATOM     37  C   UNL     1     -12.017 -10.135   6.488  0.00  0.00    +0.006 A 
ATOM     38  C   UNL     1     -11.632  -9.369   7.569  0.00  0.00    +0.000 A 
ATOM     39  C   UNL     1     -12.593  -8.780   8.370  0.00  0.00    +0.000 A 
ATOM     40  C   UNL     1     -13.928  -8.961   8.082  0.00  0.00    +0.004 A 
ENDBRANCH  29  31
ENDBRANCH   4  27
TORSDOF 8
