REMARK  Name = ZINC06196935
REMARK  11 active torsions:
REMARK  status: ('A' for Active; 'I' for Inactive)
REMARK    1  A    between atoms: C_1  and  C_2
REMARK    2  A    between atoms: C_2  and  O_3
REMARK    3  A    between atoms: O_3  and  C_4
REMARK    4  A    between atoms: C_11  and  C_16
REMARK    5  A    between atoms: C_16  and  C_18
REMARK    6  A    between atoms: C_16  and  N_75
REMARK    7  A    between atoms: N_22  and  C_23
REMARK    8  A    between atoms: C_29  and  C_30
REMARK    9  A    between atoms: C_29  and  N_75
REMARK   10  A    between atoms: C_35  and  C_36
REMARK   11  A    between atoms: C_35  and  N_75
REMARK                            x       y       z     vdW  Elec       q    Type
REMARK                         _______ _______ _______ _____ _____    ______ ____
ROOT
ATOM      1  C   UNL     1       5.509  -3.420   0.892  0.00  0.00    +0.039 C 
ENDROOT
BRANCH   1   9
ATOM      2  C   UNL     1       2.018   0.975  -1.739  0.00  0.00    +0.121 A 
ATOM      3  C   UNL     1       0.964   0.136  -2.095  0.00  0.00    +0.047 A 
ATOM      4  C   UNL     1       1.007  -1.209  -1.800  0.00  0.00    +0.030 A 
ATOM      5  C   UNL     1       2.111  -1.741  -1.141  0.00  0.00    +0.049 A 
ATOM      6  C   UNL     1       3.178  -0.897  -0.781  0.00  0.00    +0.002 A 
ATOM      7  C   UNL     1       3.122   0.467  -1.085  0.00  0.00    +0.055 A 
ATOM      8  C   UNL     1       4.334  -1.470  -0.088  0.00  0.00    +0.017 A 
ATOM      9  C   UNL     1       4.335  -2.799   0.181  0.00  0.00    +0.011 A 
ATOM     10  C   UNL     1       3.239  -3.603  -0.202  0.00  0.00    +0.251 A 
ATOM     11  O   UNL     1       3.260  -4.795   0.051  0.00  0.00    -0.268 OA
ATOM     12  N   UNL     1       2.174  -3.086  -0.838  0.00  0.00    -0.322 N 
ATOM     13  H   UNL     1       1.415  -3.685  -1.094  0.00  0.00    +0.169 HD
BRANCH   2  14
ATOM     14  O   UNL     1       1.958   2.300  -2.038  0.00  0.00    -0.492 OA
BRANCH  14  16
ATOM     15  C   UNL     1       0.900   4.265  -2.965  0.00  0.00    +0.048 C 
ATOM     16  C   UNL     1       0.787   2.760  -2.716  0.00  0.00    +0.225 C 
ENDBRANCH  14  16
ENDBRANCH   2  14
ENDBRANCH   1   9
BRANCH   1  17
ATOM     17  C   UNL     1       6.102  -4.504   0.030  0.00  0.00    +0.143 A 
ATOM     18  N   UNL     1       5.576  -5.677  -0.225  0.00  0.00    -0.115 NA
ATOM     19  N   UNL     1       6.383  -6.315  -1.001  0.00  0.00    -0.023 NA
ATOM     20  N   UNL     1       7.414  -5.582  -1.242  0.00  0.00    -0.044 NA
ATOM     21  N   UNL     1       7.278  -4.458  -0.624  0.00  0.00    -0.227 N 
BRANCH  21  22
ATOM     22  C   UNL     1       8.226  -3.341  -0.632  0.00  0.00    +0.111 C 
ATOM     23  C   UNL     1       8.320  -2.763  -2.046  0.00  0.00    +0.027 C 
ATOM     24  C   UNL     1       9.310  -1.596  -2.055  0.00  0.00    +0.002 C 
ATOM     25  C   UNL     1      10.688  -2.093  -1.614  0.00  0.00    +0.000 C 
ATOM     26  C   UNL     1      10.594  -2.671  -0.200  0.00  0.00    +0.002 C 
ATOM     27  C   UNL     1       9.604  -3.837  -0.191  0.00  0.00    +0.027 C 
ENDBRANCH  21  22
ENDBRANCH   1  17
BRANCH   1  28
ATOM     28  N   UNL     1       5.042  -4.019   2.160  0.00  0.00    +0.396 N 
ATOM     29  H   UNL     1       4.375  -4.771   1.948  0.00  0.00    -0.080 HD
BRANCH  28  30
ATOM     30  C   UNL     1       6.187  -4.588   2.902  0.00  0.00    -0.002 C 
BRANCH  30  31
ATOM     31  C   UNL     1       6.515  -5.939   2.320  0.00  0.00    +0.089 A 
ATOM     32  C   UNL     1       7.566  -6.220   1.528  0.00  0.00    +0.042 A 
ATOM     33  C   UNL     1       7.487  -7.597   1.217  0.00  0.00    +0.041 A 
ATOM     34  C   UNL     1       6.393  -8.075   1.836  0.00  0.00    +0.195 A 
ATOM     35  O   UNL     1       5.812  -7.067   2.507  0.00  0.00    -0.470 OA
ENDBRANCH  30  31
ENDBRANCH  28  30
BRANCH  28  36
ATOM     36  C   UNL     1       4.365  -2.995   2.984  0.00  0.00    -0.045 C 
BRANCH  36  37
ATOM     37  C   UNL     1       2.887  -2.953   2.591  0.00  0.00    +0.102 C 
ATOM     38  C   UNL     1       2.114  -1.980   3.509  0.00  0.00    +0.032 C 
ATOM     39  C   UNL     1       0.746  -2.667   3.716  0.00  0.00    +0.030 C 
ATOM     40  C   UNL     1       0.854  -3.973   2.898  0.00  0.00    +0.160 C 
ATOM     41  O   UNL     1       2.271  -4.240   2.814  0.00  0.00    -0.378 OA
ENDBRANCH  36  37
ENDBRANCH  28  36
ENDBRANCH   1  28
TORSDOF 10
