REMARK  Name = ZINC14152191
REMARK  7 active torsions:
REMARK  status: ('A' for Active; 'I' for Inactive)
REMARK    1  A    between atoms: C_4  and  C_7
REMARK    2  A    between atoms: C_7  and  N_8
REMARK    3  A    between atoms: C_10  and  C_17
REMARK    4  A    between atoms: C_18  and  C_19
REMARK    5  A    between atoms: C_18  and  C_21
REMARK    6  A    between atoms: N_23  and  C_24
REMARK    7  A    between atoms: C_25  and  C_33
REMARK                            x       y       z     vdW  Elec       q    Type
REMARK                         _______ _______ _______ _____ _____    ______ ____
ROOT
ATOM      1  C   UNL     1       6.014  -0.143   4.308  0.00  0.00    +0.034 C 
ATOM      2  C   UNL     1       6.796   0.971   4.054  0.00  0.00    +0.114 C 
ENDROOT
BRANCH   1   5
ATOM      3  N   UNL     1       3.543  -0.471   1.714  0.00  0.00    -0.342 N 
ATOM      4  C   UNL     1       4.466   0.246   2.383  0.00  0.00    +0.095 A 
ATOM      5  C   UNL     1       5.015  -0.529   3.388  0.00  0.00    +0.002 A 
ATOM      6  C   UNL     1       4.346  -1.843   3.304  0.00  0.00    +0.007 A 
ATOM      7  C   UNL     1       3.433  -1.742   2.242  0.00  0.00    +0.050 A 
ATOM      8  C   UNL     1       2.640  -2.838   1.919  0.00  0.00    +0.026 A 
ATOM      9  C   UNL     1       2.753  -4.006   2.642  0.00  0.00    +0.002 A 
ATOM     10  C   UNL     1       3.652  -4.102   3.693  0.00  0.00    +0.001 A 
ATOM     11  C   UNL     1       4.453  -3.029   4.023  0.00  0.00    +0.010 A 
BRANCH   3  12
ATOM     12  C   UNL     1       2.758   0.032   0.584  0.00  0.00    +0.157 C 
BRANCH  12  16
ATOM     13  C   UNL     1      -0.992   1.510   1.997  0.00  0.00    +0.000 A 
ATOM     14  C   UNL     1       0.098   2.356   1.917  0.00  0.00    +0.000 A 
ATOM     15  C   UNL     1       1.312   1.878   1.459  0.00  0.00    +0.005 A 
ATOM     16  C   UNL     1       1.435   0.553   1.083  0.00  0.00    -0.028 A 
ATOM     17  C   UNL     1       0.345  -0.293   1.165  0.00  0.00    +0.005 A 
ATOM     18  C   UNL     1      -0.869   0.186   1.621  0.00  0.00    +0.000 A 
ENDBRANCH  12  16
ENDBRANCH   3  12
ENDBRANCH   1   5
BRANCH   2  19
ATOM     19  C   UNL     1       7.726   1.464   5.078  0.00  0.00    +0.259 C 
ATOM     20  O   UNL     1       7.810   0.893   6.149  0.00  0.00    -0.269 OA
ATOM     21  N   UNL     1       8.486   2.549   4.831  0.00  0.00    -0.274 N 
ATOM     22  H   UNL     1       8.419   3.004   3.977  0.00  0.00    +0.156 HD
BRANCH  21  23
ATOM     23  C   UNL     1       9.365   3.014   5.797  0.00  0.00    +0.090 A 
ATOM     24  C   UNL     1      10.213   4.107   5.722  0.00  0.00    +0.084 A 
ATOM     25  C   UNL     1      11.040   4.387   6.882  0.00  0.00    -0.018 A 
ATOM     26  C   UNL     1      10.869   3.522   7.905  0.00  0.00    -0.004 A 
ATOM     27  S   UNL     1       9.640   2.387   7.330  0.00  0.00    -0.077 S 
ATOM     28  C   UNL     1      11.572   3.541   9.227  0.00  0.00    +0.043 C 
ATOM     29  C   UNL     1      12.792   4.466   9.111  0.00  0.00    +0.005 C 
ATOM     30  C   UNL     1      12.357   5.780   8.455  0.00  0.00    +0.005 C 
ATOM     31  C   UNL     1      12.027   5.542   6.980  0.00  0.00    +0.037 C 
BRANCH  24  32
ATOM     32  C   UNL     1      10.271   4.927   4.549  0.00  0.00    +0.102 C 
ATOM     33  N   UNL     1      10.317   5.577   3.619  0.00  0.00    -0.191 NA
ENDBRANCH  24  32
ENDBRANCH  21  23
ENDBRANCH   2  19
BRANCH   2  34
ATOM     34  C   UNL     1       6.697   1.643   2.794  0.00  0.00    +0.104 C 
ATOM     35  N   UNL     1       6.618   2.176   1.794  0.00  0.00    -0.191 NA
ENDBRANCH   2  34
TORSDOF 7
