REMARK  Name = ZINC09739073
REMARK  7 active torsions:
REMARK  status: ('A' for Active; 'I' for Inactive)
REMARK    1  A    between atoms: C_6  and  S_11
REMARK    2  A    between atoms: S_11  and  N_14
REMARK    3  A    between atoms: C_17  and  C_20
REMARK    4  A    between atoms: N_22  and  C_23
REMARK    5  A    between atoms: C_23  and  C_24
REMARK    6  A    between atoms: C_29  and  C_30
REMARK    7  A    between atoms: C_30  and  N_68
REMARK                            x       y       z     vdW  Elec       q    Type
REMARK                         _______ _______ _______ _____ _____    ______ ____
ROOT
ATOM      1  N   UNL     1       1.048   8.184   1.616  0.00  0.00    -0.177 NA
ATOM      2  C   UNL     1      -0.212   8.390   2.342  0.00  0.00    +0.110 C 
ATOM      3  C   UNL     1      -0.175   7.557   3.632  0.00  0.00    +0.030 C 
ATOM      4  C   UNL     1       1.078   7.921   4.432  0.00  0.00    +0.077 C 
ATOM      5  C   UNL     1       2.325   7.590   3.609  0.00  0.00    +0.030 C 
ATOM      6  C   UNL     1       2.316   8.419   2.320  0.00  0.00    +0.110 C 
ENDROOT
BRANCH   4   7
ATOM      7  C   UNL     1       1.100   7.134   5.716  0.00  0.00    +0.216 C 
ATOM      8  O   UNL     1       2.023   6.382   5.950  0.00  0.00    -0.276 OA
ATOM      9  N   UNL     1       0.096   7.265   6.605  0.00  0.00    -0.311 N 
ATOM     10  H   UNL     1      -0.642   7.866   6.418  0.00  0.00    +0.149 HD
BRANCH   9  11
ATOM     11  C   UNL     1       0.117   6.499   7.854  0.00  0.00    +0.139 C 
BRANCH  11  12
ATOM     12  C   UNL     1      -1.111   6.824   8.664  0.00  0.00    -0.029 A 
ATOM     13  C   UNL     1      -1.027   7.717   9.717  0.00  0.00    +0.005 A 
ATOM     14  C   UNL     1      -2.155   8.020  10.457  0.00  0.00    +0.000 A 
ATOM     15  C   UNL     1      -3.363   7.421  10.152  0.00  0.00    +0.000 A 
ATOM     16  C   UNL     1      -3.445   6.525   9.103  0.00  0.00    +0.002 A 
ATOM     17  C   UNL     1      -2.319   6.227   8.359  0.00  0.00    -0.059 A 
BRANCH  17  18
ATOM     18  C   UNL     1      -2.408   5.249   7.216  0.00  0.00    -0.043 C 
BRANCH  18  23
ATOM     19  C   UNL     1      -2.595   3.497   8.896  0.00  0.00    -0.078 C 
ATOM     20  C   UNL     1      -2.365   1.965   8.903  0.00  0.00    -0.020 C 
ATOM     21  C   UNL     1      -2.483   1.591   7.407  0.00  0.00    -0.020 C 
ATOM     22  C   UNL     1      -2.202   2.897   6.642  0.00  0.00    -0.078 C 
ATOM     23  N   UNL     1      -1.914   3.910   7.659  0.00  0.00    +0.382 N 
ATOM     24  H   UNL     1      -0.902   3.962   7.820  0.00  0.00    -0.081 HD
ENDBRANCH  18  23
ENDBRANCH  17  18
ENDBRANCH  11  12
ENDBRANCH   9  11
ENDBRANCH   4   7
BRANCH   1  25
ATOM     25  S   UNL     1       1.040   7.702   0.031  0.00  0.00    +0.061 S 
ATOM     26  O   UNL     1       2.275   8.128  -0.529  0.00  0.00    -0.153 OA
ATOM     27  O   UNL     1      -0.216   8.094  -0.506  0.00  0.00    -0.153 OA
BRANCH  25  33
ATOM     28  C   UNL     1      -0.013   1.076   0.008  0.00  0.00    +0.001 A 
ATOM     29  C   UNL     1      -1.235   1.746   0.017  0.00  0.00    +0.001 A 
ATOM     30  C   UNL     1      -1.288   3.106   0.030  0.00  0.00    +0.008 A 
ATOM     31  C   UNL     1      -0.096   3.849   0.023  0.00  0.00    -0.016 A 
ATOM     32  C   UNL     1      -0.111   5.254   0.030  0.00  0.00    +0.037 A 
ATOM     33  C   UNL     1       1.064   5.940   0.022  0.00  0.00    +0.106 A 
ATOM     34  C   UNL     1       2.286   5.270   0.008  0.00  0.00    +0.029 A 
ATOM     35  C   UNL     1       2.340   3.910  -0.000  0.00  0.00    +0.010 A 
ATOM     36  C   UNL     1       1.147   3.167   0.008  0.00  0.00    -0.018 A 
ATOM     37  C   UNL     1       1.163   1.762   0.000  0.00  0.00    +0.008 A 
ENDBRANCH  25  33
ENDBRANCH   1  25
TORSDOF 7
