REMARK  Name = ZINC20175853
REMARK  10 active torsions:
REMARK  status: ('A' for Active; 'I' for Inactive)
REMARK    1  A    between atoms: C_1  and  C_2
REMARK    2  A    between atoms: C_2  and  O_3
REMARK    3  A    between atoms: O_3  and  C_4
REMARK    4  A    between atoms: C_6  and  C_20
REMARK    5  A    between atoms: C_9  and  O_10
REMARK    6  A    between atoms: O_10  and  C_11
REMARK    7  A    between atoms: C_11  and  C_13
REMARK    8  A    between atoms: C_23  and  C_34
REMARK    9  A    between atoms: C_29  and  N_33
REMARK   10  A    between atoms: C_30  and  C_31
REMARK                            x       y       z     vdW  Elec       q    Type
REMARK                         _______ _______ _______ _____ _____    ______ ____
ROOT
ATOM      1  C   UNL     1       0.255  -4.778   0.039  0.00  0.00    +0.102 C 
ATOM      2  C   UNL     1       0.233  -5.933  -0.929  0.00  0.00    +0.054 A 
ATOM      3  C   UNL     1       0.371  -5.923  -2.321  0.00  0.00    +0.100 A 
ATOM      4  N   UNL     1       0.285  -7.169  -2.746  0.00  0.00    -0.171 NA
ATOM      5  N   UNL     1       0.091  -8.003  -1.634  0.00  0.00    -0.246 N 
ATOM      6  H   UNL     1      -0.006  -8.968  -1.655  0.00  0.00    +0.192 HD
ATOM      7  C   UNL     1       0.063  -7.227  -0.531  0.00  0.00    +0.223 A 
ATOM      8  O   UNL     1      -0.098  -7.577   0.770  0.00  0.00    -0.423 OA
ATOM      9  C   UNL     1       0.185  -6.649   1.706  0.00  0.00    +0.200 C 
ATOM     10  C   UNL     1       0.365  -5.336   1.436  0.00  0.00    +0.098 C 
ENDROOT
BRANCH   1  13
ATOM     11  C   UNL     1      -2.125  -1.885  -0.452  0.00  0.00    +0.163 A 
ATOM     12  C   UNL     1      -0.956  -2.620  -0.330  0.00  0.00    +0.054 A 
ATOM     13  C   UNL     1      -1.017  -3.981  -0.092  0.00  0.00    -0.031 A 
ATOM     14  C   UNL     1      -2.241  -4.611   0.026  0.00  0.00    +0.008 A 
ATOM     15  C   UNL     1      -3.411  -3.884  -0.094  0.00  0.00    +0.050 A 
ATOM     16  C   UNL     1      -3.358  -2.519  -0.328  0.00  0.00    +0.173 A 
BRANCH  11  17
ATOM     17  O   UNL     1      -2.067  -0.547  -0.685  0.00  0.00    -0.489 OA
BRANCH  17  19
ATOM     18  C   UNL     1      -0.903   1.537  -1.061  0.00  0.00    +0.048 C 
ATOM     19  C   UNL     1      -0.767   0.036  -0.801  0.00  0.00    +0.226 C 
ENDBRANCH  17  19
ENDBRANCH  11  17
BRANCH  16  20
ATOM     20  O   UNL     1      -4.507  -1.802  -0.441  0.00  0.00    -0.419 OA
BRANCH  20  21
ATOM     21  C   UNL     1      -4.945  -1.500  -1.679  0.00  0.00    +0.345 C 
ATOM     22  O   UNL     1      -4.367  -1.942  -2.652  0.00  0.00    -0.245 OA
BRANCH  21  23
ATOM     23  C   UNL     1      -6.126  -0.632  -1.853  0.00  0.00    +0.060 A 
ATOM     24  C   UNL     1      -6.788  -0.117  -0.735  0.00  0.00    +0.018 A 
ATOM     25  C   UNL     1      -7.890   0.693  -0.903  0.00  0.00    +0.039 A 
ATOM     26  C   UNL     1      -8.342   0.998  -2.179  0.00  0.00    +0.123 A 
ATOM     27  C   UNL     1      -7.688   0.490  -3.291  0.00  0.00    +0.039 A 
ATOM     28  C   UNL     1      -6.582  -0.317  -3.135  0.00  0.00    +0.018 A 
ATOM     29  F   UNL     1      -9.423   1.793  -2.337  0.00  0.00    -0.205 F 
ENDBRANCH  21  23
ENDBRANCH  20  21
ENDBRANCH  16  20
ENDBRANCH   1  13
BRANCH   3  30
ATOM     30  C   UNL     1       0.577  -4.723  -3.170  0.00  0.00    +0.003 A 
ATOM     31  C   UNL     1      -0.114  -4.590  -4.372  0.00  0.00    +0.010 A 
ATOM     32  C   UNL     1       0.081  -3.472  -5.158  0.00  0.00    +0.001 A 
ATOM     33  C   UNL     1       0.961  -2.484  -4.753  0.00  0.00    +0.000 A 
ATOM     34  C   UNL     1       1.649  -2.611  -3.560  0.00  0.00    +0.001 A 
ATOM     35  C   UNL     1       1.457  -3.722  -2.764  0.00  0.00    +0.010 A 
ENDBRANCH   3  30
BRANCH   9  36
ATOM     36  N   UNL     1       0.300  -7.062   3.011  0.00  0.00    -0.328 N 
ATOM     37  H   UNL     1       0.177  -7.997   3.236  0.00  0.00    +0.145 HD
ATOM     38  H   UNL     1       0.503  -6.418   3.707  0.00  0.00    +0.145 HD
ENDBRANCH   9  36
BRANCH  10  39
ATOM     39  C   UNL     1       0.668  -4.444   2.514  0.00  0.00    +0.101 C 
ATOM     40  N   UNL     1       0.909  -3.736   3.369  0.00  0.00    -0.191 NA
ENDBRANCH  10  39
TORSDOF 9
