REMARK  Name = ZINC39266738
REMARK  6 active torsions:
REMARK  status: ('A' for Active; 'I' for Inactive)
REMARK    1  A    between atoms: C_7  and  C_10
REMARK    2  A    between atoms: C_10  and  C_11
REMARK    3  A    between atoms: C_11  and  C_13
REMARK    4  A    between atoms: C_11  and  N_16
REMARK    5  A    between atoms: C_17  and  C_19
REMARK    6  A    between atoms: C_19  and  N_20
REMARK                            x       y       z     vdW  Elec       q    Type
REMARK                         _______ _______ _______ _____ _____    ______ ____
ROOT
ATOM      1  N   UNL     1      -3.086   3.789  -1.929  0.00  0.00    -0.302 N 
ATOM      2  C   UNL     1      -2.899   3.737  -3.263  0.00  0.00    +0.231 C 
ATOM      3  O   UNL     1      -3.849   3.599  -4.003  0.00  0.00    -0.274 OA
ATOM      4  H   UNL     1      -2.325   3.899  -1.337  0.00  0.00    +0.150 HD
ENDROOT
BRANCH   1   5
ATOM      5  C   UNL     1      -4.437   3.680  -1.374  0.00  0.00    +0.163 C 
BRANCH   5   6
ATOM      6  C   UNL     1      -5.091   5.038  -1.373  0.00  0.00    +0.231 C 
ATOM      7  O   UNL     1      -4.487   6.002  -1.795  0.00  0.00    -0.274 OA
ATOM      8  N   UNL     1      -6.346   5.181  -0.904  0.00  0.00    -0.328 N 
ATOM      9  H   UNL     1      -6.829   4.410  -0.567  0.00  0.00    +0.145 HD
ATOM     10  H   UNL     1      -6.767   6.055  -0.903  0.00  0.00    +0.145 HD
ENDBRANCH   5   6
BRANCH   5  11
ATOM     11  C   UNL     1      -4.358   3.151   0.060  0.00  0.00    +0.069 C 
BRANCH  11  18
ATOM     12  C   UNL     1      -0.017   1.384   0.010  0.00  0.00    +0.001 A 
ATOM     13  C   UNL     1       0.002  -0.004   0.002  0.00  0.00    +0.002 A 
ATOM     14  C   UNL     1      -1.173  -0.723   0.009  0.00  0.00    +0.026 A 
ATOM     15  C   UNL     1      -2.392  -0.053   0.024  0.00  0.00    +0.047 A 
ATOM     16  N   UNL     1      -3.704  -0.472   0.034  0.00  0.00    -0.360 N 
ATOM     17  C   UNL     1      -4.539   0.612   0.047  0.00  0.00    +0.087 A 
ATOM     18  C   UNL     1      -3.818   1.744   0.047  0.00  0.00    -0.020 A 
ATOM     19  C   UNL     1      -2.406   1.353   0.032  0.00  0.00    +0.003 A 
ATOM     20  C   UNL     1      -1.203   2.062   0.030  0.00  0.00    +0.010 A 
ATOM     21  H   UNL     1      -3.993  -1.398   0.030  0.00  0.00    +0.165 HD
ENDBRANCH  11  18
ENDBRANCH   5  11
ENDBRANCH   1   5
BRANCH   2  22
ATOM     22  C   UNL     1      -1.509   3.849  -3.834  0.00  0.00    +0.209 C 
BRANCH  22  23
ATOM     23  N   UNL     1      -1.573   3.764  -5.295  0.00  0.00    -0.260 N 
ATOM     24  C   UNL     1      -1.481   2.506  -5.867  0.00  0.00    +0.049 A 
ATOM     25  C   UNL     1      -2.139   1.452  -5.234  0.00  0.00    +0.024 A 
ATOM     26  C   UNL     1      -2.065   0.174  -5.743  0.00  0.00    +0.002 A 
ATOM     27  C   UNL     1      -1.331  -0.072  -6.892  0.00  0.00    +0.001 A 
ATOM     28  C   UNL     1      -0.683   0.956  -7.533  0.00  0.00    +0.015 A 
ATOM     29  C   UNL     1      -0.756   2.270  -7.034  0.00  0.00    +0.058 A 
ATOM     30  C   UNL     1      -0.084   3.318  -7.797  0.00  0.00    +0.249 C 
ATOM     31  O   UNL     1       1.023   3.060  -8.227  0.00  0.00    -0.270 OA
ATOM     32  N   UNL     1      -0.574   4.544  -8.071  0.00  0.00    -0.286 N 
ATOM     33  C   UNL     1       0.203   5.342  -9.022  0.00  0.00    +0.109 C 
ATOM     34  C   UNL     1      -0.235   6.802  -9.028  0.00  0.00    +0.019 C 
ATOM     35  C   UNL     1      -1.764   6.818  -9.178  0.00  0.00    +0.004 C 
ATOM     36  C   UNL     1      -2.352   6.321  -7.863  0.00  0.00    +0.032 C 
ATOM     37  C   UNL     1      -1.828   4.954  -7.471  0.00  0.00    +0.163 C 
ATOM     38  C   UNL     1      -1.719   4.897  -5.968  0.00  0.00    +0.241 C 
ATOM     39  O   UNL     1      -1.764   5.937  -5.346  0.00  0.00    -0.273 OA
ENDBRANCH  22  23
ENDBRANCH   2  22
TORSDOF 6
