REMARK  Name = ZINC12070741
REMARK  11 active torsions:
REMARK  status: ('A' for Active; 'I' for Inactive)
REMARK    1  A    between atoms: C_1  and  C_2
REMARK    2  A    between atoms: C_2  and  C_3
REMARK    3  A    between atoms: C_3  and  N_60
REMARK    4  A    between atoms: C_9  and  N_14
REMARK    5  A    between atoms: C_10  and  C_11
REMARK    6  A    between atoms: C_15  and  C_17
REMARK    7  A    between atoms: C_17  and  C_18
REMARK    8  A    between atoms: C_21  and  S_24
REMARK    9  A    between atoms: S_24  and  C_27
REMARK   10  A    between atoms: C_27  and  C_28
REMARK   11  A    between atoms: C_27  and  C_29
REMARK                            x       y       z     vdW  Elec       q    Type
REMARK                         _______ _______ _______ _____ _____    ______ ____
ROOT
ATOM      1  C   UNL     1       0.151   0.812  13.066  0.00  0.00    -0.074 C 
ATOM      2  C   UNL     1      -0.816   1.849  12.486  0.00  0.00    +0.018 C 
ATOM      3  C   UNL     1      -0.714   1.795  10.967  0.00  0.00    -0.027 A 
ATOM      4  C   UNL     1       0.352   1.207  10.378  0.00  0.00    -0.021 A 
ATOM      5  S   UNL     1       0.057   1.372   8.642  0.00  0.00    -0.079 S 
ATOM      6  C   UNL     1      -1.459   2.209   8.694  0.00  0.00    +0.084 A 
ATOM      7  C   UNL     1      -1.698   2.347  10.055  0.00  0.00    +0.068 A 
ATOM      8  C   UNL     1       1.512   0.569  11.076  0.00  0.00    -0.035 C 
ATOM      9  N   UNL     1       1.496   1.020  12.489  0.00  0.00    +0.383 N 
ATOM     10  H   UNL     1       1.723   2.020  12.523  0.00  0.00    -0.081 HD
ENDROOT
BRANCH   7  11
ATOM     11  C   UNL     1      -2.902   3.021  10.552  0.00  0.00    +0.244 C 
ATOM     12  O   UNL     1      -3.916   2.380  10.762  0.00  0.00    -0.270 OA
ATOM     13  N   UNL     1      -2.886   4.350  10.777  0.00  0.00    -0.325 N 
ATOM     14  H   UNL     1      -2.079   4.861  10.610  0.00  0.00    +0.145 HD
ATOM     15  H   UNL     1      -3.683   4.796  11.105  0.00  0.00    +0.145 HD
ENDBRANCH   7  11
BRANCH   6  16
ATOM     16  N   UNL     1      -2.241   2.642   7.634  0.00  0.00    -0.279 N 
ATOM     17  C   UNL     1      -1.840   2.421   6.367  0.00  0.00    +0.222 C 
ATOM     18  O   UNL     1      -0.795   1.843   6.154  0.00  0.00    -0.275 OA
ATOM     19  H   UNL     1      -3.077   3.104   7.805  0.00  0.00    +0.155 HD
BRANCH  17  20
ATOM     20  C   UNL     1      -2.690   2.891   5.215  0.00  0.00    +0.131 C 
BRANCH  20  21
ATOM     21  C   UNL     1      -2.022   2.523   3.915  0.00  0.00    -0.039 A 
ATOM     22  C   UNL     1      -2.295   1.306   3.318  0.00  0.00    +0.006 A 
ATOM     23  C   UNL     1      -1.683   0.968   2.126  0.00  0.00    +0.027 A 
ATOM     24  C   UNL     1      -0.798   1.847   1.530  0.00  0.00    +0.088 A 
ATOM     25  C   UNL     1      -0.521   3.062   2.129  0.00  0.00    +0.027 A 
ATOM     26  C   UNL     1      -1.137   3.402   3.319  0.00  0.00    +0.006 A 
BRANCH  24  27
ATOM     27  S   UNL     1      -0.017   1.417   0.010  0.00  0.00    -0.001 S 
ATOM     28  O   UNL     1       0.002  -0.004   0.002  0.00  0.00    -0.169 OA
ATOM     29  O   UNL     1       1.195   2.158   0.002  0.00  0.00    -0.169 OA
BRANCH  27  30
ATOM     30  C   UNL     1      -1.135   2.034  -1.279  0.00  0.00    +0.130 C 
ATOM     31  C   UNL     1      -1.294   3.548  -1.134  0.00  0.00    +0.032 C 
ATOM     32  C   UNL     1      -0.551   1.712  -2.657  0.00  0.00    +0.032 C 
ENDBRANCH  27  30
ENDBRANCH  24  27
ENDBRANCH  20  21
ENDBRANCH  17  20
ENDBRANCH   6  16
BRANCH   9  33
ATOM     33  C   UNL     1       2.503   0.271  13.271  0.00  0.00    -0.079 C 
BRANCH  33  35
ATOM     34  C   UNL     1       3.192  -1.966  14.146  0.00  0.00    +0.002 C 
ATOM     35  C   UNL     1       2.137  -1.214  13.331  0.00  0.00    -0.022 C 
ENDBRANCH  33  35
ENDBRANCH   9  33
TORSDOF 8
