REMARK  Name = ZINC27345911
REMARK  8 active torsions:
REMARK  status: ('A' for Active; 'I' for Inactive)
REMARK    1  A    between atoms: C_1  and  C_2
REMARK    2  A    between atoms: C_2  and  C_3
REMARK    3  A    between atoms: C_2  and  C_4
REMARK    4  A    between atoms: C_12  and  N_29
REMARK    5  A    between atoms: C_15  and  S_17
REMARK    6  A    between atoms: S_17  and  C_18
REMARK    7  A    between atoms: C_18  and  C_19
REMARK    8  A    between atoms: N_21  and  C_22
REMARK                            x       y       z     vdW  Elec       q    Type
REMARK                         _______ _______ _______ _____ _____    ______ ____
ROOT
ATOM      1  C   UNL     1      -4.529   4.301  -1.841  0.00  0.00    +0.126 C 
ATOM      2  C   UNL     1      -3.650   3.118  -1.425  0.00  0.00    +0.068 C 
ATOM      3  C   UNL     1      -2.190   3.550  -1.539  0.00  0.00    -0.027 A 
ATOM      4  C   UNL     1      -1.881   4.647  -2.288  0.00  0.00    +0.021 A 
ATOM      5  S   UNL     1      -0.119   4.780  -2.151  0.00  0.00    -0.071 S 
ATOM      6  C   UNL     1       0.140   3.366  -1.119  0.00  0.00    +0.107 A 
ATOM      7  C   UNL     1      -1.137   2.883  -0.910  0.00  0.00    -0.009 A 
ATOM      8  C   UNL     1      -1.297   1.667  -0.004  0.00  0.00    +0.045 C 
ATOM      9  N   UNL     1      -0.008   0.961  -0.004  0.00  0.00    -0.334 N 
ATOM     10  C   UNL     1       1.180   1.654  -0.012  0.00  0.00    +0.154 C 
ATOM     11  N   UNL     1       1.266   2.835  -0.602  0.00  0.00    -0.219 NA
ATOM     12  C   UNL     1      -2.841   5.510  -3.038  0.00  0.00    +0.203 C 
ATOM     13  O   UNL     1      -4.099   4.819  -3.103  0.00  0.00    -0.371 OA
ATOM     14  H   UNL     1       0.017  -0.139   0.002  0.00  0.00    +0.146 HD
ENDROOT
BRANCH   8  15
ATOM     15  N   UNL     1      -1.631   2.103   1.359  0.00  0.00    +0.393 N 
ATOM     16  H   UNL     1      -1.745   1.222   2.008  0.00  0.00    -0.087 HD
ATOM     17  H   UNL     1      -2.573   2.671   1.342  0.00  0.00    -0.087 HD
ATOM     18  H   UNL     1      -0.824   2.743   1.747  0.00  0.00    -0.087 HD
ENDBRANCH   8  15
BRANCH   1  20
ATOM     19  C   UNL     1      -6.864   5.015  -2.373  0.00  0.00    +0.010 C 
ATOM     20  C   UNL     1      -5.982   3.836  -1.958  0.00  0.00    +0.012 C 
ATOM     21  C   UNL     1      -6.081   2.730  -3.010  0.00  0.00    +0.010 C 
ENDBRANCH   1  20
BRANCH  10  22
ATOM     22  S   UNL     1       2.599   0.963   0.771  0.00  0.00    -0.081 S 
BRANCH  22  23
ATOM     23  C   UNL     1       3.805   2.273   0.447  0.00  0.00    +0.173 C 
BRANCH  23  24
ATOM     24  C   UNL     1       5.136   1.890   1.043  0.00  0.00    +0.227 C 
ATOM     25  O   UNL     1       5.256   0.835   1.629  0.00  0.00    -0.275 OA
ATOM     26  N   UNL     1       6.191   2.719   0.925  0.00  0.00    -0.285 N 
ATOM     27  H   UNL     1       6.103   3.640   0.329  0.00  0.00    +0.155 HD
BRANCH  26  28
ATOM     28  C   UNL     1       7.399   2.410   1.561  0.00  0.00    +0.033 A 
ATOM     29  C   UNL     1       8.194   3.425   2.076  0.00  0.00    +0.024 A 
ATOM     30  C   UNL     1       9.383   3.116   2.707  0.00  0.00    +0.017 A 
ATOM     31  C   UNL     1       9.788   1.797   2.816  0.00  0.00    +0.018 A 
ATOM     32  C   UNL     1       9.000   0.784   2.299  0.00  0.00    +0.017 A 
ATOM     33  C   UNL     1       7.808   1.087   1.671  0.00  0.00    +0.024 A 
ATOM     34 BR   UNL     1      11.420   1.379   3.675  0.00  0.00    -0.050 Br
ENDBRANCH  26  28
ENDBRANCH  23  24
ENDBRANCH  22  23
ENDBRANCH  10  22
TORSDOF 6
