REMARK  Name = ZINC12465518
REMARK  10 active torsions:
REMARK  status: ('A' for Active; 'I' for Inactive)
REMARK    1  A    between atoms: C_1  and  C_2
REMARK    2  A    between atoms: C_2  and  O_3
REMARK    3  A    between atoms: O_3  and  C_4
REMARK    4  A    between atoms: C_4  and  C_6
REMARK    5  A    between atoms: C_7  and  C_31
REMARK    6  A    between atoms: C_8  and  C_28
REMARK    7  A    between atoms: C_9  and  N_11
REMARK    8  A    between atoms: C_12  and  C_14
REMARK    9  A    between atoms: N_19  and  S_20
REMARK   10  A    between atoms: S_20  and  C_23
REMARK                            x       y       z     vdW  Elec       q    Type
REMARK                         _______ _______ _______ _____ _____    ______ ____
ROOT
ATOM      1  N   UNL     1      -0.011   0.966   0.007  0.00  0.00    -0.278 N 
ATOM      2  C   UNL     1       1.147   1.655   0.000  0.00  0.00    +0.236 C 
ATOM      3  O   UNL     1       1.130   2.868   0.007  0.00  0.00    -0.274 OA
ATOM      4  H   UNL     1       0.002  -0.004   0.002  0.00  0.00    +0.155 HD
ENDROOT
BRANCH   1   8
ATOM      5  C   UNL     1      -3.280   3.339   0.036  0.00  0.00    +0.102 A 
ATOM      6  C   UNL     1      -3.572   2.001   0.030  0.00  0.00    -0.015 A 
ATOM      7  C   UNL     1      -2.511   1.111   0.014  0.00  0.00    +0.069 A 
ATOM      8  C   UNL     1      -1.217   1.640   0.017  0.00  0.00    +0.085 A 
ATOM      9  S   UNL     1      -1.497   3.351   0.027  0.00  0.00    -0.066 S 
ATOM     10  C   UNL     1      -4.999   1.515   0.035  0.00  0.00    +0.046 C 
BRANCH   7  11
ATOM     11  C   UNL     1      -2.738  -0.340  -0.000  0.00  0.00    +0.244 C 
ATOM     12  O   UNL     1      -2.830  -0.952   1.048  0.00  0.00    -0.270 OA
ATOM     13  N   UNL     1      -2.844  -0.994  -1.174  0.00  0.00    -0.325 N 
ATOM     14  H   UNL     1      -2.771  -0.506  -2.009  0.00  0.00    +0.145 HD
ATOM     15  H   UNL     1      -2.994  -1.952  -1.183  0.00  0.00    +0.145 HD
ENDBRANCH   7  11
BRANCH   5  16
ATOM     16  C   UNL     1      -4.200   4.476   0.045  0.00  0.00    +0.346 C 
ATOM     17  O   UNL     1      -5.402   4.285   0.050  0.00  0.00    -0.244 OA
BRANCH  16  18
ATOM     18  O   UNL     1      -3.717   5.735   0.050  0.00  0.00    -0.461 OA
BRANCH  18  20
ATOM     19  C   UNL     1      -3.943   8.141   0.062  0.00  0.00    +0.048 C 
ATOM     20  C   UNL     1      -4.673   6.797   0.059  0.00  0.00    +0.229 C 
ENDBRANCH  18  20
ENDBRANCH  16  18
ENDBRANCH   5  16
ENDBRANCH   1   8
BRANCH   2  21
ATOM     21  C   UNL     1       2.462   0.920  -0.017  0.00  0.00    +0.166 C 
ATOM     22  C   UNL     1       2.602   0.066   1.261  0.00  0.00    +0.031 C 
ATOM     23  C   UNL     1       4.104   0.218   1.618  0.00  0.00    +0.019 C 
ATOM     24  C   UNL     1       4.377   1.684   1.198  0.00  0.00    +0.110 C 
ATOM     25  N   UNL     1       3.573   1.882  -0.022  0.00  0.00    -0.164 NA
BRANCH  25  26
ATOM     26  S   UNL     1       3.873   3.003  -1.204  0.00  0.00    +0.068 S 
ATOM     27  O   UNL     1       5.259   3.312  -1.128  0.00  0.00    -0.152 OA
ATOM     28  O   UNL     1       3.266   2.514  -2.391  0.00  0.00    -0.152 OA
BRANCH  26  29
ATOM     29  C   UNL     1       3.006   4.471  -0.761  0.00  0.00    +0.143 A 
ATOM     30  C   UNL     1       3.426   5.518  -0.009  0.00  0.00    +0.036 A 
ATOM     31  C   UNL     1       2.564   6.577   0.207  0.00  0.00    +0.010 A 
ATOM     32  C   UNL     1       1.322   6.534  -0.332  0.00  0.00    +0.047 A 
ATOM     33  S   UNL     1       1.342   4.964  -1.182  0.00  0.00    -0.077 S 
ENDBRANCH  26  29
ENDBRANCH  25  26
ENDBRANCH   2  21
TORSDOF 8
