REMARK  Name = ZINC07130119
REMARK  6 active torsions:
REMARK  status: ('A' for Active; 'I' for Inactive)
REMARK    1  A    between atoms: C_1  and  C_2
REMARK    2  A    between atoms: C_9  and  C_11
REMARK    3  A    between atoms: C_14  and  S_16
REMARK    4  A    between atoms: S_16  and  C_17
REMARK    5  A    between atoms: C_17  and  C_18
REMARK    6  A    between atoms: N_23  and  C_24
REMARK                            x       y       z     vdW  Elec       q    Type
REMARK                         _______ _______ _______ _____ _____    ______ ____
ROOT
ATOM      1  C   UNL     1       2.552   1.288  -0.015  0.00  0.00    +0.256 A 
ATOM      2  N   UNL     1       2.925   0.029  -0.026  0.00  0.00    -0.106 NA
ATOM      3  N   UNL     1       4.210  -0.036  -0.039  0.00  0.00    -0.101 NA
ATOM      4  C   UNL     1       4.710   1.177  -0.037  0.00  0.00    +0.278 A 
ATOM      5  O   UNL     1       3.675   2.041  -0.028  0.00  0.00    -0.410 OA
ENDROOT
BRANCH   1  13
ATOM      6  C   UNL     1      -5.027   1.401   0.337  0.00  0.00    +0.008 C 
ATOM      7  C   UNL     1      -3.644   2.038   0.495  0.00  0.00    -0.009 C 
ATOM      8  C   UNL     1      -3.580   3.321  -0.339  0.00  0.00    +0.009 C 
ATOM      9  C   UNL     1      -2.300   4.086   0.042  0.00  0.00    +0.043 C 
ATOM     10  C   UNL     1      -1.158   3.122   0.028  0.00  0.00    -0.006 A 
ATOM     11  C   UNL     1      -1.222   1.760   0.017  0.00  0.00    -0.036 A 
ATOM     12  C   UNL     1      -0.013   1.076   0.008  0.00  0.00    +0.024 A 
ATOM     13  C   UNL     1       1.169   1.787   0.001  0.00  0.00    +0.076 A 
ATOM     14  S   UNL     1       0.580   3.474   0.015  0.00  0.00    -0.088 S 
ATOM     15  C   UNL     1      -2.575   1.053   0.021  0.00  0.00    +0.039 C 
ENDBRANCH   1  13
BRANCH   4  16
ATOM     16  S   UNL     1       6.420   1.599  -0.051  0.00  0.00    -0.056 S 
BRANCH  16  17
ATOM     17  C   UNL     1       7.152  -0.056  -0.067  0.00  0.00    +0.175 C 
BRANCH  17  18
ATOM     18  C   UNL     1       8.655   0.059  -0.081  0.00  0.00    +0.231 C 
ATOM     19  O   UNL     1       9.179   1.152  -0.080  0.00  0.00    -0.274 OA
ATOM     20  N   UNL     1       9.416  -1.053  -0.094  0.00  0.00    -0.240 N 
ATOM     21  C   UNL     1      10.760  -0.950  -0.106  0.00  0.00    +0.306 C 
ATOM     22  O   UNL     1      11.285   0.146  -0.106  0.00  0.00    -0.252 OA
ATOM     23  N   UNL     1      11.521  -2.062  -0.120  0.00  0.00    -0.302 N 
ATOM     24  C   UNL     1      12.982  -1.950  -0.133  0.00  0.00    +0.129 C 
ATOM     25  H   UNL     1       8.997  -1.928  -0.095  0.00  0.00    +0.159 HD
ATOM     26  H   UNL     1      11.102  -2.937  -0.120  0.00  0.00    +0.150 HD
ENDBRANCH  17  18
ENDBRANCH  16  17
ENDBRANCH   4  16
TORSDOF 4
