REMARK  Name = ZINC08743647
REMARK  6 active torsions:
REMARK  status: ('A' for Active; 'I' for Inactive)
REMARK    1  A    between atoms: C_4  and  C_7
REMARK    2  A    between atoms: C_7  and  N_8
REMARK    3  A    between atoms: C_9  and  C_11
REMARK    4  A    between atoms: N_22  and  N_25
REMARK    5  A    between atoms: C_23  and  N_24
REMARK    6  A    between atoms: C_26  and  C_27
REMARK                            x       y       z     vdW  Elec       q    Type
REMARK                         _______ _______ _______ _____ _____    ______ ____
ROOT
ATOM      1  C   UNL     1       1.555  -2.056  -0.023  0.00  0.00    +0.105 A 
ATOM      2  C   UNL     1       1.157  -0.638  -0.012  0.00  0.00    +0.124 A 
ATOM      3  C   UNL     1       2.413   0.118  -0.019  0.00  0.00    +0.183 A 
ATOM      4  N   UNL     1       2.376   1.433  -0.012  0.00  0.00    -0.224 NA
ATOM      5  C   UNL     1       1.197   2.067   0.002  0.00  0.00    +0.092 A 
ATOM      6  C   UNL     1       1.149   3.474   0.009  0.00  0.00    +0.030 A 
ATOM      7  C   UNL     1      -0.054   4.110   0.024  0.00  0.00    +0.002 A 
ATOM      8  C   UNL     1      -1.246   3.389   0.031  0.00  0.00    +0.002 A 
ATOM      9  C   UNL     1      -1.240   2.029   0.019  0.00  0.00    +0.030 A 
ATOM     10  C   UNL     1      -0.016   1.334   0.009  0.00  0.00    +0.090 A 
ATOM     11  N   UNL     1       0.002  -0.004   0.002  0.00  0.00    -0.241 NA
ATOM     12  N   UNL     1       3.440  -0.806  -0.034  0.00  0.00    -0.198 N 
ATOM     13  C   UNL     1       2.945  -2.076  -0.036  0.00  0.00    +0.134 A 
ENDROOT
BRANCH   1  15
ATOM     14  N   UNL     1       0.289  -3.720   1.146  0.00  0.00    -0.307 N 
ATOM     15  C   UNL     1       0.690  -3.180  -0.022  0.00  0.00    +0.250 C 
ATOM     16  O   UNL     1       0.309  -3.656  -1.076  0.00  0.00    -0.270 OA
ATOM     17  H   UNL     1       0.592  -3.341   1.986  0.00  0.00    +0.149 HD
BRANCH  14  18
ATOM     18  C   UNL     1      -0.605  -4.881   1.147  0.00  0.00    +0.139 C 
BRANCH  18  22
ATOM     19  C   UNL     1      -1.438  -6.032   5.176  0.00  0.00    +0.000 A 
ATOM     20  C   UNL     1      -2.252  -5.116   4.536  0.00  0.00    +0.000 A 
ATOM     21  C   UNL     1      -1.982  -4.743   3.233  0.00  0.00    +0.005 A 
ATOM     22  C   UNL     1      -0.899  -5.287   2.569  0.00  0.00    -0.030 A 
ATOM     23  C   UNL     1      -0.088  -6.208   3.206  0.00  0.00    +0.005 A 
ATOM     24  C   UNL     1      -0.355  -6.576   4.511  0.00  0.00    +0.000 A 
ENDBRANCH  18  22
ENDBRANCH  14  18
ENDBRANCH   1  15
BRANCH  13  25
ATOM     25  N   UNL     1       3.711  -3.214  -0.049  0.00  0.00    -0.342 N 
ATOM     26  H   UNL     1       3.285  -4.085  -0.049  0.00  0.00    +0.144 HD
ATOM     27  H   UNL     1       4.679  -3.148  -0.057  0.00  0.00    +0.144 HD
ENDBRANCH  13  25
BRANCH  12  28
ATOM     28  N   UNL     1       4.803  -0.482  -0.044  0.00  0.00    -0.171 NA
ATOM     29  C   UNL     1       5.424  -0.326  -1.173  0.00  0.00    +0.141 C 
BRANCH  29  30
ATOM     30  C   UNL     1       6.859   0.015  -1.184  0.00  0.00    -0.005 A 
ATOM     31  C   UNL     1       7.550   0.177   0.019  0.00  0.00    +0.012 A 
ATOM     32  C   UNL     1       8.893   0.491   0.002  0.00  0.00    +0.039 A 
ATOM     33  C   UNL     1       9.554   0.656  -1.206  0.00  0.00    +0.123 A 
ATOM     34  C   UNL     1       8.871   0.502  -2.402  0.00  0.00    +0.039 A 
ATOM     35  C   UNL     1       7.530   0.183  -2.398  0.00  0.00    +0.012 A 
ATOM     36  F   UNL     1      10.868   0.969  -1.216  0.00  0.00    -0.205 F 
ENDBRANCH  29  30
ENDBRANCH  12  28
TORSDOF 6
