REMARK  Name = ZINC22303885
REMARK  10 active torsions:
REMARK  status: ('A' for Active; 'I' for Inactive)
REMARK    1  A    between atoms: C_1  and  C_2
REMARK    2  A    between atoms: C_2  and  O_3
REMARK    3  A    between atoms: O_3  and  C_4
REMARK    4  A    between atoms: C_4  and  C_6
REMARK    5  A    between atoms: C_7  and  C_26
REMARK    6  A    between atoms: C_12  and  C_14
REMARK    7  A    between atoms: C_17  and  C_23
REMARK    8  A    between atoms: C_18  and  N_20
REMARK    9  A    between atoms: C_23  and  C_24
REMARK   10  A    between atoms: C_23  and  C_25
REMARK                            x       y       z     vdW  Elec       q    Type
REMARK                         _______ _______ _______ _____ _____    ______ ____
ROOT
ATOM      1  C   UNL     1      -0.992   1.601  -1.763  0.00  0.00    +0.078 C 
ATOM      2  C   UNL     1      -2.160   2.277  -1.837  0.00  0.00    +0.019 C 
ATOM      3  N   UNL     1      -2.761   2.771  -0.716  0.00  0.00    -0.300 N 
ATOM      4  C   UNL     1      -2.259   2.633   0.518  0.00  0.00    +0.135 C 
ATOM      5  S   UNL     1      -3.116   3.302   1.840  0.00  0.00    -0.019 S 
ATOM      6  N   UNL     1      -1.103   1.983   0.752  0.00  0.00    -0.315 N 
ATOM      7  C   UNL     1      -0.374   1.412  -0.393  0.00  0.00    +0.141 C 
ATOM      8  C   UNL     1      -2.810   2.488  -3.180  0.00  0.00    +0.061 C 
ATOM      9  H   UNL     1      -3.711   3.319  -0.797  0.00  0.00    +0.154 HD
ATOM     10  H   UNL     1      -0.700   1.875   1.770  0.00  0.00    +0.149 HD
ENDROOT
BRANCH   7  11
ATOM     11  C   UNL     1      -0.219  -0.068  -0.153  0.00  0.00    -0.020 A 
ATOM     12  C   UNL     1      -1.285  -0.805   0.328  0.00  0.00    +0.006 A 
ATOM     13  C   UNL     1      -1.145  -2.163   0.543  0.00  0.00    +0.006 A 
ATOM     14  C   UNL     1       0.064  -2.783   0.287  0.00  0.00    -0.015 A 
ATOM     15  C   UNL     1       1.131  -2.045  -0.190  0.00  0.00    +0.130 A 
ATOM     16  C   UNL     1       0.990  -0.687  -0.409  0.00  0.00    +0.038 A 
BRANCH  15  17
ATOM     17  N   UNL     1       2.426  -2.707  -0.464  0.00  0.00    +0.057 N 
ATOM     18  O   UNL     1       3.469  -2.160  -0.152  0.00  0.00    -0.126 OA
ATOM     19  O   UNL     1       2.449  -3.800  -1.002  0.00  0.00    -0.126 OA
ENDBRANCH  15  17
BRANCH  14  20
ATOM     20  C   UNL     1       0.219  -4.262   0.526  0.00  0.00    +0.015 C 
ATOM     21  C   UNL     1      -0.221  -4.597   1.953  0.00  0.00    +0.012 C 
ATOM     22  C   UNL     1      -0.650  -5.034  -0.469  0.00  0.00    +0.012 C 
ENDBRANCH  14  20
ENDBRANCH   7  11
BRANCH   1  23
ATOM     23  C   UNL     1      -0.368   1.089  -2.924  0.00  0.00    +0.339 C 
ATOM     24  O   UNL     1      -0.932   1.163  -4.000  0.00  0.00    -0.245 OA
BRANCH  23  25
ATOM     25  O   UNL     1       0.852   0.519  -2.839  0.00  0.00    -0.462 OA
BRANCH  25  27
ATOM     26  C   UNL     1       2.796  -0.583  -3.758  0.00  0.00    +0.048 C 
ATOM     27  C   UNL     1       1.422   0.023  -4.051  0.00  0.00    +0.229 C 
ENDBRANCH  25  27
ENDBRANCH  23  25
ENDBRANCH   1  23
TORSDOF 6
