REMARK  Name = ZINC00861528
REMARK  4 active torsions:
REMARK  status: ('A' for Active; 'I' for Inactive)
REMARK    1  A    between atoms: C_1  and  C_2
REMARK    2  A    between atoms: C_5  and  C_11
REMARK    3  A    between atoms: C_7  and  N_8
REMARK    4  A    between atoms: C_16  and  C_21
REMARK                            x       y       z     vdW  Elec       q    Type
REMARK                         _______ _______ _______ _____ _____    ______ ____
ROOT
ATOM      1  C   UNL     1       2.006   0.079  -1.702  0.00  0.00    +0.136 C 
ATOM      2  C   UNL     1       2.512   1.318  -2.404  0.00  0.00    +0.036 C 
ATOM      3  C   UNL     1       2.120   2.578  -2.159  0.00  0.00    +0.017 C 
ATOM      4  C   UNL     1       2.681   3.729  -2.980  0.00  0.00    +0.059 C 
ATOM      5  C   UNL     1       4.129   3.431  -3.369  0.00  0.00    +0.032 C 
ATOM      6  C   UNL     1       4.134   2.141  -4.197  0.00  0.00    +0.088 C 
ATOM      7  C   UNL     1       3.488   1.053  -3.394  0.00  0.00    +0.163 C 
ATOM      8  O   UNL     1       3.816  -0.099  -3.599  0.00  0.00    -0.292 OA
ATOM      9  N   UNL     1       1.218   2.948  -1.215  0.00  0.00    -0.316 N 
ATOM     10  C   UNL     1      -0.015   2.335  -1.015  0.00  0.00    +0.052 A 
ATOM     11  C   UNL     1      -1.212   3.006  -1.189  0.00  0.00    +0.025 A 
ATOM     12  C   UNL     1      -2.402   2.354  -0.912  0.00  0.00    +0.002 A 
ATOM     13  C   UNL     1      -2.392   1.046  -0.465  0.00  0.00    +0.002 A 
ATOM     14  C   UNL     1      -1.196   0.368  -0.307  0.00  0.00    +0.025 A 
ATOM     15  C   UNL     1      -0.003   1.012  -0.601  0.00  0.00    +0.049 A 
ATOM     16  N   UNL     1       1.218   0.347  -0.517  0.00  0.00    -0.331 N 
ATOM     17  H   UNL     1       1.449   3.693  -0.638  0.00  0.00    +0.152 HD
ATOM     18  H   UNL     1       1.546   0.059   0.349  0.00  0.00    +0.147 HD
ENDROOT
BRANCH   1  23
ATOM     19  C   UNL     1      -1.231  -2.940  -5.418  0.00  0.00    +0.046 C 
ATOM     20  C   UNL     1      -0.387  -2.152  -4.448  0.00  0.00    -0.020 A 
ATOM     21  C   UNL     1       0.776  -2.701  -3.940  0.00  0.00    +0.006 A 
ATOM     22  C   UNL     1       1.553  -1.977  -3.056  0.00  0.00    +0.006 A 
ATOM     23  C   UNL     1       1.161  -0.708  -2.671  0.00  0.00    -0.021 A 
ATOM     24  C   UNL     1      -0.001  -0.160  -3.179  0.00  0.00    +0.038 A 
ATOM     25  C   UNL     1      -0.775  -0.882  -4.067  0.00  0.00    +0.129 A 
BRANCH  25  26
ATOM     26  N   UNL     1      -2.020  -0.294  -4.612  0.00  0.00    +0.057 N 
ATOM     27  O   UNL     1      -2.332  -0.495  -5.772  0.00  0.00    -0.126 OA
ATOM     28  O   UNL     1      -2.733   0.390  -3.899  0.00  0.00    -0.126 OA
ENDBRANCH  25  26
ENDBRANCH   1  23
BRANCH   5  29
ATOM     29  C   UNL     1       4.681   4.568  -4.190  0.00  0.00    -0.043 A 
ATOM     30  C   UNL     1       4.085   4.906  -5.391  0.00  0.00    +0.005 A 
ATOM     31  C   UNL     1       4.588   5.952  -6.141  0.00  0.00    +0.020 A 
ATOM     32  C   UNL     1       5.694   6.654  -5.696  0.00  0.00    +0.041 A 
ATOM     33  C   UNL     1       6.293   6.311  -4.497  0.00  0.00    +0.020 A 
ATOM     34  C   UNL     1       5.786   5.269  -3.744  0.00  0.00    +0.005 A 
ATOM     35 CL   UNL     1       6.330   7.963  -6.642  0.00  0.00    -0.084 Cl
ENDBRANCH   5  29
TORSDOF 3
