REMARK  Name = ZINC00985861
REMARK  10 active torsions:
REMARK  status: ('A' for Active; 'I' for Inactive)
REMARK    1  A    between atoms: C_1  and  C_2
REMARK    2  A    between atoms: C_2  and  C_3
REMARK    3  A    between atoms: C_2  and  C_4
REMARK    4  A    between atoms: C_4  and  C_5
REMARK    5  A    between atoms: C_8  and  C_11
REMARK    6  A    between atoms: C_18  and  N_39
REMARK    7  A    between atoms: C_19  and  C_37
REMARK    8  A    between atoms: C_20  and  C_22
REMARK    9  A    between atoms: C_25  and  O_28
REMARK   10  A    between atoms: O_28  and  C_29
REMARK                            x       y       z     vdW  Elec       q    Type
REMARK                         _______ _______ _______ _____ _____    ______ ____
ROOT
ATOM      1  C   UNL     1      -1.273  -6.579  -0.605  0.00  0.00    +0.100 A 
ATOM      2  C   UNL     1      -0.586  -7.369   0.322  0.00  0.00    +0.054 A 
ATOM      3  C   UNL     1      -0.753  -8.677  -0.031  0.00  0.00    +0.223 A 
ATOM      4  N   UNL     1      -1.517  -8.707  -1.143  0.00  0.00    -0.246 N 
ATOM      5  H   UNL     1      -1.798  -9.504  -1.619  0.00  0.00    +0.192 HD
ATOM      6  N   UNL     1      -1.837  -7.385  -1.485  0.00  0.00    -0.171 NA
ATOM      7  O   UNL     1      -0.210  -9.700   0.674  0.00  0.00    -0.423 OA
ATOM      8  C   UNL     1       0.279  -9.424   1.900  0.00  0.00    +0.200 C 
ATOM      9  C   UNL     1       0.499  -8.171   2.357  0.00  0.00    +0.098 C 
ATOM     10  C   UNL     1       0.219  -6.946   1.524  0.00  0.00    +0.102 C 
ENDROOT
BRANCH   1  14
ATOM     11  C   UNL     1      -1.514  -2.333  -0.584  0.00  0.00    -0.047 A 
ATOM     12  C   UNL     1      -1.471  -3.015  -1.787  0.00  0.00    +0.004 A 
ATOM     13  C   UNL     1      -1.393  -4.393  -1.800  0.00  0.00    +0.010 A 
ATOM     14  C   UNL     1      -1.357  -5.097  -0.598  0.00  0.00    +0.003 A 
ATOM     15  C   UNL     1      -1.401  -4.406   0.611  0.00  0.00    +0.010 A 
ATOM     16  C   UNL     1      -1.474  -3.027   0.612  0.00  0.00    +0.004 A 
BRANCH  11  17
ATOM     17  C   UNL     1      -1.600  -0.829  -0.577  0.00  0.00    +0.038 C 
BRANCH  17  19
ATOM     18  C   UNL     1      -0.273   1.285  -0.694  0.00  0.00    +0.007 C 
ATOM     19  C   UNL     1      -0.188  -0.238  -0.576  0.00  0.00    -0.013 C 
ATOM     20  C   UNL     1       0.519  -0.610   0.729  0.00  0.00    +0.007 C 
ENDBRANCH  17  19
ENDBRANCH  11  17
ENDBRANCH   1  14
BRANCH  10  21
ATOM     21  C   UNL     1       1.518  -6.328   1.073  0.00  0.00    -0.034 A 
ATOM     22  C   UNL     1       2.407  -7.068   0.316  0.00  0.00    +0.008 A 
ATOM     23  C   UNL     1       3.599  -6.504  -0.098  0.00  0.00    +0.047 A 
ATOM     24  C   UNL     1       3.902  -5.194   0.247  0.00  0.00    +0.133 A 
ATOM     25  C   UNL     1       3.007  -4.455   1.006  0.00  0.00    +0.047 A 
ATOM     26  C   UNL     1       1.815  -5.022   1.414  0.00  0.00    +0.008 A 
BRANCH  24  27
ATOM     27  O   UNL     1       5.074  -4.638  -0.159  0.00  0.00    -0.411 OA
BRANCH  27  28
ATOM     28  C   UNL     1       5.222  -4.360  -1.468  0.00  0.00    +0.408 C 
ATOM     29  O   UNL     1       4.286  -4.506  -2.230  0.00  0.00    -0.226 OA
ATOM     30  N   UNL     1       6.407  -3.919  -1.934  0.00  0.00    -0.263 N 
ATOM     31  C   UNL     1       7.556  -3.740  -1.032  0.00  0.00    +0.139 C 
ATOM     32  C   UNL     1       8.766  -4.456  -1.642  0.00  0.00    +0.179 C 
ATOM     33  O   UNL     1       8.943  -4.016  -2.990  0.00  0.00    -0.377 OA
ATOM     34  C   UNL     1       7.849  -4.327  -3.856  0.00  0.00    +0.179 C 
ATOM     35  C   UNL     1       6.593  -3.609  -3.360  0.00  0.00    +0.139 C 
ENDBRANCH  27  28
ENDBRANCH  24  27
ENDBRANCH  10  21
BRANCH   8  36
ATOM     36  N   UNL     1       0.570 -10.476   2.732  0.00  0.00    -0.328 N 
ATOM     37  H   UNL     1       0.422 -11.387   2.433  0.00  0.00    +0.145 HD
ATOM     38  H   UNL     1       0.923 -10.309   3.620  0.00  0.00    +0.145 HD
ENDBRANCH   8  36
BRANCH   9  39
ATOM     39  C   UNL     1       1.018  -8.001   3.681  0.00  0.00    +0.101 C 
ATOM     40  N   UNL     1       1.429  -7.866   4.731  0.00  0.00    -0.191 NA
ENDBRANCH   9  39
TORSDOF 8
