REMARK  Name = ZINC04261976
REMARK  13 active torsions:
REMARK  status: ('A' for Active; 'I' for Inactive)
REMARK    1  A    between atoms: C_1  and  C_2
REMARK    2  A    between atoms: N_4  and  C_11
REMARK    3  A    between atoms: C_14  and  O_44
REMARK    4  A    between atoms: C_16  and  C_19
REMARK    5  A    between atoms: C_19  and  O_20
REMARK    6  A    between atoms: O_20  and  C_21
REMARK    7  A    between atoms: C_21  and  C_22
REMARK    8  A    between atoms: C_21  and  C_28
REMARK    9  A    between atoms: C_21  and  C_36
REMARK   10  A    between atoms: C_31  and  O_34
REMARK   11  A    between atoms: O_34  and  C_35
REMARK   12  A    between atoms: C_39  and  O_42
REMARK   13  A    between atoms: O_42  and  C_43
REMARK                            x       y       z     vdW  Elec       q    Type
REMARK                         _______ _______ _______ _____ _____    ______ ____
ROOT
ATOM      1  C   UNL     1      -1.133   2.137  -0.155  0.00  0.00    +0.144 C 
ENDROOT
BRANCH   1   2
ATOM      2  C   UNL     1       0.300   2.073  -0.618  0.00  0.00    -0.007 A 
ATOM      3  C   UNL     1       1.080   3.215  -0.614  0.00  0.00    +0.007 A 
ATOM      4  C   UNL     1       2.392   3.158  -1.045  0.00  0.00    +0.000 A 
ATOM      5  C   UNL     1       2.925   1.958  -1.479  0.00  0.00    +0.000 A 
ATOM      6  C   UNL     1       2.146   0.817  -1.482  0.00  0.00    +0.000 A 
ATOM      7  C   UNL     1       0.833   0.874  -1.052  0.00  0.00    +0.007 A 
ENDBRANCH   1   2
BRANCH   1   8
ATOM      8  C   UNL     1      -1.275   3.213   0.890  0.00  0.00    -0.007 A 
ATOM      9  C   UNL     1      -2.357   4.073   0.853  0.00  0.00    +0.011 A 
ATOM     10  C   UNL     1      -2.493   5.056   1.814  0.00  0.00    +0.046 A 
ATOM     11  C   UNL     1      -1.536   5.189   2.809  0.00  0.00    +0.120 A 
ATOM     12  C   UNL     1      -0.448   4.329   2.841  0.00  0.00    +0.046 A 
ATOM     13  C   UNL     1      -0.320   3.343   1.882  0.00  0.00    +0.011 A 
BRANCH  11  14
ATOM     14  O   UNL     1      -1.664   6.160   3.752  0.00  0.00    -0.495 OA
ATOM     15  C   UNL     1      -2.810   7.009   3.657  0.00  0.00    +0.277 C 
ENDBRANCH  11  14
ENDBRANCH   1   8
BRANCH   1  16
ATOM     16  C   UNL     1      -2.025   2.454  -1.327  0.00  0.00    -0.007 A 
ATOM     17  C   UNL     1      -1.763   3.559  -2.115  0.00  0.00    +0.011 A 
ATOM     18  C   UNL     1      -2.577   3.849  -3.194  0.00  0.00    +0.046 A 
ATOM     19  C   UNL     1      -3.665   3.037  -3.478  0.00  0.00    +0.120 A 
ATOM     20  C   UNL     1      -3.929   1.931  -2.682  0.00  0.00    +0.046 A 
ATOM     21  C   UNL     1      -3.109   1.643  -1.609  0.00  0.00    +0.011 A 
BRANCH  19  22
ATOM     22  O   UNL     1      -4.470   3.323  -4.534  0.00  0.00    -0.495 OA
ATOM     23  C   UNL     1      -4.138   4.476  -5.310  0.00  0.00    +0.277 C 
ENDBRANCH  19  22
ENDBRANCH   1  16
BRANCH   1  24
ATOM     24  O   UNL     1      -1.509   0.877   0.404  0.00  0.00    -0.357 OA
BRANCH  24  25
ATOM     25  C   UNL     1      -0.726   0.484   1.532  0.00  0.00    +0.196 C 
BRANCH  25  29
ATOM     26  C   UNL     1      -0.637  -3.171   1.620  0.00  0.00    +0.226 C 
ATOM     27  C   UNL     1      -0.355  -2.904   3.112  0.00  0.00    +0.088 C 
ATOM     28  C   UNL     1      -0.335  -1.358   3.225  0.00  0.00    +0.150 C 
ATOM     29  C   UNL     1      -1.119  -0.931   1.958  0.00  0.00    +0.175 C 
ATOM     30  O   UNL     1      -0.710  -1.894   0.964  0.00  0.00    -0.348 OA
BRANCH  26  34
ATOM     31  C   UNL     1       0.917  -7.355  -0.474  0.00  0.00    +0.051 C 
ATOM     32  C   UNL     1       1.184  -5.964   0.042  0.00  0.00    +0.030 A 
ATOM     33  C   UNL     1       0.186  -5.229   0.577  0.00  0.00    +0.101 A 
ATOM     34  N   UNL     1       0.446  -3.969   1.040  0.00  0.00    -0.274 N 
ATOM     35  C   UNL     1       1.686  -3.453   0.964  0.00  0.00    +0.331 A 
ATOM     36  O   UNL     1       1.894  -2.329   1.378  0.00  0.00    -0.246 OA
ATOM     37  N   UNL     1       2.701  -4.165   0.440  0.00  0.00    -0.275 N 
ATOM     38  H   UNL     1       3.711  -3.732   0.393  0.00  0.00    +0.173 HD
ATOM     39  C   UNL     1       2.486  -5.411  -0.028  0.00  0.00    +0.257 A 
ATOM     40  O   UNL     1       3.402  -6.055  -0.506  0.00  0.00    -0.267 OA
ENDBRANCH  26  34
BRANCH  28  41
ATOM     41  O   UNL     1      -1.003  -0.922   4.410  0.00  0.00    -0.389 OA
ATOM     42  H   UNL     1      -1.075   0.152   4.637  0.00  0.00    +0.210 HD
ENDBRANCH  28  41
ENDBRANCH  25  29
ENDBRANCH  24  25
ENDBRANCH   1  24
TORSDOF 10
