REMARK  Name = ZINC59830264
REMARK  7 active torsions:
REMARK  status: ('A' for Active; 'I' for Inactive)
REMARK    1  A    between atoms: C_1  and  C_2
REMARK    2  A    between atoms: C_2  and  C_19
REMARK    3  A    between atoms: N_3  and  N_4
REMARK    4  A    between atoms: C_7  and  S_10
REMARK    5  A    between atoms: S_10  and  C_11
REMARK    6  A    between atoms: C_11  and  C_12
REMARK    7  A    between atoms: C_24  and  O_25
REMARK                            x       y       z     vdW  Elec       q    Type
REMARK                         _______ _______ _______ _____ _____    ______ ____
ROOT
ATOM      1  N   UNL     1       0.024   0.035   2.340  0.00  0.00    -0.205 N 
ATOM      2  C   UNL     1       0.044  -0.663   3.533  0.00  0.00    +0.232 A 
ATOM      3  N   UNL     1       0.069  -1.973   3.664  0.00  0.00    -0.186 NA
ATOM      4  C   UNL     1       0.085  -2.295   4.962  0.00  0.00    +0.210 A 
ATOM      5  N   UNL     1       0.070  -1.194   5.675  0.00  0.00    -0.144 NA
ATOM      6  N   UNL     1       0.049  -0.121   4.770  0.00  0.00    -0.245 N 
ATOM      7  H   UNL     1       0.011   1.005   2.345  0.00  0.00    +0.177 HD
ATOM      8  H   UNL     1       0.038   0.824   4.990  0.00  0.00    +0.192 HD
ENDROOT
BRANCH   1  11
ATOM      9  C   UNL     1      -0.018   1.503   0.010  0.00  0.00    +0.068 C 
ATOM     10  C   UNL     1       0.002  -0.004   0.002  0.00  0.00    +0.067 C 
ATOM     11  N   UNL     1       0.022  -0.659   1.123  0.00  0.00    -0.184 NA
BRANCH  10  12
ATOM     12  C   UNL     1      -0.000  -0.734  -1.278  0.00  0.00    +0.039 A 
ATOM     13  C   UNL     1      -0.015  -0.033  -2.486  0.00  0.00    +0.013 A 
ATOM     14  C   UNL     1      -0.017  -0.722  -3.681  0.00  0.00    +0.001 A 
ATOM     15  C   UNL     1      -0.005  -2.107  -3.688  0.00  0.00    +0.004 A 
ATOM     16  C   UNL     1       0.010  -2.812  -2.499  0.00  0.00    +0.046 A 
ATOM     17  C   UNL     1       0.019  -2.135  -1.291  0.00  0.00    +0.126 A 
BRANCH  17  18
ATOM     18  O   UNL     1       0.040  -2.827  -0.122  0.00  0.00    -0.506 OA
ATOM     19  H   UNL     1      -0.837  -3.040   0.225  0.00  0.00    +0.292 HD
ENDBRANCH  17  18
ENDBRANCH  10  12
ENDBRANCH   1  11
BRANCH   4  20
ATOM     20  S   UNL     1       0.119  -3.934   5.609  0.00  0.00    -0.080 S 
BRANCH  20  21
ATOM     21  C   UNL     1       0.128  -3.695   7.407  0.00  0.00    +0.112 C 
BRANCH  21  22
ATOM     22  C   UNL     1       0.158  -5.037   8.092  0.00  0.00    -0.036 A 
ATOM     23  C   UNL     1      -1.026  -5.677   8.410  0.00  0.00    +0.004 A 
ATOM     24  C   UNL     1      -0.999  -6.908   9.038  0.00  0.00    +0.001 A 
ATOM     25  C   UNL     1       0.211  -7.500   9.349  0.00  0.00    +0.015 A 
ATOM     26  C   UNL     1       1.395  -6.860   9.031  0.00  0.00    +0.018 A 
ATOM     27  C   UNL     1       1.368  -5.630   8.397  0.00  0.00    +0.019 A 
ATOM     28 BR   UNL     1       3.050  -7.669   9.456  0.00  0.00    -0.050 Br
ENDBRANCH  21  22
ENDBRANCH  20  21
ENDBRANCH   4  20
TORSDOF 6
