REMARK  Name = ZINC36647987
REMARK  11 active torsions:
REMARK  status: ('A' for Active; 'I' for Inactive)
REMARK    1  A    between atoms: C_1  and  C_2
REMARK    2  A    between atoms: C_5  and  C_35
REMARK    3  A    between atoms: N_11  and  C_12
REMARK    4  A    between atoms: C_12  and  C_13
REMARK    5  A    between atoms: C_13  and  C_14
REMARK    6  A    between atoms: C_14  and  N_15
REMARK    7  A    between atoms: N_15  and  C_16
REMARK    8  A    between atoms: N_15  and  C_17
REMARK    9  A    between atoms: C_18  and  C_20
REMARK   10  A    between atoms: N_25  and  S_27
REMARK   11  A    between atoms: S_27  and  C_30
REMARK                            x       y       z     vdW  Elec       q    Type
REMARK                         _______ _______ _______ _____ _____    ______ ____
ROOT
ATOM      1  C   UNL     1       1.092   2.495   0.724  0.00  0.00    +0.046 C 
ATOM      2  C   UNL     1       0.865   1.039   0.408  0.00  0.00    -0.024 A 
ATOM      3  C   UNL     1       1.028   0.590  -0.877  0.00  0.00    +0.006 A 
ATOM      4  C   UNL     1       0.829  -0.741  -1.210  0.00  0.00    +0.005 A 
ATOM      5  C   UNL     1       0.459  -1.639  -0.225  0.00  0.00    -0.035 A 
ATOM      6  C   UNL     1       0.293  -1.198   1.064  0.00  0.00    +0.044 A 
ATOM      7  C   UNL     1       0.493   0.149   1.442  0.00  0.00    +0.083 A 
ATOM      8  N   UNL     1       0.297   0.425   2.749  0.00  0.00    -0.224 NA
ATOM      9  C   UNL     1      -0.051  -0.493   3.620  0.00  0.00    +0.168 A 
ATOM     10  S   UNL     1      -0.159  -1.960   2.604  0.00  0.00    -0.052 S 
ATOM     11  N   UNL     1      -0.284  -0.358   4.979  0.00  0.00    -0.250 N 
ATOM     12  C   UNL     1      -0.158   0.847   5.568  0.00  0.00    +0.226 C 
ATOM     13  O   UNL     1       0.108   1.824   4.900  0.00  0.00    -0.275 OA
ATOM     14  C   UNL     1       0.237  -3.090  -0.565  0.00  0.00    +0.045 C 
ENDROOT
BRANCH  12  15
ATOM     15  C   UNL     1      -0.348   0.982   7.057  0.00  0.00    +0.091 C 
ATOM     16  C   UNL     1       0.867   0.398   7.782  0.00  0.00    +0.015 C 
ATOM     17  C   UNL     1       0.660   0.505   9.295  0.00  0.00    +0.018 C 
ATOM     18  C   UNL     1       0.527   1.980   9.685  0.00  0.00    +0.109 C 
ATOM     19  N   UNL     1      -0.546   2.586   8.885  0.00  0.00    -0.175 NA
ATOM     20  C   UNL     1      -0.493   2.463   7.422  0.00  0.00    +0.122 C 
BRANCH  19  21
ATOM     21  S   UNL     1      -1.793   3.393   9.618  0.00  0.00    +0.067 S 
ATOM     22  O   UNL     1      -2.887   3.359   8.713  0.00  0.00    -0.152 OA
ATOM     23  O   UNL     1      -1.883   2.884  10.942  0.00  0.00    -0.152 OA
BRANCH  21  24
ATOM     24  C   UNL     1      -1.309   5.081   9.761  0.00  0.00    +0.143 A 
ATOM     25  C   UNL     1      -1.504   6.101   8.889  0.00  0.00    +0.036 A 
ATOM     26  C   UNL     1      -1.033   7.359   9.214  0.00  0.00    +0.010 A 
ATOM     27  C   UNL     1      -0.389   7.536  10.394  0.00  0.00    +0.047 A 
ATOM     28  S   UNL     1      -0.442   5.894  11.093  0.00  0.00    -0.077 S 
ENDBRANCH  21  24
ENDBRANCH  19  21
ENDBRANCH  12  15
BRANCH  11  29
ATOM     29  C   UNL     1      -0.667  -1.526   5.776  0.00  0.00    +0.114 C 
BRANCH  29  30
ATOM     30  C   UNL     1       0.549  -2.436   5.966  0.00  0.00    +0.001 C 
BRANCH  30  31
ATOM     31  C   UNL     1       0.189  -3.575   6.921  0.00  0.00    -0.078 C 
BRANCH  31  32
ATOM     32  N   UNL     1       1.357  -4.448   7.103  0.00  0.00    +0.376 N 
ATOM     33  C   UNL     1       2.427  -3.700   7.776  0.00  0.00    -0.097 C 
ATOM     34  C   UNL     1       0.979  -5.607   7.923  0.00  0.00    -0.097 C 
ATOM     35  H   UNL     1       1.683  -4.766   6.203  0.00  0.00    -0.083 HD
ENDBRANCH  31  32
ENDBRANCH  30  31
ENDBRANCH  29  30
ENDBRANCH  11  29
TORSDOF 7
