REMARK  Name = ZINC33432135
REMARK  10 active torsions:
REMARK  status: ('A' for Active; 'I' for Inactive)
REMARK    1  A    between atoms: C_4  and  N_7
REMARK    2  A    between atoms: N_7  and  C_8
REMARK    3  A    between atoms: C_8  and  N_10
REMARK    4  A    between atoms: N_10  and  C_11
REMARK    5  A    between atoms: N_10  and  C_23
REMARK    6  A    between atoms: C_11  and  C_12
REMARK    7  A    between atoms: C_12  and  C_13
REMARK    8  A    between atoms: C_16  and  S_19
REMARK    9  A    between atoms: S_19  and  N_22
REMARK   10  A    between atoms: N_28  and  C_31
REMARK                            x       y       z     vdW  Elec       q    Type
REMARK                         _______ _______ _______ _____ _____    ______ ____
ROOT
ATOM      1  N   UNL     1       4.862  -2.669   0.123  0.00  0.00    -0.300 N 
ENDROOT
BRANCH   1   2
ATOM      2  C   UNL     1       6.094  -1.886   0.249  0.00  0.00    +0.171 C 
ATOM      3  C   UNL     1       5.973  -0.865   1.399  0.00  0.00    +0.128 C 
ATOM      4  C   UNL     1       6.125   0.470   0.704  0.00  0.00    +0.228 C 
ATOM      5  O   UNL     1       6.092   1.553   1.249  0.00  0.00    -0.275 OA
ATOM      6  N   UNL     1       6.302   0.268  -0.607  0.00  0.00    -0.209 N 
ATOM      7  C   UNL     1       6.304  -1.023  -0.976  0.00  0.00    +0.247 C 
ATOM      8  O   UNL     1       6.449  -1.433  -2.107  0.00  0.00    -0.273 OA
BRANCH   6   9
ATOM      9  C   UNL     1       6.474   1.317  -1.521  0.00  0.00    +0.044 A 
ATOM     10  C   UNL     1       7.616   2.104  -1.469  0.00  0.00    +0.024 A 
ATOM     11  C   UNL     1       7.783   3.137  -2.370  0.00  0.00    +0.002 A 
ATOM     12  C   UNL     1       6.813   3.388  -3.324  0.00  0.00    +0.000 A 
ATOM     13  C   UNL     1       5.675   2.605  -3.378  0.00  0.00    +0.002 A 
ATOM     14  C   UNL     1       5.505   1.567  -2.483  0.00  0.00    +0.024 A 
ENDBRANCH   6   9
ENDBRANCH   1   2
BRANCH   1  15
ATOM     15  C   UNL     1       3.684  -2.045  -0.077  0.00  0.00    +0.138 C 
ATOM     16  S   UNL     1       2.226  -2.942  -0.060  0.00  0.00    -0.018 S 
BRANCH  15  17
ATOM     17  N   UNL     1       3.654  -0.714  -0.291  0.00  0.00    -0.297 N 
ATOM     18  H   UNL     1       4.484  -0.219  -0.380  0.00  0.00    +0.154 HD
BRANCH  17  22
ATOM     19  C   UNL     1       0.002   1.270  -0.570  0.00  0.00    +0.000 A 
ATOM     20  C   UNL     1       1.015   1.795   0.212  0.00  0.00    +0.002 A 
ATOM     21  C   UNL     1       2.227   1.140   0.306  0.00  0.00    +0.023 A 
ATOM     22  C   UNL     1       2.428  -0.048  -0.384  0.00  0.00    +0.033 A 
ATOM     23  C   UNL     1       1.409  -0.573  -1.168  0.00  0.00    +0.023 A 
ATOM     24  C   UNL     1       0.199   0.087  -1.258  0.00  0.00    +0.002 A 
ENDBRANCH  17  22
ENDBRANCH  15  17
ENDBRANCH   1  15
BRANCH   1  25
ATOM     25  C   UNL     1       4.910  -4.130   0.214  0.00  0.00    +0.112 C 
BRANCH  25  26
ATOM     26  C   UNL     1       5.125  -4.722  -1.180  0.00  0.00    +0.054 C 
BRANCH  26  27
ATOM     27  C   UNL     1       5.175  -6.225  -1.086  0.00  0.00    -0.046 A 
ATOM     28  C   UNL     1       6.382  -6.865  -0.875  0.00  0.00    +0.005 A 
ATOM     29  C   UNL     1       6.427  -8.244  -0.789  0.00  0.00    +0.029 A 
ATOM     30  C   UNL     1       5.266  -8.983  -0.913  0.00  0.00    +0.105 A 
ATOM     31  C   UNL     1       4.059  -8.343  -1.123  0.00  0.00    +0.029 A 
ATOM     32  C   UNL     1       4.013  -6.964  -1.205  0.00  0.00    +0.005 A 
BRANCH  30  33
ATOM     33  S   UNL     1       5.324 -10.741  -0.804  0.00  0.00    +0.056 S 
ATOM     34  O   UNL     1       4.183 -11.228  -1.497  0.00  0.00    -0.153 OA
ATOM     35  O   UNL     1       6.647 -11.125  -1.150  0.00  0.00    -0.153 OA
BRANCH  33  36
ATOM     36  N   UNL     1       5.116 -11.140   0.789  0.00  0.00    -0.204 NA
ATOM     37  H   UNL     1       4.693 -11.979   1.028  0.00  0.00    +0.144 HD
ATOM     38  H   UNL     1       5.417 -10.534   1.484  0.00  0.00    +0.144 HD
ENDBRANCH  33  36
ENDBRANCH  30  33
ENDBRANCH  26  27
ENDBRANCH  25  26
ENDBRANCH   1  25
TORSDOF 10
