REMARK  Name = ZINC15358497
REMARK  10 active torsions:
REMARK  status: ('A' for Active; 'I' for Inactive)
REMARK    1  A    between atoms: C_1  and  C_2
REMARK    2  A    between atoms: C_2  and  C_3
REMARK    3  A    between atoms: C_2  and  C_4
REMARK    4  A    between atoms: C_7  and  C_10
REMARK    5  A    between atoms: C_10  and  C_12
REMARK    6  A    between atoms: C_10  and  N_17
REMARK    7  A    between atoms: N_17  and  S_18
REMARK    8  A    between atoms: S_18  and  C_21
REMARK    9  A    between atoms: C_24  and  S_27
REMARK   10  A    between atoms: S_27  and  N_30
REMARK                            x       y       z     vdW  Elec       q    Type
REMARK                         _______ _______ _______ _____ _____    ______ ____
ROOT
ATOM      1  N   UNL     1      -5.972  -1.947  -1.312  0.00  0.00    -0.178 NA
ATOM      2  H   UNL     1      -5.398  -2.110  -2.077  0.00  0.00    +0.149 HD
ENDROOT
BRANCH   1   3
ATOM      3  S   UNL     1      -7.576  -1.603  -1.538  0.00  0.00    +0.059 S 
ATOM      4  O   UNL     1      -7.795  -1.594  -2.942  0.00  0.00    -0.153 OA
ATOM      5  O   UNL     1      -8.301  -2.452  -0.660  0.00  0.00    -0.153 OA
BRANCH   3   6
ATOM      6  C   UNL     1      -7.839   0.046  -0.976  0.00  0.00    +0.105 A 
ATOM      7  C   UNL     1      -8.180   0.281   0.343  0.00  0.00    +0.030 A 
ATOM      8  C   UNL     1      -8.387   1.574   0.783  0.00  0.00    +0.030 A 
ATOM      9  C   UNL     1      -8.252   2.634  -0.095  0.00  0.00    +0.105 A 
ATOM     10  C   UNL     1      -7.910   2.399  -1.413  0.00  0.00    +0.030 A 
ATOM     11  C   UNL     1      -7.699   1.106  -1.853  0.00  0.00    +0.030 A 
BRANCH   9  12
ATOM     12  S   UNL     1      -8.517   4.282   0.467  0.00  0.00    +0.056 S 
ATOM     13  O   UNL     1      -8.863   5.051  -0.677  0.00  0.00    -0.153 OA
ATOM     14  O   UNL     1      -9.360   4.193   1.608  0.00  0.00    -0.153 OA
BRANCH  12  15
ATOM     15  N   UNL     1      -7.059   4.858   1.000  0.00  0.00    -0.204 NA
ATOM     16  H   UNL     1      -6.270   4.294   0.960  0.00  0.00    +0.144 HD
ATOM     17  H   UNL     1      -6.992   5.759   1.353  0.00  0.00    +0.144 HD
ENDBRANCH  12  15
ENDBRANCH   9  12
ENDBRANCH   3   6
ENDBRANCH   1   3
BRANCH   1  18
ATOM     18  C   UNL     1      -5.419  -2.005   0.043  0.00  0.00    +0.143 C 
BRANCH  18  22
ATOM     19  C   UNL     1      -1.412  -0.526   0.013  0.00  0.00    -0.045 A 
ATOM     20  C   UNL     1      -2.259  -0.204   1.056  0.00  0.00    +0.004 A 
ATOM     21  C   UNL     1      -3.556  -0.683   1.066  0.00  0.00    +0.006 A 
ATOM     22  C   UNL     1      -4.006  -1.482   0.032  0.00  0.00    -0.024 A 
ATOM     23  C   UNL     1      -3.159  -1.803  -1.012  0.00  0.00    +0.006 A 
ATOM     24  C   UNL     1      -1.863  -1.321  -1.024  0.00  0.00    +0.004 A 
BRANCH  19  26
ATOM     25  C   UNL     1      -0.019   1.526   0.010  0.00  0.00    +0.012 C 
ATOM     26  C   UNL     1       0.002  -0.004   0.002  0.00  0.00    +0.013 C 
ATOM     27  C   UNL     1       0.742  -0.511   1.242  0.00  0.00    +0.012 C 
ENDBRANCH  19  26
ENDBRANCH  18  22
BRANCH  18  28
ATOM     28  C   UNL     1      -5.423  -3.432   0.527  0.00  0.00    +0.013 A 
ATOM     29  C   UNL     1      -5.728  -3.916   1.756  0.00  0.00    +0.013 A 
ATOM     30  C   UNL     1      -5.663  -5.279   1.975  0.00  0.00    +0.008 A 
ATOM     31  C   UNL     1      -5.298  -6.092   0.954  0.00  0.00    +0.045 A 
ATOM     32  S   UNL     1      -5.037  -4.925  -0.372  0.00  0.00    -0.100 S 
ENDBRANCH  18  28
ENDBRANCH   1  18
TORSDOF 8
