REMARK  Name = ZINC14248972
REMARK  4 active torsions:
REMARK  status: ('A' for Active; 'I' for Inactive)
REMARK    1  A    between atoms: C_4  and  C_7
REMARK    2  A    between atoms: C_8  and  C_9
REMARK    3  A    between atoms: N_25  and  S_28
REMARK    4  A    between atoms: S_28  and  N_31
REMARK                            x       y       z     vdW  Elec       q    Type
REMARK                         _______ _______ _______ _____ _____    ______ ____
ROOT
ATOM      1  C   UNL     1      -2.147   3.256  -4.492  0.00  0.00    +0.156 A 
ATOM      2  N   UNL     1      -1.642   2.793  -3.349  0.00  0.00    -0.213 NA
ATOM      3  C   UNL     1      -1.439   3.574  -2.305  0.00  0.00    +0.134 A 
ATOM      4  C   UNL     1      -1.774   4.956  -2.393  0.00  0.00    +0.051 A 
ATOM      5  C   UNL     1      -1.629   5.997  -1.375  0.00  0.00    -0.025 A 
ATOM      6  C   UNL     1      -2.018   7.244  -1.715  0.00  0.00    -0.004 A 
ATOM      7  S   UNL     1      -2.585   7.112  -3.389  0.00  0.00    -0.073 S 
ATOM      8  C   UNL     1      -2.299   5.379  -3.633  0.00  0.00    +0.114 A 
ATOM      9  N   UNL     1      -2.473   4.538  -4.631  0.00  0.00    -0.221 NA
ATOM     10  C   UNL     1      -1.976   8.472  -0.857  0.00  0.00    +0.043 C 
ATOM     11  C   UNL     1      -1.770   8.039   0.601  0.00  0.00    +0.005 C 
ATOM     12  C   UNL     1      -0.626   7.021   0.653  0.00  0.00    +0.005 C 
ATOM     13  C   UNL     1      -1.071   5.706   0.015  0.00  0.00    +0.037 C 
ATOM     14  N   UNL     1      -0.913   3.056  -1.135  0.00  0.00    -0.312 N 
ATOM     15  C   UNL     1       0.102   2.034  -1.423  0.00  0.00    +0.123 C 
ATOM     16  C   UNL     1       0.787   1.616  -0.117  0.00  0.00    +0.129 C 
ATOM     17  N   UNL     1      -0.247   1.212   0.848  0.00  0.00    -0.164 NA
ATOM     18  C   UNL     1      -1.375   2.127   1.083  0.00  0.00    +0.129 C 
ATOM     19  C   UNL     1      -1.975   2.524  -0.271  0.00  0.00    +0.123 C 
ENDROOT
BRANCH  17  20
ATOM     20  S   UNL     1      -0.146  -0.237   1.645  0.00  0.00    +0.095 S 
ATOM     21  O   UNL     1      -1.470  -0.582   2.028  0.00  0.00    -0.141 OA
ATOM     22  O   UNL     1       0.660  -1.087   0.841  0.00  0.00    -0.141 OA
BRANCH  20  23
ATOM     23  N   UNL     1       0.698   0.031   3.044  0.00  0.00    -0.193 NA
ATOM     24  H   UNL     1       1.024   0.921   3.251  0.00  0.00    +0.145 HD
ATOM     25  H   UNL     1       0.866  -0.701   3.657  0.00  0.00    +0.145 HD
ENDBRANCH  20  23
ENDBRANCH  17  20
BRANCH   1  27
ATOM     26  C   UNL     1      -2.858   2.788  -6.778  0.00  0.00    +0.011 C 
ATOM     27  C   UNL     1      -2.349   2.333  -5.620  0.00  0.00    +0.049 C 
BRANCH  26  31
ATOM     28  C   UNL     1      -3.439   0.126 -10.031  0.00  0.00    +0.000 A 
ATOM     29  C   UNL     1      -3.774   1.462 -10.166  0.00  0.00    +0.001 A 
ATOM     30  C   UNL     1      -3.588   2.333  -9.113  0.00  0.00    +0.008 A 
ATOM     31  C   UNL     1      -3.060   1.863  -7.908  0.00  0.00    -0.025 A 
ATOM     32  C   UNL     1      -2.718   0.514  -7.780  0.00  0.00    +0.008 A 
ATOM     33  C   UNL     1      -2.915  -0.346  -8.840  0.00  0.00    +0.001 A 
ENDBRANCH  26  31
ENDBRANCH   1  27
TORSDOF 4
