REMARK  Name = ZINC20207700
REMARK  9 active torsions:
REMARK  status: ('A' for Active; 'I' for Inactive)
REMARK    1  A    between atoms: C_1  and  C_2
REMARK    2  A    between atoms: C_6  and  C_36
REMARK    3  A    between atoms: C_7  and  O_8
REMARK    4  A    between atoms: O_8  and  C_9
REMARK    5  A    between atoms: C_9  and  C_10
REMARK    6  A    between atoms: C_10  and  N_11
REMARK    7  A    between atoms: C_13  and  C_20
REMARK    8  A    between atoms: C_30  and  S_32
REMARK    9  A    between atoms: S_32  and  C_35
REMARK                            x       y       z     vdW  Elec       q    Type
REMARK                         _______ _______ _______ _____ _____    ______ ____
ROOT
ATOM      1  N   UNL     1      -2.274   1.429   4.993  0.00  0.00    -0.343 N 
ATOM      2  C   UNL     1      -2.948   2.584   4.827  0.00  0.00    +0.095 A 
ATOM      3  C   UNL     1      -4.195   2.481   5.414  0.00  0.00    +0.001 A 
ATOM      4  C   UNL     1      -4.267   1.122   5.988  0.00  0.00    +0.007 A 
ATOM      5  C   UNL     1      -3.039   0.513   5.687  0.00  0.00    +0.050 A 
ATOM      6  C   UNL     1      -2.809  -0.795   6.101  0.00  0.00    +0.026 A 
ATOM      7  C   UNL     1      -3.784  -1.479   6.795  0.00  0.00    +0.002 A 
ATOM      8  C   UNL     1      -4.998  -0.876   7.087  0.00  0.00    +0.001 A 
ATOM      9  C   UNL     1      -5.241   0.422   6.693  0.00  0.00    +0.010 A 
ENDROOT
BRANCH   3  10
ATOM     10  C   UNL     1      -5.198   3.475   5.456  0.00  0.00    +0.026 C 
ATOM     11  C   UNL     1      -5.278   4.420   4.450  0.00  0.00    +0.081 C 
ATOM     12  C   UNL     1      -4.444   4.329   3.221  0.00  0.00    +0.153 C 
ATOM     13  N   UNL     1      -4.087   3.194   2.678  0.00  0.00    -0.283 NA
ATOM     14  N   UNL     1      -4.075   5.587   2.699  0.00  0.00    -0.150 N 
ATOM     15  C   UNL     1      -4.868   6.667   3.022  0.00  0.00    +0.182 C 
ATOM     16  N   UNL     1      -5.888   6.690   3.843  0.00  0.00    -0.152 NA
ATOM     17  C   UNL     1      -6.204   5.574   4.535  0.00  0.00    +0.273 C 
ATOM     18  O   UNL     1      -7.218   5.517   5.213  0.00  0.00    -0.268 OA
ATOM     19  S   UNL     1      -4.133   7.967   2.067  0.00  0.00    -0.015 S 
ATOM     20  C   UNL     1      -2.775   7.021   1.391  0.00  0.00    +0.235 C 
ATOM     21  N   UNL     1      -2.993   5.835   1.881  0.00  0.00    -0.145 NA
ATOM     22  H   UNL     1      -3.490   3.188   1.914  0.00  0.00    +0.188 HD
BRANCH  20  23
ATOM     23  S   UNL     1      -1.474   7.557   0.330  0.00  0.00    +0.019 S 
ATOM     24  O   UNL     1      -1.259   8.918   0.680  0.00  0.00    -0.168 OA
ATOM     25  O   UNL     1      -0.444   6.593   0.504  0.00  0.00    -0.168 OA
ATOM     26  C   UNL     1      -2.160   7.443  -1.345  0.00  0.00    +0.202 C 
ENDBRANCH  20  23
ENDBRANCH   3  10
BRANCH   1  27
ATOM     27  C   UNL     1      -0.918   1.178   4.500  0.00  0.00    +0.163 C 
BRANCH  27  28
ATOM     28  C   UNL     1      -0.991   0.487   3.136  0.00  0.00    +0.250 C 
BRANCH  28  29
ATOM     29  O   UNL     1       0.332   0.242   2.655  0.00  0.00    -0.490 OA
BRANCH  29  36
ATOM     30  C   UNL     1       0.442   1.893   0.365  0.00  0.00    +0.047 C 
ATOM     31  C   UNL     1       0.504   0.389   0.286  0.00  0.00    -0.009 A 
ATOM     32  C   UNL     1       0.625  -0.235  -0.940  0.00  0.00    +0.007 A 
ATOM     33  C   UNL     1       0.682  -1.615  -1.012  0.00  0.00    +0.001 A 
ATOM     34  C   UNL     1       0.618  -2.373   0.142  0.00  0.00    +0.007 A 
ATOM     35  C   UNL     1       0.497  -1.754   1.371  0.00  0.00    -0.009 A 
ATOM     36  C   UNL     1       0.445  -0.369   1.447  0.00  0.00    +0.126 A 
ATOM     37  C   UNL     1       0.426  -2.581   2.629  0.00  0.00    +0.047 C 
ENDBRANCH  29  36
ENDBRANCH  28  29
ENDBRANCH  27  28
ENDBRANCH   1  27
TORSDOF 6
