REMARK  Name = ZINC32072929
REMARK  3 active torsions:
REMARK  status: ('A' for Active; 'I' for Inactive)
REMARK    1  A    between atoms: C_9  and  O_26
REMARK    2  A    between atoms: N_15  and  C_16
REMARK    3  A    between atoms: C_19  and  C_22
REMARK                            x       y       z     vdW  Elec       q    Type
REMARK                         _______ _______ _______ _____ _____    ______ ____
ROOT
ATOM      1  C   UNL     1      -0.017   1.386   0.010  0.00  0.00    +0.000 A 
ATOM      2  C   UNL     1       1.151   2.121   0.003  0.00  0.00    +0.002 A 
ATOM      3  C   UNL     1       2.398   1.516  -0.013  0.00  0.00    +0.023 A 
ATOM      4  C   UNL     1       2.432   0.121  -0.021  0.00  0.00    +0.038 A 
ATOM      5  C   UNL     1       1.238  -0.613  -0.013  0.00  0.00    -0.006 A 
ATOM      6  C   UNL     1       0.002  -0.004   0.002  0.00  0.00    +0.007 A 
ATOM      7  C   UNL     1       1.636  -2.054  -0.026  0.00  0.00    +0.112 C 
ATOM      8  C   UNL     1       1.131  -2.781   1.219  0.00  0.00    +0.121 C 
ATOM      9  C   UNL     1      -0.302  -3.202   1.066  0.00  0.00    +0.191 C 
ATOM     10  N   UNL     1      -0.836  -3.535  -0.070  0.00  0.00    -0.197 NA
ATOM     11  C   UNL     1      -0.090  -3.461  -1.209  0.00  0.00    +0.164 A 
ATOM     12  C   UNL     1       1.110  -2.759  -1.244  0.00  0.00    +0.036 A 
ATOM     13  C   UNL     1       1.624  -2.863  -2.523  0.00  0.00    +0.142 A 
ATOM     14  N   UNL     1       0.794  -3.577  -3.249  0.00  0.00    -0.173 NA
ATOM     15  N   UNL     1      -0.296  -3.957  -2.450  0.00  0.00    -0.214 N 
ATOM     16  C   UNL     1       3.148  -2.029  -0.042  0.00  0.00    +0.233 C 
ATOM     17  O   UNL     1       3.885  -2.992  -0.056  0.00  0.00    -0.274 OA
ATOM     18  N   UNL     1       3.521  -0.732  -0.037  0.00  0.00    -0.284 N 
ATOM     19  H   UNL     1       4.444  -0.433  -0.043  0.00  0.00    +0.155 HD
ENDROOT
BRANCH  15  20
ATOM     20  C   UNL     1      -1.399  -4.715  -2.865  0.00  0.00    +0.068 A 
ATOM     21  C   UNL     1      -2.000  -5.607  -1.986  0.00  0.00    +0.028 A 
ATOM     22  C   UNL     1      -3.087  -6.353  -2.398  0.00  0.00    +0.014 A 
ATOM     23  C   UNL     1      -3.577  -6.212  -3.683  0.00  0.00    +0.055 A 
ATOM     24  C   UNL     1      -2.982  -5.324  -4.560  0.00  0.00    +0.014 A 
ATOM     25  C   UNL     1      -1.898  -4.571  -4.153  0.00  0.00    +0.028 A 
BRANCH  23  26
ATOM     26  C   UNL     1      -4.764  -7.027  -4.129  0.00  0.00    +0.417 C 
ATOM     27  F   UNL     1      -5.942  -6.326  -3.853  0.00  0.00    -0.166 F 
ATOM     28  F   UNL     1      -4.675  -7.266  -5.505  0.00  0.00    -0.166 F 
ATOM     29  F   UNL     1      -4.775  -8.247  -3.444  0.00  0.00    -0.166 F 
ENDBRANCH  23  26
ENDBRANCH  15  20
BRANCH   9  30
ATOM     30  O   UNL     1      -1.078  -3.237   2.169  0.00  0.00    -0.495 OA
ATOM     31  H   UNL     1      -1.989  -3.516   2.001  0.00  0.00    +0.293 HD
ENDBRANCH   9  30
TORSDOF 3
