REMARK  Name = ZINC35362169
REMARK  13 active torsions:
REMARK  status: ('A' for Active; 'I' for Inactive)
REMARK    1  A    between atoms: C_1  and  C_2
REMARK    2  A    between atoms: C_2  and  C_4
REMARK    3  A    between atoms: C_2  and  N_17
REMARK    4  A    between atoms: N_14  and  C_15
REMARK    5  A    between atoms: N_17  and  C_18
REMARK    6  A    between atoms: C_18  and  C_19
REMARK    7  A    between atoms: C_19  and  C_20
REMARK    8  A    between atoms: C_20  and  C_21
REMARK    9  A    between atoms: C_21  and  C_22
REMARK   10  A    between atoms: C_22  and  C_23
REMARK   11  A    between atoms: C_23  and  N_24
REMARK   12  A    between atoms: C_25  and  C_27
REMARK   13  A    between atoms: C_30  and  C_33
REMARK                            x       y       z     vdW  Elec       q    Type
REMARK                         _______ _______ _______ _____ _____    ______ ____
ROOT
ATOM      1  N   UNL     1       1.587  -0.607  -0.733  0.00  0.00    -0.288 N 
ATOM      2  C   UNL     1       2.610   0.271  -0.763  0.00  0.00    +0.247 C 
ATOM      3  O   UNL     1       3.075   0.626  -1.828  0.00  0.00    -0.270 OA
ENDROOT
BRANCH   2   4
ATOM      4  C   UNL     1       3.166   0.801   0.500  0.00  0.00    +0.037 A 
ATOM      5  C   UNL     1       2.365   0.879   1.641  0.00  0.00    +0.013 A 
ATOM      6  C   UNL     1       2.890   1.374   2.816  0.00  0.00    +0.013 A 
ATOM      7  C   UNL     1       4.208   1.793   2.866  0.00  0.00    +0.055 A 
ATOM      8  C   UNL     1       5.007   1.719   1.740  0.00  0.00    +0.013 A 
ATOM      9  C   UNL     1       4.496   1.220   0.559  0.00  0.00    +0.013 A 
BRANCH   7  10
ATOM     10  C   UNL     1       4.775   2.333   4.154  0.00  0.00    +0.417 C 
ATOM     11  F   UNL     1       5.324   1.284   4.898  0.00  0.00    -0.166 F 
ATOM     12  F   UNL     1       5.771   3.273   3.867  0.00  0.00    -0.166 F 
ATOM     13  F   UNL     1       3.756   2.945   4.892  0.00  0.00    -0.166 F 
ENDBRANCH   7  10
ENDBRANCH   2   4
BRANCH   1  15
ATOM     14  C   UNL     1       0.196   1.028   0.439  0.00  0.00    +0.036 C 
ATOM     15  C   UNL     1       0.522  -0.457   0.261  0.00  0.00    +0.139 C 
BRANCH  15  16
ATOM     16  C   UNL     1       0.978  -1.032   1.577  0.00  0.00    +0.133 A 
ATOM     17  N   UNL     1       2.237  -1.316   1.722  0.00  0.00    -0.232 NA
ATOM     18  C   UNL     1       2.720  -1.836   2.878  0.00  0.00    +0.080 A 
ATOM     19  C   UNL     1       4.073  -2.142   3.036  0.00  0.00    +0.048 A 
ATOM     20  C   UNL     1       4.515  -2.668   4.231  0.00  0.00    +0.043 A 
ATOM     21  C   UNL     1       3.630  -2.899   5.278  0.00  0.00    +0.021 A 
ATOM     22  C   UNL     1       2.301  -2.608   5.145  0.00  0.00    +0.017 A 
ATOM     23  C   UNL     1       1.828  -2.074   3.948  0.00  0.00    +0.065 A 
ATOM     24  C   UNL     1       0.410  -1.741   3.751  0.00  0.00    +0.262 A 
ATOM     25  O   UNL     1      -0.410  -1.921   4.632  0.00  0.00    -0.267 OA
ATOM     26  N   UNL     1       0.052  -1.223   2.553  0.00  0.00    -0.298 N 
ATOM     27  C   UNL     1      -1.347  -0.869   2.304  0.00  0.00    +0.154 C 
ATOM     28 CL   UNL     1       6.197  -3.049   4.430  0.00  0.00    -0.083 Cl
ENDBRANCH  15  16
ENDBRANCH   1  15
BRANCH   1  29
ATOM     29  C   UNL     1       1.541  -1.711  -1.695  0.00  0.00    +0.109 C 
BRANCH  29  30
ATOM     30  C   UNL     1       0.785  -1.264  -2.948  0.00  0.00    +0.019 C 
BRANCH  30  31
ATOM     31  C   UNL     1       0.737  -2.417  -3.953  0.00  0.00    +0.001 C 
BRANCH  31  32
ATOM     32  C   UNL     1      -0.019  -1.970  -5.206  0.00  0.00    -0.002 C 
BRANCH  32  33
ATOM     33  C   UNL     1      -0.067  -3.123  -6.211  0.00  0.00    -0.020 C 
BRANCH  33  34
ATOM     34  C   UNL     1      -0.823  -2.676  -7.464  0.00  0.00    -0.086 C 
BRANCH  34  35
ATOM     35  N   UNL     1      -0.869  -3.783  -8.429  0.00  0.00    +0.378 N 
ATOM     36  H   UNL     1      -1.343  -4.571  -8.014  0.00  0.00    -0.090 HD
ATOM     37  H   UNL     1      -1.368  -3.488  -9.255  0.00  0.00    -0.090 HD
ATOM     38  H   UNL     1       0.071  -4.049  -8.680  0.00  0.00    -0.090 HD
ENDBRANCH  34  35
ENDBRANCH  33  34
ENDBRANCH  32  33
ENDBRANCH  31  32
ENDBRANCH  30  31
ENDBRANCH  29  30
ENDBRANCH   1  29
TORSDOF 11
