REMARK  Name = ZINC15968162
REMARK  7 active torsions:
REMARK  status: ('A' for Active; 'I' for Inactive)
REMARK    1  A    between atoms: C_1  and  C_2
REMARK    2  A    between atoms: C_2  and  C_3
REMARK    3  A    between atoms: C_17  and  C_20
REMARK    4  A    between atoms: C_20  and  C_22
REMARK    5  A    between atoms: C_20  and  O_23
REMARK    6  A    between atoms: N_26  and  C_29
REMARK    7  A    between atoms: C_29  and  C_30
REMARK                            x       y       z     vdW  Elec       q    Type
REMARK                         _______ _______ _______ _____ _____    ______ ____
ROOT
ATOM      1  C   UNL     1       0.733  -1.035   1.412  0.00  0.00    -0.026 A 
ATOM      2  C   UNL     1       2.091  -1.259   1.324  0.00  0.00    +0.005 A 
ATOM      3  C   UNL     1       2.819  -1.589   2.452  0.00  0.00    +0.001 A 
ATOM      4  C   UNL     1       2.182  -1.696   3.676  0.00  0.00    +0.008 A 
ATOM      5  C   UNL     1       0.826  -1.474   3.769  0.00  0.00    +0.004 A 
ATOM      6  C   UNL     1       0.084  -1.135   2.641  0.00  0.00    +0.042 A 
ATOM      7  N   UNL     1      -1.258  -0.953   2.982  0.00  0.00    -0.283 N 
ATOM      8  C   UNL     1      -1.478  -1.147   4.297  0.00  0.00    +0.243 C 
ATOM      9  O   UNL     1      -2.541  -1.056   4.874  0.00  0.00    -0.273 OA
ATOM     10  C   UNL     1      -0.152  -1.508   4.908  0.00  0.00    +0.136 C 
ATOM     11  C   UNL     1       0.233  -0.517   6.013  0.00  0.00    +0.123 C 
ATOM     12  C   UNL     1       0.959  -1.383   7.081  0.00  0.00    +0.109 C 
ATOM     13  C   UNL     1       0.943  -2.815   6.506  0.00  0.00    +0.096 C 
ATOM     14  N   UNL     1      -0.187  -2.836   5.550  0.00  0.00    -0.293 NA
ATOM     15  C   UNL     1       2.370  -0.842   7.066  0.00  0.00    +0.228 C 
ATOM     16  O   UNL     1       3.280  -1.239   7.762  0.00  0.00    -0.275 OA
ATOM     17  N   UNL     1       2.460   0.144   6.166  0.00  0.00    -0.237 N 
ATOM     18  C   UNL     1       1.309   0.418   5.510  0.00  0.00    +0.229 C 
ATOM     19  O   UNL     1       1.157   1.267   4.659  0.00  0.00    -0.275 OA
ATOM     20  H   UNL     1      -1.950  -0.715   2.346  0.00  0.00    +0.155 HD
ATOM     21  H   UNL     1      -1.058  -2.979   6.038  0.00  0.00    +0.124 HD
ENDROOT
BRANCH   1  23
ATOM     22  C   UNL     1      -0.170   0.846   0.073  0.00  0.00    +0.009 C 
ATOM     23  C   UNL     1      -0.051  -0.676   0.176  0.00  0.00    +0.033 C 
ENDBRANCH   1  23
BRANCH  13  24
ATOM     24  C   UNL     1       0.736  -3.836   7.626  0.00  0.00    +0.129 C 
ATOM     25  C   UNL     1       0.724  -5.247   7.035  0.00  0.00    +0.039 C 
BRANCH  24  26
ATOM     26  O   UNL     1       1.800  -3.726   8.574  0.00  0.00    -0.390 OA
ATOM     27  H   UNL     1       1.733  -4.345   9.314  0.00  0.00    +0.210 HD
ENDBRANCH  24  26
ENDBRANCH  13  24
BRANCH  17  28
ATOM     28  C   UNL     1       3.704   0.874   5.912  0.00  0.00    +0.151 C 
BRANCH  28  29
ATOM     29  C   UNL     1       3.781   2.068   6.828  0.00  0.00    -0.026 A 
ATOM     30  C   UNL     1       3.248   3.280   6.429  0.00  0.00    +0.009 A 
ATOM     31  C   UNL     1       3.316   4.377   7.267  0.00  0.00    +0.050 A 
ATOM     32  C   UNL     1       3.920   4.266   8.508  0.00  0.00    +0.166 A 
ATOM     33  C   UNL     1       4.458   3.046   8.910  0.00  0.00    +0.167 A 
ATOM     34  C   UNL     1       4.381   1.948   8.068  0.00  0.00    +0.054 A 
ATOM     35  O   UNL     1       4.991   3.194  10.158  0.00  0.00    -0.453 OA
ATOM     36  C   UNL     1       5.138   4.613  10.348  0.00  0.00    +0.466 C 
ATOM     37  O   UNL     1       4.116   5.178   9.505  0.00  0.00    -0.453 OA
ENDBRANCH  28  29
ENDBRANCH  17  28
TORSDOF 5
