REMARK  Name = ZINC20559111
REMARK  9 active torsions:
REMARK  status: ('A' for Active; 'I' for Inactive)
REMARK    1  A    between atoms: C_1  and  C_2
REMARK    2  A    between atoms: C_2  and  O_3
REMARK    3  A    between atoms: O_3  and  C_4
REMARK    4  A    between atoms: C_4  and  C_6
REMARK    5  A    between atoms: C_7  and  C_19
REMARK    6  A    between atoms: C_12  and  C_14
REMARK    7  A    between atoms: C_19  and  N_20
REMARK    8  A    between atoms: C_22  and  C_29
REMARK    9  A    between atoms: C_25  and  C_28
REMARK                            x       y       z     vdW  Elec       q    Type
REMARK                         _______ _______ _______ _____ _____    ______ ____
ROOT
ATOM      1  C   UNL     1      -1.497   0.506   6.876  0.00  0.00    +0.077 C 
ATOM      2  C   UNL     1      -0.732   1.420   6.243  0.00  0.00    +0.008 C 
ATOM      3  N   UNL     1      -0.860   2.753   6.510  0.00  0.00    -0.274 N 
ATOM      4  C   UNL     1      -1.737   3.253   7.389  0.00  0.00    +0.304 C 
ATOM      5  O   UNL     1      -1.781   4.457   7.556  0.00  0.00    -0.252 OA
ATOM      6  N   UNL     1      -2.569   2.466   8.099  0.00  0.00    -0.288 N 
ATOM      7  C   UNL     1      -2.506   1.010   7.888  0.00  0.00    +0.150 C 
ATOM      8  H   UNL     1      -0.221   3.482   5.991  0.00  0.00    +0.156 HD
ATOM      9  H   UNL     1      -3.284   2.886   8.822  0.00  0.00    +0.151 HD
ENDROOT
BRANCH   7  10
ATOM     10  C   UNL     1      -2.199   0.362   9.213  0.00  0.00    +0.015 A 
ATOM     11  C   UNL     1      -2.796  -0.703   9.802  0.00  0.00    +0.013 A 
ATOM     12  C   UNL     1      -2.341  -1.129  11.036  0.00  0.00    +0.008 A 
ATOM     13  C   UNL     1      -1.311  -0.470  11.620  0.00  0.00    +0.045 A 
ATOM     14  S   UNL     1      -0.947   0.793  10.412  0.00  0.00    -0.099 S 
ENDBRANCH   7  10
BRANCH   1  15
ATOM     15  C   UNL     1      -1.362  -0.876   6.604  0.00  0.00    +0.339 C 
ATOM     16  O   UNL     1      -0.621  -1.251   5.715  0.00  0.00    -0.245 OA
BRANCH  15  17
ATOM     17  O   UNL     1      -2.054  -1.778   7.331  0.00  0.00    -0.462 OA
BRANCH  17  19
ATOM     18  C   UNL     1      -2.729  -4.021   7.926  0.00  0.00    +0.048 C 
ATOM     19  C   UNL     1      -1.869  -3.156   7.002  0.00  0.00    +0.229 C 
ENDBRANCH  17  19
ENDBRANCH  15  17
ENDBRANCH   1  15
BRANCH   2  20
ATOM     20  C   UNL     1       0.285   0.962   5.229  0.00  0.00    -0.026 C 
BRANCH  20  21
ATOM     21  N   UNL     1      -0.370   0.776   3.928  0.00  0.00    +0.384 N 
ATOM     22  C   UNL     1      -0.740   2.067   3.335  0.00  0.00    -0.075 C 
ATOM     23  C   UNL     1      -1.547   1.831   2.056  0.00  0.00    -0.031 C 
ATOM     24  C   UNL     1      -0.704   1.018   1.069  0.00  0.00    +0.003 C 
ATOM     25  C   UNL     1      -0.291  -0.301   1.729  0.00  0.00    -0.031 C 
ATOM     26  C   UNL     1       0.479  -0.003   3.017  0.00  0.00    -0.075 C 
ATOM     27  C   UNL     1       0.602  -1.093   0.772  0.00  0.00    +0.005 C 
ATOM     28  C   UNL     1      -1.914   3.177   1.428  0.00  0.00    +0.005 C 
ATOM     29  H   UNL     1      -1.296   0.205   4.093  0.00  0.00    -0.081 HD
ENDBRANCH  20  21
ENDBRANCH   2  20
TORSDOF 6
