REMARK  Name = ZINC36597624
REMARK  14 active torsions:
REMARK  status: ('A' for Active; 'I' for Inactive)
REMARK    1  A    between atoms: C_1  and  C_2
REMARK    2  A    between atoms: C_5  and  C_8
REMARK    3  A    between atoms: C_8  and  C_10
REMARK    4  A    between atoms: C_8  and  N_17
REMARK    5  A    between atoms: N_12  and  C_13
REMARK    6  A    between atoms: C_13  and  C_14
REMARK    7  A    between atoms: C_13  and  C_15
REMARK    8  A    between atoms: C_13  and  C_16
REMARK    9  A    between atoms: N_17  and  C_18
REMARK   10  A    between atoms: C_18  and  C_19
REMARK   11  A    between atoms: C_22  and  C_24
REMARK   12  A    between atoms: C_25  and  C_27
REMARK   13  A    between atoms: C_28  and  O_34
REMARK   14  A    between atoms: C_32  and  O_33
REMARK                            x       y       z     vdW  Elec       q    Type
REMARK                         _______ _______ _______ _____ _____    ______ ____
ROOT
ATOM      1  N   UNL     1      -0.779  -4.731   0.996  0.00  0.00    -0.274 N 
ATOM      2  C   UNL     1      -2.115  -4.724   0.819  0.00  0.00    +0.255 C 
ATOM      3  O   UNL     1      -2.600  -4.134  -0.128  0.00  0.00    -0.270 OA
ENDROOT
BRANCH   2   4
ATOM      4  C   UNL     1      -2.988  -5.431   1.770  0.00  0.00    +0.119 A 
ATOM      5  C   UNL     1      -3.496  -4.763   2.894  0.00  0.00    +0.133 A 
ATOM      6  C   UNL     1      -4.317  -5.438   3.783  0.00  0.00    +0.046 A 
ATOM      7  C   UNL     1      -4.636  -6.765   3.566  0.00  0.00    +0.007 A 
ATOM      8  C   UNL     1      -4.141  -7.434   2.462  0.00  0.00    +0.046 A 
ATOM      9  C   UNL     1      -3.323  -6.777   1.557  0.00  0.00    +0.133 A 
BRANCH   9  10
ATOM     10  O   UNL     1      -2.843  -7.433   0.471  0.00  0.00    -0.506 OA
ATOM     11  H   UNL     1      -1.995  -7.874   0.621  0.00  0.00    +0.292 HD
ENDBRANCH   9  10
BRANCH   5  12
ATOM     12  O   UNL     1      -3.184  -3.460   3.110  0.00  0.00    -0.506 OA
ATOM     13  H   UNL     1      -3.802  -2.836   2.705  0.00  0.00    +0.292 HD
ENDBRANCH   5  12
ENDBRANCH   2   4
BRANCH   1  14
ATOM     14  C   UNL     1       0.089  -4.027   0.049  0.00  0.00    +0.193 C 
BRANCH  14  19
ATOM     15  C   UNL     1      -1.098   1.627   0.184  0.00  0.00    +0.044 C 
ATOM     16  C   UNL     1      -0.788   0.152   0.149  0.00  0.00    -0.050 A 
ATOM     17  C   UNL     1      -0.428  -0.450  -1.042  0.00  0.00    +0.004 A 
ATOM     18  C   UNL     1      -0.144  -1.803  -1.074  0.00  0.00    +0.006 A 
ATOM     19  C   UNL     1      -0.220  -2.553   0.085  0.00  0.00    -0.018 A 
ATOM     20  C   UNL     1      -0.579  -1.950   1.276  0.00  0.00    +0.006 A 
ATOM     21  C   UNL     1      -0.859  -0.597   1.309  0.00  0.00    +0.004 A 
ENDBRANCH  14  19
BRANCH  14  22
ATOM     22  C   UNL     1       1.530  -4.248   0.430  0.00  0.00    +0.239 C 
ATOM     23  O   UNL     1       1.808  -4.980   1.356  0.00  0.00    -0.273 OA
ATOM     24  N   UNL     1       2.511  -3.632  -0.259  0.00  0.00    -0.309 N 
ATOM     25  H   UNL     1       2.290  -3.046  -0.999  0.00  0.00    +0.149 HD
BRANCH  24  26
ATOM     26  C   UNL     1       3.913  -3.846   0.111  0.00  0.00    +0.026 C 
ATOM     27  C   UNL     1       4.251  -5.333  -0.014  0.00  0.00    +0.031 C 
ATOM     28  C   UNL     1       4.816  -3.037  -0.821  0.00  0.00    +0.031 C 
ATOM     29  C   UNL     1       4.134  -3.393   1.556  0.00  0.00    +0.031 C 
ENDBRANCH  24  26
ENDBRANCH  14  22
ENDBRANCH   1  14
BRANCH   1  30
ATOM     30  C   UNL     1      -0.196  -5.442   2.137  0.00  0.00    +0.183 C 
BRANCH  30  31
ATOM     31  C   UNL     1       0.275  -4.444   3.163  0.00  0.00    +0.122 A 
ATOM     32  C   UNL     1      -0.421  -4.035   4.240  0.00  0.00    +0.046 A 
ATOM     33  C   UNL     1       0.392  -3.102   4.923  0.00  0.00    +0.045 A 
ATOM     34  C   UNL     1       1.536  -2.997   4.224  0.00  0.00    +0.102 A 
ATOM     35  O   UNL     1       1.462  -3.816   3.162  0.00  0.00    -0.463 OA
ATOM     36  C   UNL     1       2.706  -2.113   4.575  0.00  0.00    +0.086 C 
ENDBRANCH  30  31
ENDBRANCH   1  30
TORSDOF 9
