REMARK  Name = ZINC39687046
REMARK  9 active torsions:
REMARK  status: ('A' for Active; 'I' for Inactive)
REMARK    1  A    between atoms: C_1  and  C_2
REMARK    2  A    between atoms: C_2  and  S_3
REMARK    3  A    between atoms: S_3  and  C_4
REMARK    4  A    between atoms: C_5  and  C_10
REMARK    5  A    between atoms: C_14  and  C_23
REMARK    6  A    between atoms: N_25  and  C_26
REMARK    7  A    between atoms: C_26  and  C_28
REMARK    8  A    between atoms: C_26  and  C_29
REMARK    9  A    between atoms: C_29  and  C_30
REMARK                            x       y       z     vdW  Elec       q    Type
REMARK                         _______ _______ _______ _____ _____    ______ ____
ROOT
ATOM      1  C   UNL     1      -3.785  -2.805   0.121  0.00  0.00    +0.249 C 
ATOM      2  O   UNL     1      -3.868  -1.592   0.130  0.00  0.00    -0.270 OA
ATOM      3  N   UNL     1      -4.892  -3.555  -0.051  0.00  0.00    -0.296 N 
ATOM      4  C   UNL     1      -5.008  -5.031   0.015  0.00  0.00    +0.121 C 
ATOM      5  C   UNL     1      -6.352  -5.285   0.734  0.00  0.00    +0.100 C 
ATOM      6  C   UNL     1      -7.175  -4.009   0.491  0.00  0.00    -0.004 C 
ATOM      7  C   UNL     1      -6.269  -3.089  -0.341  0.00  0.00    +0.115 C 
ATOM      8  C   UNL     1      -8.448  -4.339  -0.282  0.00  0.00    -0.010 C 
ATOM      9  C   UNL     1      -9.277  -3.064  -0.460  0.00  0.00    -0.082 C 
ATOM     10  N   UNL     1      -9.611  -2.508   0.857  0.00  0.00    +0.379 N 
ATOM     11  C   UNL     1      -8.384  -2.106   1.556  0.00  0.00    -0.082 C 
ATOM     12  C   UNL     1      -7.518  -3.341   1.820  0.00  0.00    -0.010 C 
ATOM     13  H   UNL     1     -10.208  -1.703   0.738  0.00  0.00    -0.086 HD
ATOM     14  H   UNL     1     -10.095  -3.205   1.402  0.00  0.00    -0.086 HD
ENDROOT
BRANCH   1  16
ATOM     15  C   UNL     1      -1.512  -2.903   1.161  0.00  0.00    +0.109 A 
ATOM     16  C   UNL     1      -2.475  -3.455   0.298  0.00  0.00    +0.069 A 
ATOM     17  C   UNL     1      -2.166  -4.634  -0.390  0.00  0.00    +0.017 A 
ATOM     18  C   UNL     1      -0.922  -5.206  -0.189  0.00  0.00    +0.020 A 
ATOM     19  C   UNL     1      -0.026  -4.604   0.677  0.00  0.00    +0.112 A 
ATOM     20  N   UNL     1      -0.334  -3.490   1.313  0.00  0.00    -0.248 NA
BRANCH  15  21
ATOM     21  S   UNL     1      -1.871  -1.419   2.041  0.00  0.00    -0.105 S 
BRANCH  21  23
ATOM     22  C   UNL     1      -0.541   0.181   3.816  0.00  0.00    +0.015 C 
ATOM     23  C   UNL     1      -0.363  -1.098   2.995  0.00  0.00    +0.072 C 
ENDBRANCH  21  23
ENDBRANCH  15  21
ENDBRANCH   1  16
BRANCH   5  24
ATOM     24  C   UNL     1      -7.048  -6.482   0.139  0.00  0.00    +0.218 C 
ATOM     25  O   UNL     1      -6.925  -6.729  -1.042  0.00  0.00    -0.275 OA
ATOM     26  N   UNL     1      -7.806  -7.278   0.918  0.00  0.00    -0.312 N 
ATOM     27  H   UNL     1      -7.904  -7.080   1.863  0.00  0.00    +0.149 HD
BRANCH  26  28
ATOM     28  C   UNL     1      -8.482  -8.441   0.340  0.00  0.00    +0.074 C 
ATOM     29  C   UNL     1      -7.520  -9.630   0.314  0.00  0.00    +0.028 C 
BRANCH  28  30
ATOM     30  C   UNL     1      -9.706  -8.793   1.187  0.00  0.00    +0.060 C 
BRANCH  30  31
ATOM     31  C   UNL     1     -10.709  -7.671   1.113  0.00  0.00    -0.010 A 
ATOM     32  C   UNL     1     -10.722  -6.689   2.086  0.00  0.00    +0.006 A 
ATOM     33  C   UNL     1     -11.642  -5.660   2.017  0.00  0.00    +0.000 A 
ATOM     34  C   UNL     1     -12.550  -5.611   0.976  0.00  0.00    +0.003 A 
ATOM     35  C   UNL     1     -12.539  -6.591   0.001  0.00  0.00    +0.038 A 
ATOM     36  C   UNL     1     -11.614  -7.620   0.066  0.00  0.00    +0.127 A 
ATOM     37  F   UNL     1     -11.599  -8.576  -0.888  0.00  0.00    -0.205 F 
ENDBRANCH  30  31
ENDBRANCH  28  30
ENDBRANCH  26  28
ENDBRANCH   5  24
TORSDOF 7
