REMARK  Name = ZINC15023424
REMARK  15 active torsions:
REMARK  status: ('A' for Active; 'I' for Inactive)
REMARK    1  A    between atoms: C_1  and  C_2
REMARK    2  A    between atoms: C_2  and  O_38
REMARK    3  A    between atoms: C_5  and  C_27
REMARK    4  A    between atoms: C_7  and  C_17
REMARK    5  A    between atoms: C_9  and  C_11
REMARK    6  A    between atoms: C_11  and  O_13
REMARK    7  A    between atoms: O_13  and  C_14
REMARK    8  A    between atoms: C_14  and  C_15
REMARK    9  A    between atoms: C_20  and  C_23
REMARK   10  A    between atoms: C_23  and  C_24
REMARK   11  A    between atoms: C_23  and  C_25
REMARK   12  A    between atoms: C_23  and  C_26
REMARK   13  A    between atoms: C_27  and  O_29
REMARK   14  A    between atoms: O_29  and  C_30
REMARK   15  A    between atoms: C_30  and  C_31
REMARK                            x       y       z     vdW  Elec       q    Type
REMARK                         _______ _______ _______ _____ _____    ______ ____
ROOT
ATOM      1  C   UNL     1      -0.130   1.708  -2.733  0.00  0.00    +0.042 C 
ATOM      2  C   UNL     1      -0.721   2.094  -1.375  0.00  0.00    +0.080 C 
ATOM      3  C   UNL     1      -0.537   3.596  -1.147  0.00  0.00    +0.079 C 
ATOM      4  C   UNL     1      -1.110   3.978   0.214  0.00  0.00    +0.116 C 
ATOM      5  C   UNL     1      -0.415   3.199   1.326  0.00  0.00    +0.145 C 
ATOM      6  C   UNL     1      -0.599   1.698   1.089  0.00  0.00    +0.053 C 
ATOM      7  C   UNL     1      -0.003   1.319  -0.268  0.00  0.00    +0.137 C 
ATOM      8  N   UNL     1      -0.976   5.422   0.439  0.00  0.00    -0.306 N 
ATOM      9  C   UNL     1      -2.224   5.910   0.579  0.00  0.00    +0.146 C 
ATOM     10  S   UNL     1      -2.586   7.559   0.862  0.00  0.00    -0.018 S 
ATOM     11  N   UNL     1      -3.147   4.944   0.469  0.00  0.00    -0.260 N 
ATOM     12  N   UNL     1      -2.561   3.729   0.245  0.00  0.00    -0.217 NA
ATOM     13  H   UNL     1      -0.149   5.928   0.480  0.00  0.00    +0.150 HD
ATOM     14  H   UNL     1      -4.103   5.088   0.539  0.00  0.00    +0.168 HD
ATOM     15  H   UNL     1      -2.800   3.073   0.974  0.00  0.00    +0.147 HD
ENDROOT
BRANCH   6  16
ATOM     16  C   UNL     1       0.103   0.928   2.178  0.00  0.00    -0.042 A 
ATOM     17  C   UNL     1       0.639  -0.318   1.909  0.00  0.00    +0.004 A 
ATOM     18  C   UNL     1       1.287  -1.022   2.906  0.00  0.00    +0.004 A 
ATOM     19  C   UNL     1       1.391  -0.485   4.176  0.00  0.00    -0.042 A 
ATOM     20  C   UNL     1       0.850   0.758   4.447  0.00  0.00    +0.004 A 
ATOM     21  C   UNL     1       0.206   1.464   3.448  0.00  0.00    +0.004 A 
BRANCH  19  22
ATOM     22  C   UNL     1       2.094  -1.254   5.264  0.00  0.00    -0.013 C 
ATOM     23  C   UNL     1       1.119  -1.518   6.413  0.00  0.00    +0.015 C 
ATOM     24  C   UNL     1       2.595  -2.587   4.705  0.00  0.00    +0.015 C 
ATOM     25  C   UNL     1       3.281  -0.439   5.780  0.00  0.00    +0.015 C 
ENDBRANCH  19  22
ENDBRANCH   6  16
BRANCH   7  26
ATOM     26  C   UNL     1       1.464   1.662  -0.286  0.00  0.00    +0.314 C 
ATOM     27  O   UNL     1       2.198   1.221   0.567  0.00  0.00    -0.250 OA
BRANCH  26  28
ATOM     28  O   UNL     1       1.956   2.457  -1.248  0.00  0.00    -0.460 OA
BRANCH  28  29
ATOM     29  C   UNL     1       3.395   2.649  -1.274  0.00  0.00    +0.259 C 
BRANCH  29  30
ATOM     30  C   UNL     1       3.751   3.644  -2.348  0.00  0.00    +0.006 C 
ATOM     31  C   UNL     1       4.611   4.599  -2.098  0.00  0.00    +0.007 C 
ENDBRANCH  29  30
ENDBRANCH  28  29
ENDBRANCH  26  28
ENDBRANCH   7  26
BRANCH   5  32
ATOM     32  C   UNL     1       1.055   3.530   1.328  0.00  0.00    +0.315 C 
ATOM     33  O   UNL     1       1.521   4.218   0.450  0.00  0.00    -0.250 OA
BRANCH  32  34
ATOM     34  O   UNL     1       1.847   3.062   2.305  0.00  0.00    -0.460 OA
BRANCH  34  35
ATOM     35  C   UNL     1       3.230   3.506   2.303  0.00  0.00    +0.259 C 
BRANCH  35  36
ATOM     36  C   UNL     1       3.991   2.785   3.386  0.00  0.00    +0.006 C 
ATOM     37  C   UNL     1       5.175   2.285   3.133  0.00  0.00    +0.007 C 
ENDBRANCH  35  36
ENDBRANCH  34  35
ENDBRANCH  32  34
ENDBRANCH   5  32
BRANCH   2  38
ATOM     38  O   UNL     1      -2.114   1.775  -1.354  0.00  0.00    -0.388 OA
ATOM     39  H   UNL     1      -2.632   2.232  -2.031  0.00  0.00    +0.210 HD
ENDBRANCH   2  38
TORSDOF 11
