REMARK  Name = ZINC65534070
REMARK  5 active torsions:
REMARK  status: ('A' for Active; 'I' for Inactive)
REMARK    1  A    between atoms: C_1  and  C_2
REMARK    2  A    between atoms: C_2  and  C_4
REMARK    3  A    between atoms: C_2  and  O_19
REMARK    4  A    between atoms: N_10  and  C_11
REMARK    5  A    between atoms: O_19  and  C_20
REMARK                            x       y       z     vdW  Elec       q    Type
REMARK                         _______ _______ _______ _____ _____    ______ ____
ROOT
ATOM      1  C   UNL     1      -1.428  -0.429   0.330  0.00  0.00    +0.167 A 
ATOM      2  H   UNL     1      -4.498   0.074   0.159  0.00  0.00    +0.194 HD
ATOM      3  N   UNL     1      -2.414   0.405   0.414  0.00  0.00    -0.153 NA
ATOM      4  N   UNL     1      -3.602  -0.297   0.162  0.00  0.00    -0.226 N 
ATOM      5  C   UNL     1      -3.267  -1.582  -0.074  0.00  0.00    +0.349 A 
ATOM      6  O   UNL     1      -4.035  -2.492  -0.331  0.00  0.00    -0.245 OA
ATOM      7  N   UNL     1      -1.925  -1.674   0.022  0.00  0.00    -0.245 N 
ENDROOT
BRANCH   7   8
ATOM      8  C   UNL     1      -1.167  -2.840  -0.157  0.00  0.00    +0.054 A 
ATOM      9  C   UNL     1      -1.284  -3.890   0.743  0.00  0.00    +0.028 A 
ATOM     10  C   UNL     1      -0.536  -5.038   0.564  0.00  0.00    +0.023 A 
ATOM     11  C   UNL     1       0.329  -5.141  -0.511  0.00  0.00    +0.059 A 
ATOM     12  C   UNL     1       0.448  -4.095  -1.410  0.00  0.00    +0.061 A 
ATOM     13  C   UNL     1      -0.303  -2.947  -1.238  0.00  0.00    +0.047 A 
ATOM     14 CL   UNL     1       1.535  -4.227  -2.757  0.00  0.00    -0.082 Cl
ATOM     15 CL   UNL     1       1.268  -6.585  -0.733  0.00  0.00    -0.082 Cl
ENDBRANCH   7   8
BRANCH   1  17
ATOM     16  C   UNL     1       0.205   1.429   0.498  0.00  0.00    +0.046 C 
ATOM     17  C   UNL     1       0.026  -0.090   0.531  0.00  0.00    +0.183 C 
BRANCH  17  18
ATOM     18  O   UNL     1       0.463  -0.594   1.794  0.00  0.00    -0.372 OA
ATOM     19  C   UNL     1       1.854  -0.917   1.842  0.00  0.00    +0.194 C 
ENDBRANCH  17  18
ENDBRANCH   1  17
TORSDOF 3
