REMARK  Name = ZINC40756136
REMARK  7 active torsions:
REMARK  status: ('A' for Active; 'I' for Inactive)
REMARK    1  A    between atoms: C_6  and  C_7
REMARK    2  A    between atoms: C_7  and  N_8
REMARK    3  A    between atoms: C_15  and  N_29
REMARK    4  A    between atoms: C_16  and  N_20
REMARK    5  A    between atoms: N_20  and  C_21
REMARK    6  A    between atoms: C_21  and  C_22
REMARK    7  A    between atoms: C_22  and  C_23
REMARK                            x       y       z     vdW  Elec       q    Type
REMARK                         _______ _______ _______ _____ _____    ______ ____
ROOT
ATOM      1  N   UNL     1      -0.915  -0.607  -2.461  0.00  0.00    +0.384 N 
ATOM      2  C   UNL     1      -1.026  -0.808  -3.912  0.00  0.00    -0.059 C 
ATOM      3  C   UNL     1      -2.275  -1.642  -4.217  0.00  0.00    +0.088 C 
ATOM      4  N   UNL     1      -3.438  -0.981  -3.605  0.00  0.00    -0.317 N 
ATOM      5  C   UNL     1      -3.350  -0.594  -2.188  0.00  0.00    +0.088 C 
ATOM      6  C   UNL     1      -2.050   0.190  -1.979  0.00  0.00    -0.059 C 
ATOM      7  C   UNL     1      -4.587  -0.728  -4.344  0.00  0.00    +0.147 A 
ATOM      8  C   UNL     1      -5.581  -1.701  -4.463  0.00  0.00    +0.105 A 
ATOM      9  C   UNL     1      -6.715  -1.396  -5.217  0.00  0.00    +0.145 A 
ATOM     10  N   UNL     1      -6.806  -0.197  -5.790  0.00  0.00    -0.219 NA
ATOM     11  C   UNL     1      -5.844   0.693  -5.652  0.00  0.00    +0.225 A 
ATOM     12  N   UNL     1      -4.760   0.446  -4.945  0.00  0.00    -0.219 NA
ATOM     13  H   UNL     1      -0.915  -1.504  -1.999  0.00  0.00    -0.081 HD
ENDROOT
BRANCH   8  14
ATOM     14  N   UNL     1      -5.444  -2.954  -3.842  0.00  0.00    -0.353 N 
ATOM     15  H   UNL     1      -4.694  -3.121  -3.249  0.00  0.00    +0.143 HD
ATOM     16  H   UNL     1      -6.098  -3.651  -4.006  0.00  0.00    +0.143 HD
ENDBRANCH   8  14
BRANCH   9  17
ATOM     17  N   UNL     1      -7.735  -2.328  -5.368  0.00  0.00    -0.327 N 
ATOM     18  H   UNL     1      -7.661  -3.200  -4.948  0.00  0.00    +0.148 HD
BRANCH  17  19
ATOM     19  C   UNL     1      -8.920  -1.996  -6.162  0.00  0.00    +0.107 C 
BRANCH  19  20
ATOM     20  C   UNL     1      -9.881  -3.187  -6.168  0.00  0.00    +0.049 C 
BRANCH  20  21
ATOM     21  C   UNL     1     -11.100  -2.845  -6.985  0.00  0.00    -0.072 C 
ATOM     22  C   UNL     1     -11.121  -3.208  -8.227  0.00  0.00    -0.028 C 
ATOM     23  C   UNL     1     -12.258  -2.930  -9.166  0.00  0.00    +0.027 C 
ATOM     24  C   UNL     1     -13.516  -2.562  -8.376  0.00  0.00    +0.004 C 
ATOM     25  C   UNL     1     -13.146  -1.482  -7.351  0.00  0.00    +0.005 C 
ATOM     26  C   UNL     1     -12.218  -2.108  -6.306  0.00  0.00    +0.030 C 
ENDBRANCH  20  21
ENDBRANCH  19  20
ENDBRANCH  17  19
ENDBRANCH   9  17
BRANCH   1  27
ATOM     27  C   UNL     1       0.338   0.097  -2.160  0.00  0.00    -0.043 C 
BRANCH  27  33
ATOM     28  C   UNL     1       2.038  -0.694  -3.817  0.00  0.00    +0.005 A 
ATOM     29  C   UNL     1       3.111  -1.490  -4.173  0.00  0.00    +0.050 A 
ATOM     30  C   UNL     1       3.656  -2.370  -3.253  0.00  0.00    +0.166 A 
ATOM     31  C   UNL     1       3.122  -2.450  -1.969  0.00  0.00    +0.166 A 
ATOM     32  C   UNL     1       2.047  -1.649  -1.619  0.00  0.00    +0.051 A 
ATOM     33  C   UNL     1       1.508  -0.773  -2.543  0.00  0.00    -0.060 A 
ATOM     34  O   UNL     1       3.826  -3.380  -1.260  0.00  0.00    -0.453 OA
ATOM     35  C   UNL     1       4.532  -4.160  -2.244  0.00  0.00    +0.466 C 
ATOM     36  O   UNL     1       4.696  -3.250  -3.348  0.00  0.00    -0.453 OA
ENDBRANCH  27  33
ENDBRANCH   1  27
TORSDOF 7
