REMARK  Name = ZINC54617601
REMARK  14 active torsions:
REMARK  status: ('A' for Active; 'I' for Inactive)
REMARK    1  A    between atoms: C_1  and  C_2
REMARK    2  A    between atoms: C_2  and  C_3
REMARK    3  A    between atoms: C_3  and  C_4
REMARK    4  A    between atoms: C_4  and  S_5
REMARK    5  A    between atoms: S_5  and  C_6
REMARK    6  A    between atoms: C_11  and  C_27
REMARK    7  A    between atoms: C_13  and  C_17
REMARK    8  A    between atoms: C_14  and  C_16
REMARK    9  A    between atoms: N_19  and  C_20
REMARK   10  A    between atoms: C_24  and  C_26
REMARK   11  A    between atoms: C_29  and  N_36
REMARK   12  A    between atoms: C_30  and  O_35
REMARK   13  A    between atoms: C_31  and  O_33
REMARK   14  A    between atoms: O_33  and  C_34
REMARK                            x       y       z     vdW  Elec       q    Type
REMARK                         _______ _______ _______ _____ _____    ______ ____
ROOT
ATOM      1  C   UNL     1       1.384  -4.390   2.540  0.00  0.00    +0.210 A 
ATOM      2  N   UNL     1       0.866  -5.118   1.539  0.00  0.00    -0.187 NA
ATOM      3  C   UNL     1       1.063  -6.386   1.775  0.00  0.00    +0.219 A 
ATOM      4  N   UNL     1       1.727  -6.498   2.952  0.00  0.00    -0.220 N 
ATOM      5  N   UNL     1       1.924  -5.201   3.424  0.00  0.00    -0.141 NA
ATOM      6  C   UNL     1       2.129  -7.775   3.535  0.00  0.00    +0.177 C 
ATOM      7  C   UNL     1       1.445  -8.898   2.802  0.00  0.00    +0.060 C 
ATOM      8  C   UNL     1       0.798  -8.727   1.640  0.00  0.00    +0.018 C 
ATOM      9  N   UNL     1       0.701  -7.500   1.031  0.00  0.00    -0.287 N 
ATOM     10  C   UNL     1       0.157  -9.921   0.981  0.00  0.00    +0.061 C 
ATOM     11  H   UNL     1       0.390  -7.416   0.116  0.00  0.00    +0.155 HD
ENDROOT
BRANCH   6  12
ATOM     12  C   UNL     1       3.623  -7.934   3.415  0.00  0.00    -0.013 A 
ATOM     13  C   UNL     1       4.220  -7.927   2.168  0.00  0.00    +0.042 A 
ATOM     14  C   UNL     1       5.590  -8.072   2.053  0.00  0.00    +0.171 A 
ATOM     15  C   UNL     1       6.368  -8.224   3.189  0.00  0.00    +0.189 A 
ATOM     16  C   UNL     1       5.768  -8.231   4.445  0.00  0.00    +0.164 A 
ATOM     17  C   UNL     1       4.394  -8.080   4.553  0.00  0.00    +0.055 A 
BRANCH  14  18
ATOM     18  N   UNL     1       6.225  -8.065   0.716  0.00  0.00    +0.060 N 
ATOM     19  O   UNL     1       5.546  -7.932  -0.275  0.00  0.00    -0.126 OA
ATOM     20  O   UNL     1       7.423  -8.191   0.616  0.00  0.00    -0.126 OA
ENDBRANCH  14  18
BRANCH  16  21
ATOM     21  O   UNL     1       6.527  -8.380   5.563  0.00  0.00    -0.491 OA
ATOM     22  C   UNL     1       5.843  -8.378   6.817  0.00  0.00    +0.277 C 
ENDBRANCH  16  21
BRANCH  15  23
ATOM     23  O   UNL     1       7.716  -8.367   3.078  0.00  0.00    -0.502 OA
ATOM     24  H   UNL     1       8.203  -7.532   3.097  0.00  0.00    +0.292 HD
ENDBRANCH  15  23
ENDBRANCH   6  12
BRANCH   7  25
ATOM     25  C   UNL     1       1.487 -10.195   3.366  0.00  0.00    +0.248 C 
ATOM     26  O   UNL     1       0.785 -10.466   4.324  0.00  0.00    -0.270 OA
ATOM     27  N   UNL     1       2.304 -11.131   2.844  0.00  0.00    -0.282 N 
ATOM     28  H   UNL     1       2.910 -10.898   2.123  0.00  0.00    +0.155 HD
BRANCH  27  29
ATOM     29  C   UNL     1       2.278 -12.438   3.340  0.00  0.00    +0.034 A 
ATOM     30  C   UNL     1       2.483 -13.512   2.483  0.00  0.00    +0.023 A 
ATOM     31  C   UNL     1       2.456 -14.802   2.977  0.00  0.00    +0.002 A 
ATOM     32  C   UNL     1       2.225 -15.025   4.322  0.00  0.00    +0.003 A 
ATOM     33  C   UNL     1       2.021 -13.958   5.177  0.00  0.00    -0.049 A 
ATOM     34  C   UNL     1       2.052 -12.665   4.691  0.00  0.00    +0.026 A 
ATOM     35  C   UNL     1       1.770 -14.205   6.643  0.00  0.00    +0.044 C 
ENDBRANCH  27  29
ENDBRANCH   7  25
BRANCH   1  36
ATOM     36  S   UNL     1       1.352  -2.632   2.650  0.00  0.00    -0.084 S 
BRANCH  36  37
ATOM     37  C   UNL     1       0.479  -2.115   1.146  0.00  0.00    +0.077 C 
BRANCH  37  38
ATOM     38  C   UNL     1       0.380  -0.588   1.114  0.00  0.00    +0.011 C 
BRANCH  38  40
ATOM     39  C   UNL     1      -0.456   1.375  -0.186  0.00  0.00    +0.004 C 
ATOM     40  C   UNL     1      -0.356  -0.151  -0.154  0.00  0.00    -0.003 C 
ENDBRANCH  38  40
ENDBRANCH  37  38
ENDBRANCH  36  37
ENDBRANCH   1  36
TORSDOF 10
