REMARK  Name = ZINC38517762
REMARK  9 active torsions:
REMARK  status: ('A' for Active; 'I' for Inactive)
REMARK    1  A    between atoms: C_1  and  N_2
REMARK    2  A    between atoms: N_5  and  C_8
REMARK    3  A    between atoms: C_8  and  C_10
REMARK    4  A    between atoms: C_8  and  C_23
REMARK    5  A    between atoms: C_10  and  N_11
REMARK    6  A    between atoms: N_14  and  C_15
REMARK    7  A    between atoms: C_15  and  C_16
REMARK    8  A    between atoms: C_16  and  C_17
REMARK    9  A    between atoms: N_32  and  C_33
REMARK                            x       y       z     vdW  Elec       q    Type
REMARK                         _______ _______ _______ _____ _____    ______ ____
ROOT
ATOM      1  C   UNL     1       1.485  -4.103  -0.172  0.00  0.00    +0.104 C 
ENDROOT
BRANCH   1   2
ATOM      2  C   UNL     1       2.213  -4.654   1.027  0.00  0.00    -0.028 A 
ATOM      3  C   UNL     1       3.388  -4.061   1.454  0.00  0.00    +0.007 A 
ATOM      4  C   UNL     1       4.055  -4.567   2.551  0.00  0.00    +0.024 A 
ATOM      5  C   UNL     1       3.546  -5.670   3.227  0.00  0.00    +0.033 A 
ATOM      6  C   UNL     1       2.367  -6.262   2.801  0.00  0.00    -0.026 A 
ATOM      7  C   UNL     1       1.703  -5.746   1.701  0.00  0.00    +0.010 A 
ATOM      8  C   UNL     1       1.781  -7.452   3.514  0.00  0.00    +0.038 C 
ATOM      9  C   UNL     1       2.854  -8.162   4.340  0.00  0.00    +0.024 C 
ATOM     10  C   UNL     1       3.567  -7.129   5.221  0.00  0.00    +0.105 C 
ATOM     11  N   UNL     1       4.240  -6.171   4.334  0.00  0.00    -0.333 N 
ATOM     12  C   UNL     1       5.616  -5.746   4.604  0.00  0.00    +0.129 C 
ENDBRANCH   1   2
BRANCH   1  17
ATOM     13  C   UNL     1       0.473   1.438  -0.043  0.00  0.00    -0.096 C 
ATOM     14  N   UNL     1       0.370  -0.027  -0.073  0.00  0.00    +0.379 N 
ATOM     15  C   UNL     1       1.012  -0.537  -1.291  0.00  0.00    -0.064 C 
ATOM     16  C   UNL     1       0.888  -2.062  -1.332  0.00  0.00    +0.066 C 
ATOM     17  N   UNL     1       1.533  -2.635  -0.142  0.00  0.00    -0.297 NA
ATOM     18  C   UNL     1       0.917  -2.113   1.087  0.00  0.00    +0.066 C 
ATOM     19  C   UNL     1       1.040  -0.588   1.108  0.00  0.00    -0.064 C 
ATOM     20  H   UNL     1      -0.602  -0.296  -0.067  0.00  0.00    -0.082 HD
ENDBRANCH   1  17
BRANCH   1  21
ATOM     21  C   UNL     1       2.155  -4.608  -1.452  0.00  0.00    +0.129 C 
BRANCH  21  22
ATOM     22  N   UNL     1       2.036  -6.067  -1.522  0.00  0.00    -0.298 N 
ATOM     23  C   UNL     1       2.654  -6.747  -2.507  0.00  0.00    +0.300 C 
ATOM     24  O   UNL     1       3.310  -6.150  -3.339  0.00  0.00    -0.253 OA
ATOM     25  N   UNL     1       2.544  -8.089  -2.572  0.00  0.00    -0.299 N 
ATOM     26  H   UNL     1       1.512  -6.543  -0.858  0.00  0.00    +0.150 HD
ATOM     27  H   UNL     1       2.021  -8.565  -1.908  0.00  0.00    +0.150 HD
BRANCH  25  28
ATOM     28  C   UNL     1       3.216  -8.828  -3.643  0.00  0.00    +0.110 C 
BRANCH  28  29
ATOM     29  C   UNL     1       2.933 -10.323  -3.486  0.00  0.00    +0.054 C 
BRANCH  29  30
ATOM     30  C   UNL     1       3.624 -11.084  -4.589  0.00  0.00    -0.046 A 
ATOM     31  C   UNL     1       2.970 -11.315  -5.784  0.00  0.00    +0.004 A 
ATOM     32  C   UNL     1       3.604 -12.013  -6.795  0.00  0.00    +0.000 A 
ATOM     33  C   UNL     1       4.892 -12.478  -6.611  0.00  0.00    +0.000 A 
ATOM     34  C   UNL     1       5.547 -12.246  -5.416  0.00  0.00    +0.000 A 
ATOM     35  C   UNL     1       4.915 -11.545  -4.407  0.00  0.00    +0.004 A 
ENDBRANCH  29  30
ENDBRANCH  28  29
ENDBRANCH  25  28
ENDBRANCH  21  22
ENDBRANCH   1  21
TORSDOF 7
