REMARK  Name = ZINC20264025
REMARK  6 active torsions:
REMARK  status: ('A' for Active; 'I' for Inactive)
REMARK    1  A    between atoms: N_9  and  C_11
REMARK    2  A    between atoms: C_11  and  C_12
REMARK    3  A    between atoms: C_12  and  C_13
REMARK    4  A    between atoms: C_13  and  N_14
REMARK    5  A    between atoms: C_21  and  O_22
REMARK    6  A    between atoms: C_29  and  O_30
REMARK                            x       y       z     vdW  Elec       q    Type
REMARK                         _______ _______ _______ _____ _____    ______ ____
ROOT
ATOM      1  N   UNL     1      -0.698   1.558   1.213  0.00  0.00    -0.384 N 
ATOM      2  C   UNL     1      -0.209   1.223   2.465  0.00  0.00    +0.050 A 
ATOM      3  C   UNL     1       0.871   0.347   2.580  0.00  0.00    +0.074 A 
ATOM      4  C   UNL     1       1.372   0.009   3.821  0.00  0.00    +0.156 A 
ATOM      5  C   UNL     1       0.788   0.539   4.987  0.00  0.00    +0.118 A 
ATOM      6  C   UNL     1      -0.295   1.413   4.891  0.00  0.00    +0.059 A 
ATOM      7  C   UNL     1      -0.801   1.760   3.616  0.00  0.00    +0.053 A 
ATOM      8  C   UNL     1      -1.940   2.677   3.501  0.00  0.00    +0.134 A 
ATOM      9  C   UNL     1      -2.560   3.238   4.719  0.00  0.00    +0.028 A 
ATOM     10  C   UNL     1      -3.641   4.110   4.619  0.00  0.00    +0.012 A 
ATOM     11  C   UNL     1      -4.215   4.631   5.764  0.00  0.00    +0.001 A 
ATOM     12  C   UNL     1      -3.721   4.292   7.011  0.00  0.00    +0.001 A 
ATOM     13  C   UNL     1      -2.648   3.428   7.130  0.00  0.00    +0.012 A 
ATOM     14  C   UNL     1      -2.058   2.894   5.987  0.00  0.00    +0.028 A 
ATOM     15  C   UNL     1      -0.911   1.970   6.103  0.00  0.00    +0.135 A 
ATOM     16  N   UNL     1       1.296   0.188   6.228  0.00  0.00    -0.240 NA
ATOM     17  C   UNL     1       2.383  -0.691   6.294  0.00  0.00    +0.107 A 
ATOM     18  C   UNL     1       2.910  -1.060   7.522  0.00  0.00    +0.031 A 
ATOM     19  C   UNL     1       3.984  -1.929   7.578  0.00  0.00    +0.002 A 
ATOM     20  C   UNL     1       4.533  -2.430   6.412  0.00  0.00    +0.004 A 
ATOM     21  C   UNL     1       4.013  -2.066   5.184  0.00  0.00    +0.048 A 
ATOM     22  C   UNL     1       2.936  -1.196   5.118  0.00  0.00    +0.154 A 
ATOM     23  O   UNL     1       2.425  -0.840   3.911  0.00  0.00    -0.452 OA
ATOM     24  H   UNL     1      -1.612   2.165   1.124  0.00  0.00    +0.160 HD
ENDROOT
BRANCH   8  25
ATOM     25  O   UNL     1      -2.374   2.975   2.404  0.00  0.00    -0.505 OA
ATOM     26  H   UNL     1      -3.228   3.663   2.319  0.00  0.00    +0.292 HD
ENDBRANCH   8  25
BRANCH  15  27
ATOM     27  O   UNL     1      -0.477   1.672   7.200  0.00  0.00    -0.505 OA
ATOM     28  H   UNL     1      -0.939   2.091   8.106  0.00  0.00    +0.292 HD
ENDBRANCH  15  27
BRANCH   1  29
ATOM     29  C   UNL     1       0.000   1.105   0.008  0.00  0.00    +0.111 C 
BRANCH  29  30
ATOM     30  C   UNL     1      -0.743   1.607  -1.232  0.00  0.00    +0.002 C 
BRANCH  30  31
ATOM     31  C   UNL     1      -0.013   1.134  -2.490  0.00  0.00    -0.077 C 
BRANCH  31  40
ATOM     32  C   UNL     1      -2.909   4.554  -7.098  0.00  0.00    +0.000 A 
ATOM     33  C   UNL     1      -3.012   5.240  -5.902  0.00  0.00    +0.000 A 
ATOM     34  C   UNL     1      -2.410   4.737  -4.766  0.00  0.00    +0.002 A 
ATOM     35  C   UNL     1      -1.703   3.545  -4.817  0.00  0.00    -0.061 A 
ATOM     36  C   UNL     1      -1.602   2.860  -6.009  0.00  0.00    -0.048 A 
ATOM     37  C   UNL     1      -2.205   3.367  -7.150  0.00  0.00    +0.004 A 
ATOM     38  C   UNL     1      -0.849   1.558  -6.112  0.00  0.00    +0.017 C 
ATOM     39  C   UNL     1       0.066   1.387  -4.899  0.00  0.00    -0.074 C 
ATOM     40  N   UNL     1      -0.727   1.616  -3.680  0.00  0.00    +0.383 N 
ATOM     41  C   UNL     1      -1.060   3.038  -3.552  0.00  0.00    -0.043 C 
ATOM     42  H   UNL     1      -1.665   1.048  -3.760  0.00  0.00    -0.081 HD
ENDBRANCH  31  40
ENDBRANCH  30  31
ENDBRANCH  29  30
ENDBRANCH   1  29
TORSDOF 6
