REMARK  Name = ZINC39303613
REMARK  8 active torsions:
REMARK  status: ('A' for Active; 'I' for Inactive)
REMARK    1  A    between atoms: C_4  and  C_7
REMARK    2  A    between atoms: C_7  and  C_8
REMARK    3  A    between atoms: C_7  and  N_14
REMARK    4  A    between atoms: N_14  and  C_15
REMARK    5  A    between atoms: C_15  and  C_17
REMARK    6  A    between atoms: C_15  and  C_22
REMARK    7  A    between atoms: N_27  and  C_30
REMARK    8  A    between atoms: C_34  and  O_36
REMARK                            x       y       z     vdW  Elec       q    Type
REMARK                         _______ _______ _______ _____ _____    ______ ____
ROOT
ATOM      1  C   UNL     1       3.406  -1.386  -2.306  0.00  0.00    +0.055 C 
ENDROOT
BRANCH   1   2
ATOM      2  C   UNL     1       3.478  -2.549  -3.262  0.00  0.00    +0.206 C 
ATOM      3  O   UNL     1       3.838  -3.638  -2.867  0.00  0.00    -0.277 OA
ATOM      4  N   UNL     1       3.143  -2.379  -4.556  0.00  0.00    -0.300 N 
ATOM      5  C   UNL     1       2.829  -1.042  -5.078  0.00  0.00    +0.126 C 
ATOM      6  C   UNL     1       3.739  -0.758  -6.279  0.00  0.00    +0.124 C 
ATOM      7  N   UNL     1       3.682  -1.907  -7.194  0.00  0.00    -0.327 N 
ATOM      8  C   UNL     1       3.996  -3.244  -6.672  0.00  0.00    +0.124 C 
ATOM      9  C   UNL     1       3.091  -3.527  -5.473  0.00  0.00    +0.126 C 
BRANCH   7  10
ATOM     10  C   UNL     1       3.334  -1.730  -8.535  0.00  0.00    +0.033 A 
ATOM     11  C   UNL     1       2.928  -0.482  -8.991  0.00  0.00    +0.023 A 
ATOM     12  C   UNL     1       2.584  -0.308 -10.317  0.00  0.00    +0.005 A 
ATOM     13  C   UNL     1       2.644  -1.374 -11.195  0.00  0.00    +0.045 A 
ATOM     14  C   UNL     1       3.049  -2.623 -10.746  0.00  0.00    +0.119 A 
ATOM     15  C   UNL     1       3.399  -2.801  -9.416  0.00  0.00    +0.068 A 
BRANCH  14  16
ATOM     16  O   UNL     1       3.107  -3.670 -11.610  0.00  0.00    -0.507 OA
ATOM     17  H   UNL     1       3.962  -3.770 -12.051  0.00  0.00    +0.292 HD
ENDBRANCH  14  16
ENDBRANCH   7  10
ENDBRANCH   1   2
BRANCH   1  18
ATOM     18  C   UNL     1       4.669  -0.570  -2.412  0.00  0.00    -0.015 A 
ATOM     19  C   UNL     1       4.882   0.589  -3.081  0.00  0.00    +0.010 A 
ATOM     20  C   UNL     1       6.137   1.167  -3.036  0.00  0.00    +0.008 A 
ATOM     21  C   UNL     1       7.117   0.558  -2.326  0.00  0.00    +0.045 A 
ATOM     22  S   UNL     1       6.270  -0.876  -1.683  0.00  0.00    -0.103 S 
ENDBRANCH   1  18
BRANCH   1  23
ATOM     23  N   UNL     1       3.262  -1.889  -0.934  0.00  0.00    +0.397 N 
ATOM     24  H   UNL     1       4.093  -2.398  -0.673  0.00  0.00    -0.083 HD
ATOM     25  H   UNL     1       2.462  -2.502  -0.882  0.00  0.00    -0.083 HD
BRANCH  23  26
ATOM     26  C   UNL     1       3.072  -0.758  -0.015  0.00  0.00    -0.009 C 
BRANCH  26  30
ATOM     27  C   UNL     1      -0.625   1.189  -0.903  0.00  0.00    +0.000 A 
ATOM     28  C   UNL     1       0.490   1.938  -0.579  0.00  0.00    +0.000 A 
ATOM     29  C   UNL     1       1.687   1.308  -0.291  0.00  0.00    +0.002 A 
ATOM     30  C   UNL     1       1.767  -0.071  -0.328  0.00  0.00    -0.057 A 
ATOM     31  C   UNL     1       0.652  -0.821  -0.651  0.00  0.00    +0.002 A 
ATOM     32  C   UNL     1      -0.544  -0.191  -0.940  0.00  0.00    +0.000 A 
ENDBRANCH  26  30
BRANCH  26  33
ATOM     33  C   UNL     1       3.046  -1.263   1.404  0.00  0.00    -0.057 A 
ATOM     34  C   UNL     1       2.397  -2.446   1.706  0.00  0.00    +0.002 A 
ATOM     35  C   UNL     1       2.374  -2.908   3.009  0.00  0.00    +0.000 A 
ATOM     36  C   UNL     1       3.000  -2.189   4.009  0.00  0.00    +0.000 A 
ATOM     37  C   UNL     1       3.650  -1.007   3.707  0.00  0.00    +0.000 A 
ATOM     38  C   UNL     1       3.677  -0.546   2.404  0.00  0.00    +0.002 A 
ENDBRANCH  26  33
ENDBRANCH  23  26
ENDBRANCH   1  23
TORSDOF 8
