REMARK  Name = ZINC18587327
REMARK  7 active torsions:
REMARK  status: ('A' for Active; 'I' for Inactive)
REMARK    1  A    between atoms: C_1  and  C_2
REMARK    2  A    between atoms: C_2  and  C_4
REMARK    3  A    between atoms: C_2  and  S_19
REMARK    4  A    between atoms: C_16  and  C_17
REMARK    5  A    between atoms: C_16  and  C_18
REMARK    6  A    between atoms: S_19  and  C_20
REMARK    7  A    between atoms: C_28  and  C_30
REMARK                            x       y       z     vdW  Elec       q    Type
REMARK                         _______ _______ _______ _____ _____    ______ ____
ROOT
ATOM      1  C   UNL     1      -4.356   4.701   0.246  0.00  0.00    +0.029 C 
ATOM      2  C   UNL     1      -5.101   4.369  -1.049  0.00  0.00    +0.136 C 
ENDROOT
BRANCH   2   3
ATOM      3  C   UNL     1      -6.491   3.889  -0.721  0.00  0.00    +0.234 C 
ATOM      4  O   UNL     1      -6.668   2.746  -0.356  0.00  0.00    -0.274 OA
ATOM      5  N   UNL     1      -7.538   4.731  -0.832  0.00  0.00    -0.255 N 
ATOM      6  C   UNL     1      -7.356   6.065  -1.228  0.00  0.00    +0.059 A 
ATOM      7  C   UNL     1      -6.181   6.739  -0.949  0.00  0.00    +0.025 A 
ATOM      8  C   UNL     1      -6.033   8.056  -1.349  0.00  0.00    +0.002 A 
ATOM      9  C   UNL     1      -7.056   8.696  -2.025  0.00  0.00    +0.002 A 
ATOM     10  C   UNL     1      -8.236   8.022  -2.319  0.00  0.00    +0.025 A 
ATOM     11  C   UNL     1      -8.391   6.704  -1.919  0.00  0.00    +0.055 A 
ATOM     12  N   UNL     1      -9.572   6.007  -2.194  0.00  0.00    -0.282 N 
ATOM     13  C   UNL     1      -9.842   4.841  -1.578  0.00  0.00    +0.241 C 
ATOM     14  O   UNL     1     -10.852   4.232  -1.864  0.00  0.00    -0.273 OA
ATOM     15  C   UNL     1      -8.907   4.283  -0.536  0.00  0.00    +0.113 C 
ATOM     16  C   UNL     1      -8.962   2.754  -0.565  0.00  0.00    +0.042 C 
ATOM     17  C   UNL     1      -9.323   4.786   0.848  0.00  0.00    +0.042 C 
ATOM     18  H   UNL     1     -10.203   6.368  -2.836  0.00  0.00    +0.155 HD
ENDBRANCH   2   3
BRANCH   2  19
ATOM     19  S   UNL     1      -4.210   3.070  -1.941  0.00  0.00    -0.093 S 
BRANCH  19  20
ATOM     20  C   UNL     1      -2.719   3.927  -2.322  0.00  0.00    +0.109 A 
ATOM     21  C   UNL     1      -1.676   3.292  -3.041  0.00  0.00    +0.032 A 
ATOM     22  C   UNL     1      -1.778   1.969  -3.485  0.00  0.00    +0.012 A 
ATOM     23  C   UNL     1      -0.740   1.408  -4.169  0.00  0.00    +0.001 A 
ATOM     24  C   UNL     1       0.414   2.137  -4.441  0.00  0.00    +0.002 A 
ATOM     25  C   UNL     1       0.542   3.430  -4.026  0.00  0.00    +0.028 A 
ATOM     26  C   UNL     1      -0.503   4.035  -3.316  0.00  0.00    +0.076 A 
ATOM     27  N   UNL     1      -0.429   5.304  -2.886  0.00  0.00    -0.224 NA
ATOM     28  C   UNL     1      -1.425   5.842  -2.224  0.00  0.00    +0.236 A 
ATOM     29  N   UNL     1      -2.541   5.187  -1.943  0.00  0.00    -0.217 NA
BRANCH  28  30
ATOM     30  C   UNL     1      -1.294   7.270  -1.761  0.00  0.00    +0.452 C 
ATOM     31  F   UNL     1      -2.076   8.097  -2.574  0.00  0.00    -0.163 F 
ATOM     32  F   UNL     1      -1.730   7.373  -0.435  0.00  0.00    -0.163 F 
ATOM     33  F   UNL     1       0.045   7.666  -1.843  0.00  0.00    -0.163 F 
ENDBRANCH  28  30
ENDBRANCH  19  20
ENDBRANCH   2  19
TORSDOF 4
