REMARK  Name = ZINC02323112
REMARK  4 active torsions:
REMARK  status: ('A' for Active; 'I' for Inactive)
REMARK    1  A    between atoms: C_1  and  C_2
REMARK    2  A    between atoms: C_5  and  C_8
REMARK    3  A    between atoms: C_8  and  N_9
REMARK    4  A    between atoms: C_14  and  C_32
REMARK                            x       y       z     vdW  Elec       q    Type
REMARK                         _______ _______ _______ _____ _____    ______ ____
ROOT
ATOM      1  N   UNL     1       1.447  -4.746  -0.032  0.00  0.00    -0.237 N 
ATOM      2  C   UNL     1       2.127  -4.966  -1.162  0.00  0.00    +0.229 C 
ATOM      3  O   UNL     1       1.694  -4.807  -2.283  0.00  0.00    -0.275 OA
ATOM      4  C   UNL     1       3.522  -5.445  -0.825  0.00  0.00    +0.124 C 
ATOM      5  C   UNL     1       4.539  -4.348  -1.208  0.00  0.00    +0.163 C 
ATOM      6  O   UNL     1       5.418  -4.237  -0.065  0.00  0.00    -0.348 OA
ATOM      7  C   UNL     1       4.561  -4.352   1.081  0.00  0.00    +0.206 C 
ATOM      8  C   UNL     1       3.528  -5.459   0.731  0.00  0.00    +0.137 C 
ATOM      9  C   UNL     1       2.138  -4.984   1.089  0.00  0.00    +0.230 C 
ATOM     10  O   UNL     1       1.715  -4.844   2.216  0.00  0.00    -0.275 OA
ATOM     11  C   UNL     1       3.883  -3.044   1.381  0.00  0.00    +0.204 C 
ATOM     12  O   UNL     1       3.155  -2.422   0.638  0.00  0.00    -0.288 OA
ATOM     13  C   UNL     1       4.271  -2.664   2.753  0.00  0.00    +0.031 A 
ATOM     14  C   UNL     1       3.932  -1.546   3.519  0.00  0.00    +0.012 A 
ATOM     15  C   UNL     1       4.426  -1.409   4.802  0.00  0.00    +0.001 A 
ATOM     16  C   UNL     1       5.259  -2.375   5.338  0.00  0.00    +0.001 A 
ATOM     17  C   UNL     1       5.608  -3.488   4.598  0.00  0.00    +0.012 A 
ATOM     18  C   UNL     1       5.121  -3.645   3.298  0.00  0.00    +0.031 A 
ATOM     19  C   UNL     1       5.342  -4.720   2.311  0.00  0.00    +0.204 C 
ATOM     20  O   UNL     1       6.023  -5.711   2.463  0.00  0.00    -0.288 OA
ENDROOT
BRANCH   5  21
ATOM     21  C   UNL     1       5.317  -4.758  -2.431  0.00  0.00    -0.018 A 
ATOM     22  C   UNL     1       6.374  -5.642  -2.314  0.00  0.00    +0.007 A 
ATOM     23  C   UNL     1       7.087  -6.019  -3.436  0.00  0.00    +0.015 A 
ATOM     24  C   UNL     1       6.743  -5.513  -4.677  0.00  0.00    +0.018 A 
ATOM     25  C   UNL     1       5.686  -4.629  -4.794  0.00  0.00    +0.015 A 
ATOM     26  C   UNL     1       4.970  -4.256  -3.672  0.00  0.00    +0.007 A 
ATOM     27 BR   UNL     1       7.719  -6.028  -6.212  0.00  0.00    -0.050 Br
ENDBRANCH   5  21
BRANCH   1  28
ATOM     28  C   UNL     1       0.059  -4.275  -0.021  0.00  0.00    +0.151 C 
BRANCH  28  33
ATOM     29  C   UNL     1      -0.018   1.503   0.010  0.00  0.00    +0.044 C 
ATOM     30  C   UNL     1       0.002  -0.004   0.002  0.00  0.00    -0.050 A 
ATOM     31  C   UNL     1       0.006  -0.689  -1.199  0.00  0.00    +0.003 A 
ATOM     32  C   UNL     1       0.025  -2.071  -1.206  0.00  0.00    +0.005 A 
ATOM     33  C   UNL     1       0.040  -2.768  -0.013  0.00  0.00    -0.030 A 
ATOM     34  C   UNL     1       0.037  -2.084   1.188  0.00  0.00    +0.005 A 
ATOM     35  C   UNL     1       0.023  -0.702   1.195  0.00  0.00    +0.003 A 
ENDBRANCH  28  33
ENDBRANCH   1  28
TORSDOF 3
