REMARK  Name = ZINC22289580
REMARK  8 active torsions:
REMARK  status: ('A' for Active; 'I' for Inactive)
REMARK    1  A    between atoms: C_1  and  C_2
REMARK    2  A    between atoms: C_2  and  C_3
REMARK    3  A    between atoms: C_2  and  C_4
REMARK    4  A    between atoms: C_4  and  C_5
REMARK    5  A    between atoms: C_5  and  C_7
REMARK    6  A    between atoms: C_5  and  N_22
REMARK    7  A    between atoms: C_12  and  C_15
REMARK    8  A    between atoms: C_15  and  N_16
REMARK                            x       y       z     vdW  Elec       q    Type
REMARK                         _______ _______ _______ _____ _____    ______ ____
ROOT
ATOM      1  C   UNL     1       2.863  -0.451  -2.500  0.00  0.00    +0.240 C 
ATOM      2  O   UNL     1       3.809  -1.211  -2.491  0.00  0.00    -0.273 OA
ATOM      3  N   UNL     1       2.417   0.055  -3.667  0.00  0.00    -0.263 N 
ATOM      4  C   UNL     1       3.041  -0.293  -4.859  0.00  0.00    +0.165 A 
ATOM      5  N   UNL     1       2.750   0.102  -6.080  0.00  0.00    -0.231 NA
ATOM      6  C   UNL     1       3.444  -0.324  -7.119  0.00  0.00    +0.034 A 
ATOM      7  C   UNL     1       4.463  -1.182  -6.868  0.00  0.00    +0.070 A 
ATOM      8  S   UNL     1       4.355  -1.318  -5.091  0.00  0.00    -0.060 S 
ATOM      9  H   UNL     1       1.661   0.663  -3.674  0.00  0.00    +0.157 HD
ENDROOT
BRANCH   1  10
ATOM     10  C   UNL     1       2.187  -0.073  -1.207  0.00  0.00    +0.170 C 
BRANCH  10  11
ATOM     11  N   UNL     1       2.854  -0.750  -0.092  0.00  0.00    -0.230 N 
ATOM     12  C   UNL     1       2.944  -2.090   0.007  0.00  0.00    +0.227 C 
ATOM     13  O   UNL     1       2.688  -2.894  -0.864  0.00  0.00    -0.275 OA
ATOM     14  C   UNL     1       3.431  -2.410   1.430  0.00  0.00    +0.091 C 
ATOM     15  C   UNL     1       2.154  -2.506   2.268  0.00  0.00    +0.040 C 
ATOM     16  C   UNL     1       2.323  -2.006   3.661  0.00  0.00    -0.030 C 
ATOM     17  C   UNL     1       3.290  -1.249   4.061  0.00  0.00    -0.030 C 
ATOM     18  C   UNL     1       4.410  -0.809   3.174  0.00  0.00    +0.040 C 
ATOM     19  C   UNL     1       4.201  -1.111   1.718  0.00  0.00    +0.091 C 
ATOM     20  C   UNL     1       3.440  -0.086   0.930  0.00  0.00    +0.227 C 
ATOM     21  O   UNL     1       3.364   1.101   1.164  0.00  0.00    -0.275 OA
ENDBRANCH  10  11
BRANCH  10  22
ATOM     22  C   UNL     1       0.718  -0.497  -1.257  0.00  0.00    +0.035 C 
BRANCH  22  24
ATOM     23  C   UNL     1      -0.019   1.526   0.010  0.00  0.00    +0.007 C 
ATOM     24  C   UNL     1       0.002  -0.004   0.002  0.00  0.00    -0.015 C 
ATOM     25  C   UNL     1      -1.433  -0.534   0.013  0.00  0.00    +0.007 C 
ENDBRANCH  22  24
ENDBRANCH  10  22
ENDBRANCH   1  10
BRANCH   6  26
ATOM     26  C   UNL     1       3.118   0.124  -8.520  0.00  0.00    -0.022 C 
BRANCH  26  27
ATOM     27  N   UNL     1       2.058  -0.730  -9.072  0.00  0.00    +0.383 N 
ATOM     28  C   UNL     1       2.555  -2.105  -9.200  0.00  0.00    -0.078 C 
ATOM     29  C   UNL     1       1.430  -3.014  -9.699  0.00  0.00    -0.019 C 
ATOM     30  C   UNL     1       0.945  -2.516 -11.063  0.00  0.00    -0.004 C 
ATOM     31  C   UNL     1       0.497  -1.058 -10.933  0.00  0.00    -0.019 C 
ATOM     32  C   UNL     1       1.657  -0.221 -10.389  0.00  0.00    -0.078 C 
ATOM     33  H   UNL     1       1.261  -0.719  -8.452  0.00  0.00    -0.081 HD
ENDBRANCH  26  27
ENDBRANCH   6  26
TORSDOF 6
