REMARK  Name = ZINC31475838
REMARK  12 active torsions:
REMARK  status: ('A' for Active; 'I' for Inactive)
REMARK    1  A    between atoms: C_1  and  C_2
REMARK    2  A    between atoms: C_2  and  O_3
REMARK    3  A    between atoms: O_3  and  C_4
REMARK    4  A    between atoms: C_4  and  C_5
REMARK    5  A    between atoms: C_5  and  C_6
REMARK    6  A    between atoms: C_6  and  N_7
REMARK    7  A    between atoms: N_7  and  S_8
REMARK    8  A    between atoms: S_8  and  C_11
REMARK    9  A    between atoms: C_14  and  S_17
REMARK   10  A    between atoms: S_17  and  C_18
REMARK   11  A    between atoms: C_20  and  O_35
REMARK   12  A    between atoms: C_23  and  N_24
REMARK                            x       y       z     vdW  Elec       q    Type
REMARK                         _______ _______ _______ _____ _____    ______ ____
ROOT
ATOM      1  C   UNL     1      -4.538   4.211   4.462  0.00  0.00    +0.038 A 
ATOM      2  C   UNL     1      -4.721   4.293   3.092  0.00  0.00    +0.063 A 
ATOM      3  C   UNL     1      -5.894   4.826   2.569  0.00  0.00    +0.130 A 
ATOM      4  C   UNL     1      -6.896   5.295   3.427  0.00  0.00    +0.076 A 
ATOM      5  C   UNL     1      -6.713   5.220   4.827  0.00  0.00    +0.058 A 
ATOM      6  C   UNL     1      -5.534   4.678   5.341  0.00  0.00    +0.050 A 
ATOM      7  C   UNL     1      -7.760   5.711   5.735  0.00  0.00    +0.196 C 
ATOM      8  O   UNL     1      -7.603   5.646   6.939  0.00  0.00    -0.287 OA
ATOM      9  C   UNL     1      -9.004   6.284   5.180  0.00  0.00    +0.033 A 
ATOM     10  C   UNL     1     -10.003   6.752   6.031  0.00  0.00    +0.012 A 
ATOM     11  C   UNL     1     -11.163   7.287   5.503  0.00  0.00    +0.001 A 
ATOM     12  C   UNL     1     -11.341   7.360   4.132  0.00  0.00    +0.001 A 
ATOM     13  C   UNL     1     -10.360   6.899   3.273  0.00  0.00    +0.012 A 
ATOM     14  C   UNL     1      -9.185   6.358   3.788  0.00  0.00    +0.033 A 
ATOM     15  C   UNL     1      -8.132   5.864   2.877  0.00  0.00    +0.198 C 
ATOM     16  O   UNL     1      -8.289   5.928   1.672  0.00  0.00    -0.286 OA
ENDROOT
BRANCH   6  17
ATOM     17  N   UNL     1      -5.344   4.598   6.711  0.00  0.00    -0.357 N 
ATOM     18  H   UNL     1      -6.123   4.963   7.396  0.00  0.00    +0.142 HD
ATOM     19  H   UNL     1      -4.414   4.171   7.114  0.00  0.00    +0.142 HD
ENDBRANCH   6  17
BRANCH   3  20
ATOM     20  O   UNL     1      -6.065   4.897   1.226  0.00  0.00    -0.506 OA
ATOM     21  H   UNL     1      -6.992   5.318   0.811  0.00  0.00    +0.292 HD
ENDBRANCH   3  20
BRANCH   1  22
ATOM     22  S   UNL     1      -3.048   3.526   5.107  0.00  0.00    -0.087 S 
BRANCH  22  26
ATOM     23  C   UNL     1      -0.496   2.800   1.436  0.00  0.00    +0.105 A 
ATOM     24  C   UNL     1      -0.492   4.043   2.044  0.00  0.00    +0.029 A 
ATOM     25  C   UNL     1      -1.273   4.269   3.161  0.00  0.00    +0.017 A 
ATOM     26  C   UNL     1      -2.055   3.244   3.679  0.00  0.00    +0.013 A 
ATOM     27  C   UNL     1      -2.052   1.996   3.068  0.00  0.00    +0.017 A 
ATOM     28  C   UNL     1      -1.273   1.778   1.949  0.00  0.00    +0.029 A 
BRANCH  23  29
ATOM     29  S   UNL     1       0.497   2.518   0.008  0.00  0.00    +0.058 S 
ATOM     30  O   UNL     1       0.741   1.119  -0.047  0.00  0.00    -0.153 OA
ATOM     31  O   UNL     1       1.548   3.474   0.049  0.00  0.00    -0.153 OA
BRANCH  29  32
ATOM     32  N   UNL     1      -0.429   2.889  -1.313  0.00  0.00    -0.190 NA
ATOM     33  H   UNL     1      -0.840   2.074  -1.928  0.00  0.00    +0.148 HD
BRANCH  32  34
ATOM     34  C   UNL     1      -0.875   4.267  -1.532  0.00  0.00    +0.108 C 
BRANCH  34  35
ATOM     35  C   UNL     1      -1.376   4.420  -2.969  0.00  0.00    +0.045 C 
BRANCH  35  36
ATOM     36  C   UNL     1      -1.842   5.859  -3.197  0.00  0.00    +0.161 C 
BRANCH  36  37
ATOM     37  O   UNL     1      -2.310   6.001  -4.540  0.00  0.00    -0.380 OA
BRANCH  37  39
ATOM     38  C   UNL     1      -3.245   7.351  -6.313  0.00  0.00    +0.034 C 
ATOM     39  C   UNL     1      -2.771   7.316  -4.859  0.00  0.00    +0.156 C 
ENDBRANCH  37  39
ENDBRANCH  36  37
ENDBRANCH  35  36
ENDBRANCH  34  35
ENDBRANCH  32  34
ENDBRANCH  29  32
ENDBRANCH  23  29
ENDBRANCH  22  26
ENDBRANCH   1  22
TORSDOF 11
