REMARK  Name = ZINC01509161
REMARK  8 active torsions:
REMARK  status: ('A' for Active; 'I' for Inactive)
REMARK    1  A    between atoms: C_1  and  C_2
REMARK    2  A    between atoms: C_2  and  N_3
REMARK    3  A    between atoms: N_3  and  C_4
REMARK    4  A    between atoms: N_3  and  C_6
REMARK    5  A    between atoms: C_4  and  C_5
REMARK    6  A    between atoms: C_11  and  C_25
REMARK    7  A    between atoms: N_13  and  C_14
REMARK    8  A    between atoms: C_18  and  C_20
REMARK                            x       y       z     vdW  Elec       q    Type
REMARK                         _______ _______ _______ _____ _____    ______ ____
ROOT
ATOM      1  C   UNL     1       2.899  -0.716   0.088  0.00  0.00    +0.033 A 
ATOM      2  C   UNL     1       3.912  -0.508  -0.850  0.00  0.00    +0.024 A 
ATOM      3  C   UNL     1       5.213  -0.751  -0.527  0.00  0.00    +0.013 A 
ATOM      4  C   UNL     1       5.540  -1.223   0.754  0.00  0.00    +0.018 A 
ATOM      5  C   UNL     1       6.886  -1.513   1.089  0.00  0.00    +0.030 A 
ATOM      6  C   UNL     1       7.137  -2.163   2.290  0.00  0.00    +0.097 A 
ATOM      7  C   UNL     1       5.973  -2.534   3.117  0.00  0.00    +0.212 A 
ATOM      8  N   UNL     1       6.031  -3.538   3.966  0.00  0.00    -0.325 N 
ATOM      9  O   UNL     1       4.838  -1.803   2.971  0.00  0.00    -0.438 OA
ATOM     10  C   UNL     1       4.524  -1.405   1.713  0.00  0.00    +0.139 A 
ATOM     11  C   UNL     1       3.207  -1.155   1.369  0.00  0.00    +0.070 A 
ATOM     12  H   UNL     1       6.818  -4.104   3.994  0.00  0.00    +0.169 HD
ENDROOT
BRANCH   8  13
ATOM     13  C   UNL     1       4.983  -3.781   4.811  0.00  0.00    +0.043 A 
ATOM     14  C   UNL     1       4.371  -2.725   5.491  0.00  0.00    +0.026 A 
ATOM     15  C   UNL     1       3.314  -2.969   6.344  0.00  0.00    +0.003 A 
ATOM     16  C   UNL     1       2.853  -4.258   6.531  0.00  0.00    +0.019 A 
ATOM     17  C   UNL     1       3.454  -5.324   5.857  0.00  0.00    +0.054 A 
ATOM     18  C   UNL     1       4.519  -5.084   4.990  0.00  0.00    +0.044 A 
BRANCH  17  19
ATOM     19  C   UNL     1       2.975  -6.659   6.054  0.00  0.00    +0.099 C 
ATOM     20  N   UNL     1       2.595  -7.718   6.209  0.00  0.00    -0.191 NA
ENDBRANCH  17  19
ENDBRANCH   8  13
BRANCH   6  21
ATOM     21  C   UNL     1       8.510  -2.471   2.721  0.00  0.00    +0.247 C 
ATOM     22  O   UNL     1       8.712  -2.930   3.829  0.00  0.00    -0.270 OA
ATOM     23  N   UNL     1       9.545  -2.244   1.887  0.00  0.00    -0.325 N 
ATOM     24  H   UNL     1       9.393  -1.813   1.032  0.00  0.00    +0.145 HD
ATOM     25  H   UNL     1      10.441  -2.513   2.143  0.00  0.00    +0.145 HD
ENDBRANCH   6  21
BRANCH   1  26
ATOM     26  N   UNL     1       1.575  -0.476  -0.261  0.00  0.00    -0.330 N 
BRANCH  26  28
ATOM     27  C   UNL     1       1.263   1.517  -1.643  0.00  0.00    +0.024 C 
ATOM     28  C   UNL     1       1.246  -0.013  -1.611  0.00  0.00    +0.102 C 
ENDBRANCH  26  28
BRANCH  26  29
ATOM     29  C   UNL     1       0.509  -0.688   0.722  0.00  0.00    +0.102 C 
ATOM     30  C   UNL     1       0.006  -2.129   0.626  0.00  0.00    +0.024 C 
ENDBRANCH  26  29
ENDBRANCH   1  26
TORSDOF 6
