REMARK  Name = ZINC20505837
REMARK  4 active torsions:
REMARK  status: ('A' for Active; 'I' for Inactive)
REMARK    1  A    between atoms: C_1  and  C_2
REMARK    2  A    between atoms: C_2  and  C_4
REMARK    3  A    between atoms: C_2  and  N_10
REMARK    4  A    between atoms: N_10  and  C_11
REMARK                            x       y       z     vdW  Elec       q    Type
REMARK                         _______ _______ _______ _____ _____    ______ ____
ROOT
ATOM      1  C   UNL     1      -2.848   4.385  -2.307  0.00  0.00    +0.038 C 
ATOM      2  C   UNL     1      -3.262   3.490  -1.137  0.00  0.00    +0.154 C 
ENDROOT
BRANCH   2   3
ATOM      3  C   UNL     1      -4.721   3.709  -0.829  0.00  0.00    +0.240 C 
ATOM      4  O   UNL     1      -5.056   4.104   0.267  0.00  0.00    -0.273 OA
ATOM      5  N   UNL     1      -5.653   3.465  -1.772  0.00  0.00    -0.239 N 
ATOM      6  C   UNL     1      -6.958   3.661  -1.496  0.00  0.00    +0.303 C 
ATOM      7  O   UNL     1      -7.294   4.057  -0.398  0.00  0.00    -0.253 OA
ATOM      8  N   UNL     1      -7.889   3.417  -2.439  0.00  0.00    -0.313 N 
ATOM      9  H   UNL     1      -5.349   3.106  -2.766  0.00  0.00    +0.159 HD
ATOM     10  H   UNL     1      -8.954   3.577  -2.214  0.00  0.00    +0.146 HD
ATOM     11  H   UNL     1      -7.585   3.058  -3.433  0.00  0.00    +0.146 HD
ENDBRANCH   2   3
BRANCH   2  12
ATOM     12  N   UNL     1      -2.457   3.824   0.045  0.00  0.00    -0.331 N 
ATOM     13  H   UNL     1      -2.844   4.532   0.792  0.00  0.00    +0.147 HD
BRANCH  12  14
ATOM     14  C   UNL     1      -1.237   3.139   0.030  0.00  0.00    +0.065 A 
ATOM     15  C   UNL     1      -1.219   1.750   0.017  0.00  0.00    +0.064 A 
ATOM     16  C   UNL     1      -0.013   1.076   0.008  0.00  0.00    +0.037 A 
ATOM     17  C   UNL     1       1.177   1.783   0.000  0.00  0.00    +0.021 A 
ATOM     18  C   UNL     1       1.162   3.167   0.008  0.00  0.00    +0.037 A 
ATOM     19  C   UNL     1      -0.041   3.846   0.023  0.00  0.00    +0.064 A 
ATOM     20 CL   UNL     1      -0.058   5.582   0.032  0.00  0.00    -0.082 Cl
ATOM     21 BR   UNL     1       2.825   0.857  -0.020  0.00  0.00    -0.050 Br
ATOM     22 CL   UNL     1      -2.711   0.862   0.019  0.00  0.00    -0.082 Cl
ENDBRANCH  12  14
ENDBRANCH   2  12
TORSDOF 3
