REMARK  Name = ZINC22023899
REMARK  8 active torsions:
REMARK  status: ('A' for Active; 'I' for Inactive)
REMARK    1  A    between atoms: C_1  and  N_2
REMARK    2  A    between atoms: C_4  and  S_10
REMARK    3  A    between atoms: C_6  and  C_7
REMARK    4  A    between atoms: S_10  and  N_13
REMARK    5  A    between atoms: C_16  and  C_19
REMARK    6  A    between atoms: N_21  and  C_22
REMARK    7  A    between atoms: C_22  and  C_23
REMARK    8  A    between atoms: C_23  and  C_24
REMARK                            x       y       z     vdW  Elec       q    Type
REMARK                         _______ _______ _______ _____ _____    ______ ____
ROOT
ATOM      1  N   UNL     1      -1.488   6.082   1.369  0.00  0.00    -0.176 NA
ATOM      2  C   UNL     1      -2.189   5.620   0.164  0.00  0.00    +0.110 C 
ATOM      3  C   UNL     1      -2.236   4.088   0.178  0.00  0.00    +0.030 C 
ATOM      4  C   UNL     1      -0.816   3.540   0.328  0.00  0.00    +0.077 C 
ATOM      5  C   UNL     1      -0.220   4.017   1.655  0.00  0.00    +0.030 C 
ATOM      6  C   UNL     1      -0.150   5.547   1.657  0.00  0.00    +0.110 C 
ENDROOT
BRANCH   4   7
ATOM      7  C   UNL     1      -0.855   2.033   0.308  0.00  0.00    +0.216 C 
ATOM      8  O   UNL     1      -1.914   1.456   0.186  0.00  0.00    -0.276 OA
ATOM      9  N   UNL     1       0.288   1.328   0.426  0.00  0.00    -0.315 N 
ATOM     10  H   UNL     1       1.249   1.852   0.537  0.00  0.00    +0.149 HD
BRANCH   9  11
ATOM     11  C   UNL     1       0.250  -0.136   0.406  0.00  0.00    +0.108 C 
BRANCH  11  12
ATOM     12  C   UNL     1       1.671  -0.685   0.550  0.00  0.00    +0.049 C 
BRANCH  12  13
ATOM     13  C   UNL     1       1.632  -2.192   0.530  0.00  0.00    -0.072 C 
ATOM     14  C   UNL     1       1.834  -2.789  -0.601  0.00  0.00    -0.028 C 
ATOM     15  C   UNL     1       1.817  -4.279  -0.779  0.00  0.00    +0.027 C 
ATOM     16  C   UNL     1       1.956  -4.974   0.577  0.00  0.00    +0.004 C 
ATOM     17  C   UNL     1       0.943  -4.352   1.547  0.00  0.00    +0.005 C 
ATOM     18  C   UNL     1       1.367  -2.906   1.823  0.00  0.00    +0.030 C 
ENDBRANCH  12  13
ENDBRANCH  11  12
ENDBRANCH   9  11
ENDBRANCH   4   7
BRANCH   1  19
ATOM     19  S   UNL     1      -2.192   7.185   2.384  0.00  0.00    +0.062 S 
ATOM     20  O   UNL     1      -1.134   7.831   3.079  0.00  0.00    -0.153 OA
ATOM     21  O   UNL     1      -3.143   7.902   1.609  0.00  0.00    -0.153 OA
BRANCH  19  25
ATOM     22  C   UNL     1      -6.067   4.643   4.881  0.00  0.00    +0.149 C 
ATOM     23  N   UNL     1      -4.749   5.220   4.606  0.00  0.00    -0.344 N 
ATOM     24  C   UNL     1      -4.403   5.903   3.488  0.00  0.00    +0.114 A 
ATOM     25  C   UNL     1      -3.105   6.278   3.587  0.00  0.00    +0.124 A 
ATOM     26  C   UNL     1      -2.620   5.822   4.817  0.00  0.00    +0.061 A 
ATOM     27  C   UNL     1      -3.657   5.163   5.442  0.00  0.00    +0.106 A 
BRANCH  27  28
ATOM     28  C   UNL     1      -3.607   4.518   6.759  0.00  0.00    +0.258 C 
ATOM     29  O   UNL     1      -4.620   4.058   7.250  0.00  0.00    -0.269 OA
ATOM     30  N   UNL     1      -2.437   4.436   7.425  0.00  0.00    -0.324 N 
ATOM     31  H   UNL     1      -2.399   3.953   8.412  0.00  0.00    +0.145 HD
ATOM     32  H   UNL     1      -1.521   4.853   6.980  0.00  0.00    +0.145 HD
ENDBRANCH  27  28
ENDBRANCH  19  25
ENDBRANCH   1  19
TORSDOF 7
