REMARK  Name = ZINC04060043
REMARK  6 active torsions:
REMARK  status: ('A' for Active; 'I' for Inactive)
REMARK    1  A    between atoms: C_1  and  C_2
REMARK    2  A    between atoms: C_3  and  C_10
REMARK    3  A    between atoms: C_5  and  S_8
REMARK    4  A    between atoms: S_8  and  C_9
REMARK    5  A    between atoms: C_10  and  C_11
REMARK    6  A    between atoms: N_12  and  C_13
REMARK                            x       y       z     vdW  Elec       q    Type
REMARK                         _______ _______ _______ _____ _____    ______ ____
ROOT
ATOM      1  C   UNL     1      -0.011   0.041  -2.512  0.00  0.00    +0.104 C 
ENDROOT
BRANCH   1   4
ATOM      2  C   UNL     1      -0.018   1.503   0.010  0.00  0.00    +0.069 C 
ATOM      3  C   UNL     1       0.002  -0.004   0.002  0.00  0.00    +0.082 A 
ATOM      4  C   UNL     1       0.006  -0.699  -1.199  0.00  0.00    +0.072 A 
ATOM      5  N   UNL     1       0.025  -2.022  -1.172  0.00  0.00    -0.223 NA
ATOM      6  C   UNL     1       0.039  -2.650  -0.002  0.00  0.00    +0.209 A 
ATOM      7  N   UNL     1       0.034  -1.965   1.135  0.00  0.00    -0.122 NA
ATOM      8  N   UNL     1       0.022  -0.678   1.139  0.00  0.00    -0.150 NA
BRANCH   6   9
ATOM      9  S   UNL     1       0.064  -4.412   0.041  0.00  0.00    -0.088 S 
ATOM     10  C   UNL     1       0.078  -4.807   1.812  0.00  0.00    +0.093 C 
ENDBRANCH   6   9
ENDBRANCH   1   4
BRANCH   1  11
ATOM     11  C   UNL     1       1.404   0.307  -2.957  0.00  0.00    +0.090 C 
ATOM     12  N   UNL     1       1.798  -0.083  -4.123  0.00  0.00    -0.259 NA
BRANCH  12  13
ATOM     13  C   UNL     1       3.088   0.160  -4.528  0.00  0.00    +0.066 A 
ATOM     14  C   UNL     1       3.663   1.413  -4.318  0.00  0.00    +0.047 A 
ATOM     15  C   UNL     1       4.960   1.652  -4.728  0.00  0.00    +0.044 A 
ATOM     16  C   UNL     1       5.689   0.650  -5.345  0.00  0.00    +0.040 A 
ATOM     17  C   UNL     1       5.123  -0.595  -5.556  0.00  0.00    +0.044 A 
ATOM     18  C   UNL     1       3.829  -0.847  -5.146  0.00  0.00    +0.047 A 
ATOM     19 CL   UNL     1       6.045  -1.845  -6.332  0.00  0.00    -0.083 Cl
ATOM     20 CL   UNL     1       5.678   3.211  -4.467  0.00  0.00    -0.083 Cl
ENDBRANCH  12  13
ENDBRANCH   1  11
TORSDOF 4
