REMARK  Name = ZINC20884022
REMARK  10 active torsions:
REMARK  status: ('A' for Active; 'I' for Inactive)
REMARK    1  A    between atoms: C_1  and  C_2
REMARK    2  A    between atoms: C_2  and  C_3
REMARK    3  A    between atoms: C_2  and  O_4
REMARK    4  A    between atoms: O_4  and  C_5
REMARK    5  A    between atoms: C_8  and  C_11
REMARK    6  A    between atoms: C_16  and  C_26
REMARK    7  A    between atoms: C_29  and  O_34
REMARK    8  A    between atoms: C_30  and  O_32
REMARK    9  A    between atoms: O_32  and  C_33
REMARK   10  A    between atoms: O_34  and  C_35
REMARK                            x       y       z     vdW  Elec       q    Type
REMARK                         _______ _______ _______ _____ _____    ______ ____
ROOT
ATOM      1  C   UNL     1       6.367  -2.401   1.132  0.00  0.00    +0.032 C 
ATOM      2  C   UNL     1       5.966  -0.929   1.216  0.00  0.00    +0.059 C 
ATOM      3  C   UNL     1       4.518  -0.761   0.785  0.00  0.00    +0.017 C 
ATOM      4  C   UNL     1       3.620  -1.731   1.025  0.00  0.00    +0.036 C 
ATOM      5  C   UNL     1       2.151  -1.685   0.677  0.00  0.00    +0.136 C 
ATOM      6  N   UNL     1       1.778  -0.594  -0.199  0.00  0.00    -0.331 N 
ATOM      7  C   UNL     1       1.896   0.732   0.213  0.00  0.00    +0.049 A 
ATOM      8  C   UNL     1       0.780   1.528   0.416  0.00  0.00    +0.025 A 
ATOM      9  C   UNL     1       0.941   2.820   0.885  0.00  0.00    +0.002 A 
ATOM     10  C   UNL     1       2.204   3.311   1.164  0.00  0.00    +0.002 A 
ATOM     11  C   UNL     1       3.322   2.520   0.959  0.00  0.00    +0.025 A 
ATOM     12  C   UNL     1       3.163   1.237   0.465  0.00  0.00    +0.052 A 
ATOM     13  N   UNL     1       4.246   0.416   0.167  0.00  0.00    -0.316 N 
ATOM     14  C   UNL     1       4.020  -2.933   1.655  0.00  0.00    +0.163 C 
ATOM     15  O   UNL     1       3.183  -3.787   1.873  0.00  0.00    -0.292 OA
ATOM     16  C   UNL     1       5.439  -3.191   2.063  0.00  0.00    +0.088 C 
ATOM     17  H   UNL     1       1.393  -0.805  -1.207  0.00  0.00    +0.147 HD
ATOM     18  H   UNL     1       4.905   0.783  -0.633  0.00  0.00    +0.152 HD
ENDROOT
BRANCH   1  22
ATOM     19  C   UNL     1      10.425  -2.871   2.384  0.00  0.00    +0.121 A 
ATOM     20  C   UNL     1      10.046  -3.242   1.102  0.00  0.00    +0.046 A 
ATOM     21  C   UNL     1       8.733  -3.089   0.700  0.00  0.00    +0.007 A 
ATOM     22  C   UNL     1       7.798  -2.566   1.573  0.00  0.00    -0.043 A 
ATOM     23  C   UNL     1       8.174  -2.190   2.849  0.00  0.00    +0.007 A 
ATOM     24  C   UNL     1       9.485  -2.346   3.258  0.00  0.00    +0.046 A 
BRANCH  19  25
ATOM     25  O   UNL     1      11.716  -3.020   2.782  0.00  0.00    -0.489 OA
BRANCH  25  27
ATOM     26  C   UNL     1      13.162  -2.657   0.880  0.00  0.00    +0.051 C 
ATOM     27  C   UNL     1      12.603  -3.677   1.874  0.00  0.00    +0.167 C 
ATOM     28  C   UNL     1      13.755  -4.311   2.656  0.00  0.00    +0.051 C 
ENDBRANCH  25  27
ENDBRANCH  19  25
ENDBRANCH   1  22
BRANCH   5  29
ATOM     29  C   UNL     1       1.364  -1.562   1.956  0.00  0.00    -0.019 A 
ATOM     30  C   UNL     1       1.474  -0.419   2.727  0.00  0.00    +0.009 A 
ATOM     31  C   UNL     1       0.753  -0.302   3.901  0.00  0.00    +0.050 A 
ATOM     32  C   UNL     1      -0.081  -1.330   4.308  0.00  0.00    +0.162 A 
ATOM     33  C   UNL     1      -0.192  -2.480   3.532  0.00  0.00    +0.162 A 
ATOM     34  C   UNL     1       0.529  -2.590   2.353  0.00  0.00    +0.055 A 
BRANCH  33  35
ATOM     35  O   UNL     1      -1.010  -3.492   3.927  0.00  0.00    -0.491 OA
ATOM     36  C   UNL     1      -1.074  -4.642   3.081  0.00  0.00    +0.277 C 
ENDBRANCH  33  35
BRANCH  32  37
ATOM     37  O   UNL     1      -0.791  -1.216   5.462  0.00  0.00    -0.491 OA
ATOM     38  C   UNL     1      -0.628  -0.007   6.207  0.00  0.00    +0.277 C 
ENDBRANCH  32  37
ENDBRANCH   5  29
TORSDOF 6
