REMARK  Name = ZINC59170561
REMARK  6 active torsions:
REMARK  status: ('A' for Active; 'I' for Inactive)
REMARK    1  A    between atoms: C_1  and  C_2
REMARK    2  A    between atoms: C_9  and  C_23
REMARK    3  A    between atoms: N_11  and  C_12
REMARK    4  A    between atoms: C_15  and  S_18
REMARK    5  A    between atoms: S_18  and  N_21
REMARK    6  A    between atoms: N_25  and  C_26
REMARK                            x       y       z     vdW  Elec       q    Type
REMARK                         _______ _______ _______ _____ _____    ______ ____
ROOT
ATOM      1  C   UNL     1      -1.283   1.238   0.052  0.00  0.00    +0.044 C 
ATOM      2  C   UNL     1      -0.804  -0.190  -0.006  0.00  0.00    -0.050 A 
ATOM      3  C   UNL     1      -0.087  -0.630  -1.109  0.00  0.00    +0.007 A 
ATOM      4  C   UNL     1       0.360  -1.934  -1.183  0.00  0.00    +0.047 A 
ATOM      5  C   UNL     1       0.092  -2.815  -0.145  0.00  0.00    +0.137 A 
ATOM      6  C   UNL     1      -0.632  -2.365   0.975  0.00  0.00    +0.018 A 
ATOM      7  C   UNL     1      -1.074  -1.038   1.031  0.00  0.00    +0.015 A 
ATOM      8  C   UNL     1      -0.905  -3.294   2.074  0.00  0.00    +0.030 A 
ATOM      9  C   UNL     1      -0.207  -4.495   2.083  0.00  0.00    +0.098 A 
ATOM     10  C   UNL     1       0.748  -4.726   0.981  0.00  0.00    +0.212 A 
ATOM     11  N   UNL     1       1.789  -5.514   1.140  0.00  0.00    -0.325 N 
ATOM     12  O   UNL     1       0.519  -4.100  -0.202  0.00  0.00    -0.439 OA
ATOM     13  H   UNL     1       1.994  -5.875   2.017  0.00  0.00    +0.169 HD
ENDROOT
BRANCH  11  14
ATOM     14  C   UNL     1       2.582  -5.825   0.070  0.00  0.00    +0.042 A 
ATOM     15  C   UNL     1       2.004  -6.180  -1.152  0.00  0.00    +0.027 A 
ATOM     16  C   UNL     1       2.810  -6.491  -2.227  0.00  0.00    +0.030 A 
ATOM     17  C   UNL     1       4.187  -6.453  -2.098  0.00  0.00    +0.105 A 
ATOM     18  C   UNL     1       4.766  -6.103  -0.891  0.00  0.00    +0.030 A 
ATOM     19  C   UNL     1       3.973  -5.783   0.191  0.00  0.00    +0.027 A 
BRANCH  17  20
ATOM     20  S   UNL     1       5.208  -6.853  -3.477  0.00  0.00    +0.056 S 
ATOM     21  O   UNL     1       6.459  -7.272  -2.948  0.00  0.00    -0.153 OA
ATOM     22  O   UNL     1       4.429  -7.675  -4.335  0.00  0.00    -0.153 OA
BRANCH  20  23
ATOM     23  N   UNL     1       5.491  -5.444  -4.301  0.00  0.00    -0.204 NA
ATOM     24  H   UNL     1       5.109  -4.611  -3.984  0.00  0.00    +0.144 HD
ATOM     25  H   UNL     1       6.039  -5.452  -5.101  0.00  0.00    +0.144 HD
ENDBRANCH  20  23
ENDBRANCH  17  20
ENDBRANCH  11  14
BRANCH   9  26
ATOM     26  C   UNL     1      -0.410  -5.494   3.145  0.00  0.00    +0.253 C 
ATOM     27  O   UNL     1      -1.109  -5.228   4.105  0.00  0.00    -0.270 OA
ATOM     28  N   UNL     1       0.177  -6.704   3.054  0.00  0.00    -0.280 N 
ATOM     29  H   UNL     1       0.778  -6.897   2.318  0.00  0.00    +0.155 HD
BRANCH  28  30
ATOM     30  C   UNL     1      -0.079  -7.680   4.023  0.00  0.00    +0.052 A 
ATOM     31  C   UNL     1      -0.412  -7.306   5.318  0.00  0.00    +0.025 A 
ATOM     32  C   UNL     1      -0.664  -8.272   6.272  0.00  0.00    +0.002 A 
ATOM     33  C   UNL     1      -0.585  -9.612   5.939  0.00  0.00    +0.002 A 
ATOM     34  C   UNL     1      -0.254  -9.989   4.651  0.00  0.00    +0.022 A 
ATOM     35  C   UNL     1      -0.006  -9.027   3.690  0.00  0.00    +0.062 A 
ATOM     36 CL   UNL     1       0.403  -9.501   2.070  0.00  0.00    -0.082 Cl
ENDBRANCH  28  30
ENDBRANCH   9  26
TORSDOF 5
