REMARK  Name = ZINC37746742
REMARK  3 active torsions:
REMARK  status: ('A' for Active; 'I' for Inactive)
REMARK    1  A    between atoms: C_1  and  C_2
REMARK    2  A    between atoms: C_2  and  C_4
REMARK    3  A    between atoms: N_12  and  C_15
REMARK                            x       y       z     vdW  Elec       q    Type
REMARK                         _______ _______ _______ _____ _____    ______ ____
ROOT
ATOM      1  C   UNL     1       2.551  -0.385   2.680  0.00  0.00    +0.238 C 
ATOM      2  O   UNL     1       1.965   0.016   1.697  0.00  0.00    -0.274 OA
ATOM      3  N   UNL     1       2.035  -1.397   3.406  0.00  0.00    -0.239 N 
ATOM      4  C   UNL     1       0.869  -1.964   3.039  0.00  0.00    +0.309 C 
ATOM      5  O   UNL     1       0.235  -1.502   2.110  0.00  0.00    -0.252 OA
ATOM      6  N   UNL     1       0.405  -3.041   3.702  0.00  0.00    -0.282 N 
ATOM      7  C   UNL     1      -0.803  -3.740   3.242  0.00  0.00    +0.128 C 
ATOM      8  C   UNL     1      -0.463  -5.221   3.030  0.00  0.00    +0.124 C 
ATOM      9  N   UNL     1       0.231  -5.718   4.226  0.00  0.00    -0.325 N 
ATOM     10  C   UNL     1       1.440  -5.020   4.686  0.00  0.00    +0.124 C 
ATOM     11  C   UNL     1       1.102  -3.543   4.895  0.00  0.00    +0.128 C 
ATOM     12  H   UNL     1       2.504  -1.718   4.192  0.00  0.00    +0.159 HD
ENDROOT
BRANCH   9  13
ATOM     13  C   UNL     1      -0.250  -6.837   4.914  0.00  0.00    +0.065 A 
ATOM     14  C   UNL     1       0.191  -8.108   4.571  0.00  0.00    +0.026 A 
ATOM     15  C   UNL     1      -0.286  -9.211   5.252  0.00  0.00    +0.002 A 
ATOM     16  C   UNL     1      -1.201  -9.051   6.276  0.00  0.00    +0.003 A 
ATOM     17  C   UNL     1      -1.644  -7.787   6.622  0.00  0.00    +0.040 A 
ATOM     18  C   UNL     1      -1.166  -6.678   5.948  0.00  0.00    +0.144 A 
ATOM     19  F   UNL     1      -1.594  -5.443   6.290  0.00  0.00    -0.204 F 
ENDBRANCH   9  13
BRANCH   1  21
ATOM     20  C   UNL     1       4.745   0.428   1.859  0.00  0.00    +0.034 C 
ATOM     21  C   UNL     1       3.855   0.248   3.090  0.00  0.00    +0.163 C 
ATOM     22 CL   UNL     1       3.533   1.857   3.839  0.00  0.00    -0.112 Cl
ENDBRANCH   1  21
TORSDOF 2
