REMARK  Name = ZINC15022302
REMARK  14 active torsions:
REMARK  status: ('A' for Active; 'I' for Inactive)
REMARK    1  A    between atoms: C_1  and  O_2
REMARK    2  A    between atoms: O_2  and  C_3
REMARK    3  A    between atoms: C_6  and  O_9
REMARK    4  A    between atoms: O_9  and  C_10
REMARK    5  A    between atoms: C_10  and  C_11
REMARK    6  A    between atoms: C_11  and  C_13
REMARK    7  A    between atoms: C_11  and  O_33
REMARK    8  A    between atoms: C_13  and  N_66
REMARK    9  A    between atoms: C_14  and  N_66
REMARK   10  A    between atoms: C_19  and  C_20
REMARK   11  A    between atoms: C_19  and  N_69
REMARK   12  A    between atoms: C_20  and  C_22
REMARK   13  A    between atoms: C_20  and  O_32
REMARK   14  A    between atoms: C_22  and  N_23
REMARK                            x       y       z     vdW  Elec       q    Type
REMARK                         _______ _______ _______ _____ _____    ______ ____
ROOT
ATOM      1  C   UNL     1      -4.839  -3.397   5.303  0.00  0.00    -0.075 C 
ATOM      2  C   UNL     1      -4.190  -4.370   4.315  0.00  0.00    -0.034 C 
ATOM      3  C   UNL     1      -4.306  -3.805   2.898  0.00  0.00    -0.080 C 
ATOM      4  C   UNL     1      -4.275  -1.533   3.741  0.00  0.00    -0.080 C 
ATOM      5  C   UNL     1      -4.158  -2.031   5.183  0.00  0.00    -0.034 C 
ATOM      6  N   UNL     1      -3.610  -2.501   2.843  0.00  0.00    +0.381 N 
ATOM      7  H   UNL     1      -2.639  -2.629   3.152  0.00  0.00    -0.082 HD
ENDROOT
BRANCH   1   8
ATOM      8  N   UNL     1      -4.671  -3.914   6.674  0.00  0.00    +0.383 N 
ATOM      9  H   UNL     1      -4.725  -4.939   6.659  0.00  0.00    -0.085 HD
ATOM     10  H   UNL     1      -3.755  -3.624   7.036  0.00  0.00    -0.085 HD
BRANCH   8  11
ATOM     11  C   UNL     1      -5.731  -3.385   7.554  0.00  0.00    -0.047 C 
BRANCH  11  12
ATOM     12  C   UNL     1      -5.531  -3.937   8.967  0.00  0.00    +0.135 C 
BRANCH  12  13
ATOM     13  O   UNL     1      -4.305  -3.438   9.504  0.00  0.00    -0.390 OA
ATOM     14  H   UNL     1      -4.266  -2.474   9.566  0.00  0.00    +0.210 HD
ENDBRANCH  12  13
BRANCH  12  15
ATOM     15  C   UNL     1      -6.695  -3.494   9.856  0.00  0.00    +0.258 C 
BRANCH  15  16
ATOM     16  O   UNL     1      -6.570  -4.104  11.142  0.00  0.00    -0.489 OA
BRANCH  16  20
ATOM     17  C   UNL     1      -9.487  -3.219  13.927  0.00  0.00    +0.120 A 
ATOM     18  C   UNL     1      -8.447  -4.075  14.259  0.00  0.00    +0.049 A 
ATOM     19  C   UNL     1      -7.471  -4.370  13.328  0.00  0.00    +0.049 A 
ATOM     20  C   UNL     1      -7.531  -3.813  12.059  0.00  0.00    +0.121 A 
ATOM     21  C   UNL     1      -8.568  -2.953  11.728  0.00  0.00    +0.049 A 
ATOM     22  C   UNL     1      -9.547  -2.661  12.659  0.00  0.00    +0.049 A 
BRANCH  17  24
ATOM     23  C   UNL     1     -11.489  -2.040  14.433  0.00  0.00    +0.277 C 
ATOM     24  O   UNL     1     -10.448  -2.928  14.844  0.00  0.00    -0.495 OA
ENDBRANCH  17  24
ENDBRANCH  16  20
ENDBRANCH  15  16
ENDBRANCH  12  15
ENDBRANCH  11  12
ENDBRANCH   8  11
ENDBRANCH   1   8
BRANCH   6  25
ATOM     25  C   UNL     1      -3.610  -1.987   1.458  0.00  0.00    -0.045 C 
BRANCH  25  26
ATOM     26  C   UNL     1      -2.995  -0.586   1.446  0.00  0.00    +0.118 C 
BRANCH  26  27
ATOM     27  O   UNL     1      -1.674  -0.641   1.987  0.00  0.00    -0.392 OA
ATOM     28  H   UNL     1      -1.073  -1.220   1.499  0.00  0.00    +0.210 HD
ENDBRANCH  26  27
BRANCH  26  29
ATOM     29  C   UNL     1      -2.937  -0.067   0.009  0.00  0.00    +0.151 C 
BRANCH  29  30
ATOM     30  N   UNL     1      -2.460   1.319   0.009  0.00  0.00    -0.344 N 
ATOM     31  C   UNL     1      -3.264   2.426  -0.001  0.00  0.00    +0.087 A 
ATOM     32  C   UNL     1      -2.511   3.538   0.013  0.00  0.00    +0.027 A 
ATOM     33  C   UNL     1      -1.111   3.107   0.019  0.00  0.00    -0.000 A 
ATOM     34  C   UNL     1      -1.137   1.700   0.018  0.00  0.00    +0.049 A 
ATOM     35  C   UNL     1       0.062   0.996   0.030  0.00  0.00    +0.026 A 
ATOM     36  C   UNL     1       1.258   1.681   0.032  0.00  0.00    +0.002 A 
ATOM     37  C   UNL     1       1.278   3.069   0.028  0.00  0.00    +0.001 A 
ATOM     38  C   UNL     1       0.112   3.781   0.021  0.00  0.00    +0.010 A 
ENDBRANCH  29  30
ENDBRANCH  26  29
ENDBRANCH  25  26
ENDBRANCH   6  25
TORSDOF 13
