REMARK  Name = ZINC08198738
REMARK  6 active torsions:
REMARK  status: ('A' for Active; 'I' for Inactive)
REMARK    1  A    between atoms: C_1  and  C_2
REMARK    2  A    between atoms: C_2  and  C_3
REMARK    3  A    between atoms: C_12  and  O_25
REMARK    4  A    between atoms: C_14  and  C_17
REMARK    5  A    between atoms: C_20  and  O_23
REMARK    6  A    between atoms: O_23  and  C_24
REMARK                            x       y       z     vdW  Elec       q    Type
REMARK                         _______ _______ _______ _____ _____    ______ ____
ROOT
ATOM      1  C   UNL     1      -0.019   1.527   0.010  0.00  0.00    -0.006 C 
ATOM      2  C   UNL     1       0.002  -0.004   0.002  0.00  0.00    +0.008 C 
ATOM      3  C   UNL     1       0.510  -0.525   1.347  0.00  0.00    +0.037 C 
ATOM      4  C   UNL     1       1.837   0.151   1.668  0.00  0.00    -0.023 A 
ATOM      5  C   UNL     1       2.202   1.293   1.040  0.00  0.00    -0.004 A 
ATOM      6  S   UNL     1       3.787   1.702   1.724  0.00  0.00    -0.078 S 
ATOM      7  C   UNL     1       3.954   0.393   2.812  0.00  0.00    +0.080 A 
ATOM      8  C   UNL     1       2.786  -0.361   2.641  0.00  0.00    +0.068 A 
ATOM      9  C   UNL     1       2.636  -1.580   3.477  0.00  0.00    +0.220 C 
ATOM     10  N   UNL     1       3.678  -1.988   4.149  0.00  0.00    -0.223 NA
ATOM     11  C   UNL     1       5.005  -1.390   4.067  0.00  0.00    +0.224 C 
ATOM     12  N   UNL     1       4.937   0.037   3.704  0.00  0.00    -0.313 N 
ATOM     13  C   UNL     1       1.429   2.040  -0.001  0.00  0.00    +0.046 C 
ATOM     14  H   UNL     1       5.649   0.751   4.143  0.00  0.00    +0.149 HD
ENDROOT
BRANCH  11  15
ATOM     15  C   UNL     1       5.811  -2.124   3.027  0.00  0.00    -0.005 A 
ATOM     16  C   UNL     1       6.788  -1.456   2.312  0.00  0.00    +0.011 A 
ATOM     17  C   UNL     1       7.532  -2.127   1.362  0.00  0.00    +0.046 A 
ATOM     18  C   UNL     1       7.291  -3.472   1.117  0.00  0.00    +0.120 A 
ATOM     19  C   UNL     1       6.307  -4.139   1.832  0.00  0.00    +0.046 A 
ATOM     20  C   UNL     1       5.569  -3.464   2.785  0.00  0.00    +0.011 A 
BRANCH  18  21
ATOM     21  O   UNL     1       8.018  -4.133   0.178  0.00  0.00    -0.495 OA
ATOM     22  C   UNL     1       9.014  -3.383  -0.518  0.00  0.00    +0.277 C 
ENDBRANCH  18  21
ENDBRANCH  11  15
BRANCH   1  24
ATOM     23  C   UNL     1      -0.882   3.560  -1.158  0.00  0.00    +0.004 C 
ATOM     24  C   UNL     1      -0.753   2.037  -1.231  0.00  0.00    +0.000 C 
ENDBRANCH   1  24
BRANCH   9  25
ATOM     25  O   UNL     1       1.460  -2.245   3.540  0.00  0.00    -0.492 OA
ATOM     26  H   UNL     1       1.369  -3.145   4.165  0.00  0.00    +0.294 HD
ENDBRANCH   9  25
TORSDOF 4
