REMARK  Name = ZINC59045078
REMARK  7 active torsions:
REMARK  status: ('A' for Active; 'I' for Inactive)
REMARK    1  A    between atoms: C_5  and  C_7
REMARK    2  A    between atoms: C_7  and  N_8
REMARK    3  A    between atoms: C_9  and  C_11
REMARK    4  A    between atoms: C_11  and  S_12
REMARK    5  A    between atoms: S_12  and  C_13
REMARK    6  A    between atoms: C_16  and  C_19
REMARK    7  A    between atoms: N_17  and  N_18
REMARK                            x       y       z     vdW  Elec       q    Type
REMARK                         _______ _______ _______ _____ _____    ______ ____
ROOT
ATOM      1  C   UNL     1       2.163  -6.757   4.629  0.00  0.00    +0.209 A 
ATOM      2  N   UNL     1       2.332  -5.922   5.630  0.00  0.00    -0.121 NA
ATOM      3  N   UNL     1       2.547  -6.574   6.717  0.00  0.00    -0.127 NA
ATOM      4  C   UNL     1       2.528  -7.864   6.476  0.00  0.00    +0.182 A 
ATOM      5  N   UNL     1       2.276  -8.021   5.133  0.00  0.00    -0.224 N 
ENDROOT
BRANCH   4   6
ATOM      6  C   UNL     1       2.732  -8.945   7.464  0.00  0.00    +0.021 A 
ATOM      7  C   UNL     1       3.002 -10.245   7.034  0.00  0.00    +0.013 A 
ATOM      8  C   UNL     1       3.192 -11.250   7.960  0.00  0.00    +0.016 A 
ATOM      9  C   UNL     1       3.115 -10.970   9.314  0.00  0.00    +0.018 A 
ATOM     10  C   UNL     1       2.847  -9.683   9.747  0.00  0.00    +0.016 A 
ATOM     11  C   UNL     1       2.662  -8.668   8.830  0.00  0.00    +0.013 A 
ATOM     12 BR   UNL     1       3.376 -12.353  10.578  0.00  0.00    -0.050 Br
ENDBRANCH   4   6
BRANCH   5  13
ATOM     13  N   UNL     1       2.164  -9.197   4.446  0.00  0.00    -0.295 N 
ATOM     14  H   UNL     1       3.060  -9.495   4.091  0.00  0.00    +0.163 HD
ATOM     15  H   UNL     1       1.746  -9.913   5.020  0.00  0.00    +0.163 HD
ENDBRANCH   5  13
BRANCH   1  16
ATOM     16  S   UNL     1       1.844  -6.325   2.951  0.00  0.00    -0.075 S 
BRANCH  16  17
ATOM     17  C   UNL     1       1.819  -4.511   2.961  0.00  0.00    +0.173 C 
BRANCH  17  19
ATOM     18  N   UNL     1       1.489  -2.679   1.333  0.00  0.00    -0.310 N 
ATOM     19  C   UNL     1       1.552  -4.005   1.567  0.00  0.00    +0.224 C 
ATOM     20  O   UNL     1       1.393  -4.790   0.657  0.00  0.00    -0.275 OA
ATOM     21  H   UNL     1       1.615  -2.051   2.062  0.00  0.00    +0.149 HD
BRANCH  18  22
ATOM     22  C   UNL     1       1.229  -2.186  -0.022  0.00  0.00    +0.141 C 
BRANCH  22  27
ATOM     23  C   UNL     1      -0.017   1.378   0.010  0.00  0.00    +0.000 A 
ATOM     24  C   UNL     1       1.171   2.086   0.002  0.00  0.00    +0.001 A 
ATOM     25  C   UNL     1       2.377   1.412  -0.013  0.00  0.00    +0.020 A 
ATOM     26  C   UNL     1       2.397   0.029  -0.021  0.00  0.00    +0.046 A 
ATOM     27  C   UNL     1       1.208  -0.679  -0.013  0.00  0.00    -0.012 A 
ATOM     28  C   UNL     1       0.002  -0.004   0.002  0.00  0.00    +0.006 A 
ATOM     29 CL   UNL     1       3.912  -0.818  -0.041  0.00  0.00    -0.083 Cl
ENDBRANCH  22  27
ENDBRANCH  18  22
ENDBRANCH  17  19
ENDBRANCH  16  17
ENDBRANCH   1  16
TORSDOF 7
