REMARK  Name = ZINC40688836
REMARK  7 active torsions:
REMARK  status: ('A' for Active; 'I' for Inactive)
REMARK    1  A    between atoms: C_1  and  C_2
REMARK    2  A    between atoms: C_4  and  C_26
REMARK    3  A    between atoms: C_7  and  N_8
REMARK    4  A    between atoms: C_10  and  N_24
REMARK    5  A    between atoms: C_11  and  N_15
REMARK    6  A    between atoms: C_26  and  C_28
REMARK    7  A    between atoms: C_26  and  C_30
REMARK                            x       y       z     vdW  Elec       q    Type
REMARK                         _______ _______ _______ _____ _____    ______ ____
ROOT
ATOM      1  N   UNL     1       1.251  -0.950   2.823  0.00  0.00    -0.298 N 
ATOM      2  C   UNL     1       1.298  -1.815   3.909  0.00  0.00    +0.149 A 
ATOM      3  C   UNL     1       1.633  -1.341   5.182  0.00  0.00    +0.110 A 
ATOM      4  C   UNL     1       1.665  -2.252   6.237  0.00  0.00    +0.182 A 
ATOM      5  N   UNL     1       1.378  -3.528   5.995  0.00  0.00    -0.215 NA
ATOM      6  C   UNL     1       1.067  -3.935   4.781  0.00  0.00    +0.225 A 
ATOM      7  N   UNL     1       1.020  -3.107   3.757  0.00  0.00    -0.219 NA
ATOM      8  H   UNL     1       1.365   0.004   2.957  0.00  0.00    +0.154 HD
ENDROOT
BRANCH   4   9
ATOM      9  N   UNL     1       1.993  -1.831   7.527  0.00  0.00    -0.192 N 
ATOM     10  C   UNL     1       1.319  -2.135   8.689  0.00  0.00    +0.096 A 
ATOM     11  C   UNL     1       0.187  -2.888   8.980  0.00  0.00    +0.030 A 
ATOM     12  C   UNL     1      -0.242  -2.998  10.284  0.00  0.00    +0.002 A 
ATOM     13  C   UNL     1       0.448  -2.362  11.308  0.00  0.00    +0.002 A 
ATOM     14  C   UNL     1       1.560  -1.619  11.043  0.00  0.00    +0.032 A 
ATOM     15  C   UNL     1       2.018  -1.492   9.725  0.00  0.00    +0.113 A 
ATOM     16  N   UNL     1       3.064  -0.838   9.168  0.00  0.00    -0.129 NA
ATOM     17  N   UNL     1       3.078  -1.022   7.895  0.00  0.00    -0.058 NA
ENDBRANCH   4   9
BRANCH   1  24
ATOM     18  C   UNL     1      -0.023   0.732   0.915  0.00  0.00    +0.045 C 
ATOM     19  C   UNL     1       0.421  -0.667   0.574  0.00  0.00    -0.029 A 
ATOM     20  C   UNL     1       0.218  -1.166  -0.698  0.00  0.00    +0.011 A 
ATOM     21  C   UNL     1       0.625  -2.449  -1.013  0.00  0.00    -0.008 A 
ATOM     22  C   UNL     1       1.236  -3.239  -0.054  0.00  0.00    +0.047 A 
ATOM     23  C   UNL     1       1.442  -2.746   1.220  0.00  0.00    +0.043 A 
ATOM     24  C   UNL     1       1.040  -1.454   1.537  0.00  0.00    +0.037 A 
ATOM     25 CL   UNL     1       1.745  -4.850  -0.453  0.00  0.00    -0.083 Cl
BRANCH  21  26
ATOM     26  C   UNL     1       0.402  -2.989  -2.402  0.00  0.00    +0.153 C 
BRANCH  26  27
ATOM     27  C   UNL     1      -1.077  -3.107  -2.664  0.00  0.00    -0.026 A 
ATOM     28  C   UNL     1      -1.842  -1.967  -2.829  0.00  0.00    +0.006 A 
ATOM     29  C   UNL     1      -3.199  -2.074  -3.069  0.00  0.00    +0.020 A 
ATOM     30  C   UNL     1      -3.792  -3.322  -3.144  0.00  0.00    +0.041 A 
ATOM     31  C   UNL     1      -3.026  -4.462  -2.978  0.00  0.00    +0.020 A 
ATOM     32  C   UNL     1      -1.668  -4.354  -2.744  0.00  0.00    +0.006 A 
ATOM     33 CL   UNL     1      -5.496  -3.458  -3.445  0.00  0.00    -0.084 Cl
ENDBRANCH  26  27
BRANCH  26  34
ATOM     34  C   UNL     1       1.004  -2.075  -3.386  0.00  0.00    +0.075 C 
ATOM     35  N   UNL     1       1.468  -1.370  -4.146  0.00  0.00    -0.196 NA
ENDBRANCH  26  34
ENDBRANCH  21  26
ENDBRANCH   1  24
BRANCH   3  36
ATOM     36  N   UNL     1       1.928   0.013   5.391  0.00  0.00    -0.352 N 
ATOM     37  H   UNL     1       1.986   0.620   4.635  0.00  0.00    +0.143 HD
ATOM     38  H   UNL     1       2.075   0.345   6.290  0.00  0.00    +0.143 HD
ENDBRANCH   3  36
TORSDOF 6
