REMARK  Name = ZINC39606943
REMARK  8 active torsions:
REMARK  status: ('A' for Active; 'I' for Inactive)
REMARK    1  A    between atoms: C_1  and  C_2
REMARK    2  A    between atoms: C_9  and  C_14
REMARK    3  A    between atoms: C_14  and  O_16
REMARK    4  A    between atoms: O_16  and  C_17
REMARK    5  A    between atoms: C_17  and  C_19
REMARK    6  A    between atoms: C_17  and  C_20
REMARK    7  A    between atoms: N_22  and  C_23
REMARK    8  A    between atoms: C_26  and  N_29
REMARK                            x       y       z     vdW  Elec       q    Type
REMARK                         _______ _______ _______ _____ _____    ______ ____
ROOT
ATOM      1  C   UNL     1       8.875   0.912   0.515  0.00  0.00    +0.259 C 
ATOM      2  C   UNL     1       9.081   2.398   0.217  0.00  0.00    +0.062 C 
ENDROOT
BRANCH   1   3
ATOM      3  C   UNL     1       9.828   0.480   1.600  0.00  0.00    +0.258 C 
ATOM      4  O   UNL     1       9.398   0.031   2.641  0.00  0.00    -0.271 OA
ATOM      5  N   UNL     1      11.158   0.594   1.413  0.00  0.00    -0.282 N 
ATOM      6  H   UNL     1      11.504   0.892   0.557  0.00  0.00    +0.155 HD
BRANCH   5   7
ATOM      7  C   UNL     1      12.041   0.280   2.455  0.00  0.00    +0.034 A 
ATOM      8  C   UNL     1      13.214   1.007   2.613  0.00  0.00    +0.025 A 
ATOM      9  C   UNL     1      14.084   0.699   3.640  0.00  0.00    +0.025 A 
ATOM     10  C   UNL     1      13.786  -0.338   4.514  0.00  0.00    +0.030 A 
ATOM     11  C   UNL     1      12.614  -1.065   4.356  0.00  0.00    +0.025 A 
ATOM     12  C   UNL     1      11.741  -0.753   3.332  0.00  0.00    +0.025 A 
BRANCH  10  13
ATOM     13  N   UNL     1      14.668  -0.651   5.554  0.00  0.00    -0.330 N 
ATOM     14  C   UNL     1      14.433  -1.824   6.408  0.00  0.00    +0.105 C 
ATOM     15  C   UNL     1      15.695  -2.692   6.411  0.00  0.00    +0.019 C 
ATOM     16  C   UNL     1      16.895  -1.839   6.830  0.00  0.00    +0.003 C 
ATOM     17  C   UNL     1      17.093  -0.704   5.824  0.00  0.00    +0.019 C 
ATOM     18  C   UNL     1      15.850   0.184   5.811  0.00  0.00    +0.105 C 
ENDBRANCH  10  13
ENDBRANCH   5   7
ENDBRANCH   1   3
BRANCH   1  19
ATOM     19  O   UNL     1       7.531   0.695   0.948  0.00  0.00    -0.449 OA
BRANCH  19  20
ATOM     20  C   UNL     1       6.618   0.420  -0.005  0.00  0.00    +0.340 C 
ATOM     21  O   UNL     1       6.955   0.367  -1.172  0.00  0.00    -0.245 OA
BRANCH  20  29
ATOM     22  C   UNL     1      -0.014   1.593   0.016  0.00  0.00    +0.029 C 
ATOM     23  C   UNL     1      -0.005   0.063   0.034  0.00  0.00    +0.134 C 
ATOM     24  C   UNL     1       0.698  -0.453  -1.192  0.00  0.00    +0.230 C 
ATOM     25  O   UNL     1       0.025  -0.741  -2.159  0.00  0.00    -0.274 OA
ATOM     26  N   UNL     1       2.016  -0.609  -1.274  0.00  0.00    -0.284 N 
ATOM     27  C   UNL     1       2.944  -0.322  -0.276  0.00  0.00    +0.048 A 
ATOM     28  C   UNL     1       4.267  -0.100  -0.622  0.00  0.00    +0.039 A 
ATOM     29  C   UNL     1       5.212   0.185   0.367  0.00  0.00    +0.061 A 
ATOM     30  C   UNL     1       4.826   0.246   1.710  0.00  0.00    +0.016 A 
ATOM     31  C   UNL     1       3.511   0.027   2.055  0.00  0.00    +0.017 A 
ATOM     32  C   UNL     1       2.571  -0.253   1.071  0.00  0.00    +0.030 A 
ATOM     33  S   UNL     1       0.879  -0.524   1.511  0.00  0.00    -0.111 S 
ATOM     34  H   UNL     1       2.365  -0.956  -2.110  0.00  0.00    +0.155 HD
ENDBRANCH  20  29
ENDBRANCH  19  20
ENDBRANCH   1  19
TORSDOF 6
