REMARK  Name = ZINC12165453
REMARK  8 active torsions:
REMARK  status: ('A' for Active; 'I' for Inactive)
REMARK    1  A    between atoms: C_1  and  O_2
REMARK    2  A    between atoms: O_2  and  C_3
REMARK    3  A    between atoms: C_5  and  N_26
REMARK    4  A    between atoms: C_18  and  C_19
REMARK    5  A    between atoms: C_18  and  N_63
REMARK    6  A    between atoms: C_24  and  O_25
REMARK    7  A    between atoms: C_27  and  C_29
REMARK    8  A    between atoms: C_29  and  C_30
REMARK                            x       y       z     vdW  Elec       q    Type
REMARK                         _______ _______ _______ _____ _____    ______ ____
ROOT
ATOM      1  C   UNL     1       2.949  -0.504   0.159  0.00  0.00    +0.153 C 
ATOM      2  C   UNL     1       3.622  -1.741   0.794  0.00  0.00    +0.133 C 
ATOM      3  C   UNL     1       3.684  -1.442   2.277  0.00  0.00    -0.021 A 
ATOM      4  C   UNL     1       4.441  -2.026   3.279  0.00  0.00    +0.006 A 
ATOM      5  C   UNL     1       4.329  -1.583   4.582  0.00  0.00    +0.000 A 
ATOM      6  C   UNL     1       3.458  -0.554   4.889  0.00  0.00    +0.000 A 
ATOM      7  C   UNL     1       2.703   0.029   3.892  0.00  0.00    +0.004 A 
ATOM      8  C   UNL     1       2.813  -0.411   2.583  0.00  0.00    -0.034 A 
ATOM      9  C   UNL     1       2.114   0.051   1.327  0.00  0.00    +0.021 C 
ATOM     10  C   UNL     1       0.697  -0.512   1.269  0.00  0.00    -0.005 C 
ATOM     11  C   UNL     1       0.002  -0.004   0.002  0.00  0.00    -0.077 C 
ATOM     12  C   UNL     1       1.343   2.016   0.000  0.00  0.00    -0.077 C 
ATOM     13  C   UNL     1       2.082   1.576   1.267  0.00  0.00    -0.005 C 
ATOM     14  N   UNL     1      -0.033   1.474   0.035  0.00  0.00    +0.383 N 
ATOM     15  H   UNL     1      -0.487   1.776   0.905  0.00  0.00    -0.081 HD
ENDROOT
BRANCH   2  16
ATOM     16  N   UNL     1       2.814  -2.939   0.551  0.00  0.00    -0.306 N 
ATOM     17  C   UNL     1       3.385  -4.159   0.604  0.00  0.00    +0.218 C 
ATOM     18  O   UNL     1       4.567  -4.265   0.852  0.00  0.00    -0.275 OA
ATOM     19  H   UNL     1       1.868  -2.855   0.352  0.00  0.00    +0.149 HD
BRANCH  17  20
ATOM     20  C   UNL     1       2.554  -5.391   0.353  0.00  0.00    +0.138 C 
BRANCH  20  21
ATOM     21  C   UNL     1       3.425  -6.616   0.470  0.00  0.00    -0.001 A 
ATOM     22  C   UNL     1       3.696  -7.369   1.564  0.00  0.00    +0.011 A 
ATOM     23  C   UNL     1       4.532  -8.462   1.435  0.00  0.00    +0.008 A 
ATOM     24  C   UNL     1       5.056  -8.749   0.218  0.00  0.00    +0.045 A 
ATOM     25  S   UNL     1       4.359  -7.456  -0.797  0.00  0.00    -0.101 S 
ENDBRANCH  20  21
ENDBRANCH  17  20
ENDBRANCH   2  16
BRANCH   1  27
ATOM     26  C   UNL     1       4.262   0.363  -1.649  0.00  0.00    +0.194 C 
ATOM     27  O   UNL     1       3.929   0.447  -0.262  0.00  0.00    -0.377 OA
ENDBRANCH   1  27
BRANCH  14  28
ATOM     28  C   UNL     1      -0.806   1.986  -1.114  0.00  0.00    -0.039 C 
BRANCH  28  29
ATOM     29  C   UNL     1      -1.010   3.469  -0.939  0.00  0.00    -0.022 A 
ATOM     30  C   UNL     1      -2.207   3.948  -0.442  0.00  0.00    +0.005 A 
ATOM     31  C   UNL     1      -2.393   5.308  -0.276  0.00  0.00    +0.000 A 
ATOM     32  C   UNL     1      -1.387   6.192  -0.617  0.00  0.00    +0.004 A 
ATOM     33  C   UNL     1      -0.191   5.719  -1.120  0.00  0.00    +0.045 A 
ATOM     34  C   UNL     1       0.001   4.354  -1.282  0.00  0.00    +0.118 A 
BRANCH  34  35
ATOM     35  O   UNL     1       1.177   3.886  -1.776  0.00  0.00    -0.507 OA
ATOM     36  H   UNL     1       1.194   3.802  -2.739  0.00  0.00    +0.292 HD
ENDBRANCH  34  35
ENDBRANCH  28  29
ENDBRANCH  14  28
TORSDOF 7
