REMARK  Name = ZINC16612606
REMARK  4 active torsions:
REMARK  status: ('A' for Active; 'I' for Inactive)
REMARK    1  A    between atoms: C_4  and  N_7
REMARK    2  A    between atoms: N_9  and  C_28
REMARK    3  A    between atoms: C_18  and  C_20
REMARK    4  A    between atoms: C_28  and  C_29
REMARK                            x       y       z     vdW  Elec       q    Type
REMARK                         _______ _______ _______ _____ _____    ______ ____
ROOT
ATOM      1  N   UNL     1       3.909   5.764   0.677  0.00  0.00    -0.300 N 
ATOM      2  C   UNL     1       4.401   6.049   2.045  0.00  0.00    +0.217 C 
ATOM      3  N   UNL     1       4.336   7.507   2.207  0.00  0.00    -0.275 N 
ATOM      4  C   UNL     1       3.525   8.031   1.264  0.00  0.00    +0.241 C 
ATOM      5  O   UNL     1       3.254   9.206   1.134  0.00  0.00    -0.273 OA
ATOM      6  C   UNL     1       3.013   6.906   0.399  0.00  0.00    +0.115 C 
ATOM      7  C   UNL     1       1.579   6.550   0.782  0.00  0.00    +0.054 C 
ATOM      8  C   UNL     1       0.670   7.759   0.533  0.00  0.00    +0.110 C 
ATOM      9  N   UNL     1       0.845   8.202  -0.857  0.00  0.00    -0.297 N 
ATOM     10  C   UNL     1       2.199   8.503  -1.340  0.00  0.00    +0.110 C 
ATOM     11  C   UNL     1       3.097   7.288  -1.076  0.00  0.00    +0.054 C 
ATOM     12  C   UNL     1      -0.219   8.330  -1.675  0.00  0.00    +0.248 C 
ATOM     13  O   UNL     1      -1.343   8.163  -1.242  0.00  0.00    -0.270 OA
ENDROOT
BRANCH  12  14
ATOM     14  C   UNL     1      -0.020   8.672  -3.098  0.00  0.00    +0.055 A 
ATOM     15  C   UNL     1       1.093   8.185  -3.788  0.00  0.00    +0.016 A 
ATOM     16  C   UNL     1       1.273   8.507  -5.115  0.00  0.00    +0.021 A 
ATOM     17  C   UNL     1       0.354   9.314  -5.767  0.00  0.00    +0.042 A 
ATOM     18  C   UNL     1      -0.751   9.801  -5.091  0.00  0.00    +0.040 A 
ATOM     19  C   UNL     1      -0.946   9.481  -3.762  0.00  0.00    +0.054 A 
ATOM     20 CL   UNL     1      -2.336  10.086  -2.916  0.00  0.00    -0.083 Cl
ATOM     21 CL   UNL     1       0.590   9.715  -7.440  0.00  0.00    -0.083 Cl
ENDBRANCH  12  14
BRANCH   1  25
ATOM     22  C   UNL     1       1.815   2.167   0.565  0.00  0.00    +0.000 A 
ATOM     23  C   UNL     1       1.824   2.994  -0.542  0.00  0.00    +0.002 A 
ATOM     24  C   UNL     1       2.516   4.189  -0.508  0.00  0.00    +0.023 A 
ATOM     25  C   UNL     1       3.208   4.556   0.639  0.00  0.00    +0.032 A 
ATOM     26  C   UNL     1       3.201   3.720   1.748  0.00  0.00    +0.023 A 
ATOM     27  C   UNL     1       2.508   2.527   1.707  0.00  0.00    +0.002 A 
ENDBRANCH   1  25
BRANCH   3  28
ATOM     28  C   UNL     1       5.044   8.276   3.234  0.00  0.00    +0.205 C 
BRANCH  28  29
ATOM     29  C   UNL     1       4.176   8.393   4.460  0.00  0.00    +0.233 C 
ATOM     30  O   UNL     1       3.075   7.886   4.475  0.00  0.00    -0.274 OA
ATOM     31  N   UNL     1       4.623   9.063   5.541  0.00  0.00    -0.300 N 
ATOM     32  C   UNL     1       5.958   9.678   5.541  0.00  0.00    +0.108 C 
ATOM     33  C   UNL     1       5.812  11.160   5.920  0.00  0.00    +0.019 C 
ATOM     34  C   UNL     1       5.071  11.268   7.255  0.00  0.00    +0.003 C 
ATOM     35  C   UNL     1       3.670  10.668   7.112  0.00  0.00    +0.019 C 
ATOM     36  C   UNL     1       3.789   9.186   6.744  0.00  0.00    +0.108 C 
ENDBRANCH  28  29
ENDBRANCH   3  28
TORSDOF 4
