REMARK  Name = ZINC14914364
REMARK  8 active torsions:
REMARK  status: ('A' for Active; 'I' for Inactive)
REMARK    1  A    between atoms: C_1  and  C_2
REMARK    2  A    between atoms: C_2  and  C_4
REMARK    3  A    between atoms: C_2  and  N_58
REMARK    4  A    between atoms: N_6  and  C_7
REMARK    5  A    between atoms: C_8  and  C_15
REMARK    6  A    between atoms: N_20  and  C_23
REMARK    7  A    between atoms: C_28  and  O_29
REMARK    8  A    between atoms: O_29  and  C_30
REMARK                            x       y       z     vdW  Elec       q    Type
REMARK                         _______ _______ _______ _____ _____    ______ ____
ROOT
ATOM      1  C   UNL     1      -0.494   5.455   0.144  0.00  0.00    -0.004 C 
ATOM      2  C   UNL     1       0.484   5.458  -1.033  0.00  0.00    +0.017 C 
ENDROOT
BRANCH   2   8
ATOM      3  C   UNL     1       1.979   4.071  -2.338  0.00  0.00    -0.059 C 
ATOM      4  C   UNL     1       2.405   2.625  -2.604  0.00  0.00    +0.086 C 
ATOM      5  N   UNL     1       2.943   2.040  -1.369  0.00  0.00    -0.331 N 
ATOM      6  C   UNL     1       1.938   2.063  -0.297  0.00  0.00    +0.086 C 
ATOM      7  C   UNL     1       1.512   3.509  -0.031  0.00  0.00    -0.059 C 
ATOM      8  N   UNL     1       0.953   4.077  -1.275  0.00  0.00    +0.389 N 
ATOM      9  H   UNL     1       0.157   3.503  -1.576  0.00  0.00    -0.081 HD
BRANCH   5  10
ATOM     10  C   UNL     1       3.410   0.740  -1.591  0.00  0.00    +0.072 A 
ATOM     11  C   UNL     1       2.541  -0.244  -2.042  0.00  0.00    +0.027 A 
ATOM     12  C   UNL     1       3.006  -1.526  -2.266  0.00  0.00    +0.002 A 
ATOM     13  C   UNL     1       4.333  -1.835  -2.031  0.00  0.00    +0.004 A 
ATOM     14  C   UNL     1       5.204  -0.861  -1.577  0.00  0.00    +0.047 A 
ATOM     15  C   UNL     1       4.747   0.427  -1.355  0.00  0.00    +0.141 A 
BRANCH  15  16
ATOM     16  O   UNL     1       5.602   1.386  -0.907  0.00  0.00    -0.493 OA
ATOM     17  C   UNL     1       6.958   0.994  -0.687  0.00  0.00    +0.277 C 
ENDBRANCH  15  16
ENDBRANCH   5  10
ENDBRANCH   2   8
BRANCH   2  18
ATOM     18  C   UNL     1      -0.219   5.958  -2.269  0.00  0.00    +0.204 C 
ATOM     19  O   UNL     1      -0.740   5.171  -3.031  0.00  0.00    -0.277 OA
ATOM     20  N   UNL     1      -0.270   7.280  -2.527  0.00  0.00    -0.281 N 
ATOM     21  H   UNL     1       0.146   7.910  -1.918  0.00  0.00    +0.155 HD
BRANCH  20  22
ATOM     22  C   UNL     1      -0.917   7.740  -3.664  0.00  0.00    +0.084 A 
ATOM     23  C   UNL     1      -1.078   9.046  -4.094  0.00  0.00    +0.068 A 
ATOM     24  C   UNL     1      -1.806   9.263  -5.344  0.00  0.00    -0.023 A 
ATOM     25  C   UNL     1      -2.255   8.146  -5.944  0.00  0.00    -0.004 A 
ATOM     26  S   UNL     1      -1.726   6.820  -4.888  0.00  0.00    -0.077 S 
ATOM     27  C   UNL     1      -2.994   8.450  -7.220  0.00  0.00    +0.043 C 
ATOM     28  C   UNL     1      -2.580   9.895  -7.574  0.00  0.00    +0.010 C 
ATOM     29  C   UNL     1      -2.220  10.468  -6.189  0.00  0.00    +0.037 C 
BRANCH  23  30
ATOM     30  C   UNL     1      -0.535  10.171  -3.325  0.00  0.00    +0.244 C 
ATOM     31  O   UNL     1       0.592  10.571  -3.547  0.00  0.00    -0.270 OA
ATOM     32  N   UNL     1      -1.285  10.760  -2.373  0.00  0.00    -0.325 N 
ATOM     33  H   UNL     1      -2.184  10.441  -2.197  0.00  0.00    +0.145 HD
ATOM     34  H   UNL     1      -0.926  11.505  -1.865  0.00  0.00    +0.145 HD
ENDBRANCH  23  30
ENDBRANCH  20  22
ENDBRANCH   2  18
TORSDOF 6
