REMARK  Name = ZINC50310072
REMARK  8 active torsions:
REMARK  status: ('A' for Active; 'I' for Inactive)
REMARK    1  A    between atoms: C_1  and  C_2
REMARK    2  A    between atoms: C_2  and  C_4
REMARK    3  A    between atoms: C_2  and  N_11
REMARK    4  A    between atoms: C_12  and  C_14
REMARK    5  A    between atoms: C_15  and  N_23
REMARK    6  A    between atoms: C_16  and  C_20
REMARK    7  A    between atoms: C_20  and  C_21
REMARK    8  A    between atoms: C_20  and  C_22
REMARK                            x       y       z     vdW  Elec       q    Type
REMARK                         _______ _______ _______ _____ _____    ______ ____
ROOT
ATOM      1  N   UNL     1       0.688  -0.476  -1.203  0.00  0.00    -0.303 N 
ATOM      2  C   UNL     1       0.006  -0.608  -2.358  0.00  0.00    +0.266 C 
ATOM      3  O   UNL     1      -1.178  -0.335  -2.400  0.00  0.00    -0.268 OA
ATOM      4  H   UNL     1       1.632  -0.695  -1.170  0.00  0.00    +0.150 HD
ENDROOT
BRANCH   2   5
ATOM      5  C   UNL     1       0.696  -1.084  -3.572  0.00  0.00    +0.168 A 
ATOM      6  C   UNL     1       0.118  -1.266  -4.854  0.00  0.00    +0.078 A 
ATOM      7  C   UNL     1       1.128  -1.714  -5.646  0.00  0.00    +0.060 A 
ATOM      8  N   UNL     1       2.240  -1.789  -4.869  0.00  0.00    -0.279 N 
ATOM      9  H   UNL     1       3.113  -2.080  -5.176  0.00  0.00    +0.189 HD
ATOM     10  N   UNL     1       1.970  -1.414  -3.671  0.00  0.00    -0.167 NA
BRANCH   7  11
ATOM     11  C   UNL     1       1.032  -2.061  -7.110  0.00  0.00    +0.033 C 
ATOM     12  C   UNL     1       1.988  -1.172  -7.908  0.00  0.00    +0.014 C 
ATOM     13  C   UNL     1       1.413  -3.529  -7.311  0.00  0.00    +0.014 C 
ENDBRANCH   7  11
BRANCH   6  14
ATOM     14  N   UNL     1      -1.215  -1.035  -5.226  0.00  0.00    -0.355 N 
ATOM     15  H   UNL     1      -1.852  -0.713  -4.570  0.00  0.00    +0.142 HD
ATOM     16  H   UNL     1      -1.498  -1.197  -6.139  0.00  0.00    +0.142 HD
ENDBRANCH   6  14
ENDBRANCH   2   5
BRANCH   1  18
ATOM     17  C   UNL     1      -0.019   1.526   0.010  0.00  0.00    +0.033 C 
ATOM     18  C   UNL     1       0.002  -0.004   0.002  0.00  0.00    +0.102 C 
BRANCH  18  19
ATOM     19  C   UNL     1       0.731  -0.503   1.223  0.00  0.00    -0.014 A 
ATOM     20  C   UNL     1       2.077  -0.808   1.148  0.00  0.00    +0.006 A 
ATOM     21  C   UNL     1       2.746  -1.266   2.268  0.00  0.00    +0.000 A 
ATOM     22  C   UNL     1       2.069  -1.419   3.463  0.00  0.00    +0.001 A 
ATOM     23  C   UNL     1       0.723  -1.114   3.539  0.00  0.00    +0.015 A 
ATOM     24  C   UNL     1       0.054  -0.651   2.420  0.00  0.00    +0.023 A 
ATOM     25 BR   UNL     1      -1.786  -0.228   2.525  0.00  0.00    -0.050 Br
ENDBRANCH  18  19
ENDBRANCH   1  18
TORSDOF 5
