REMARK  Name = ZINC27570581
REMARK  16 active torsions:
REMARK  status: ('A' for Active; 'I' for Inactive)
REMARK    1  A    between atoms: C_1  and  C_2
REMARK    2  A    between atoms: C_2  and  C_3
REMARK    3  A    between atoms: C_2  and  C_4
REMARK    4  A    between atoms: C_4  and  C_6
REMARK    5  A    between atoms: C_4  and  N_25
REMARK    6  A    between atoms: N_8  and  C_9
REMARK    7  A    between atoms: C_9  and  C_10
REMARK    8  A    between atoms: C_10  and  C_12
REMARK    9  A    between atoms: C_10  and  N_20
REMARK   10  A    between atoms: C_17  and  O_18
REMARK   11  A    between atoms: O_18  and  C_19
REMARK   12  A    between atoms: C_26  and  C_28
REMARK   13  A    between atoms: C_30  and  O_36
REMARK   14  A    between atoms: C_32  and  O_34
REMARK   15  A    between atoms: O_34  and  C_35
REMARK   16  A    between atoms: O_36  and  C_37
REMARK                            x       y       z     vdW  Elec       q    Type
REMARK                         _______ _______ _______ _____ _____    ______ ____
ROOT
ATOM      1  C   UNL     1       4.271   5.916   2.594  0.00  0.00    +0.234 C 
ATOM      2  O   UNL     1       3.774   5.293   3.509  0.00  0.00    -0.274 OA
ATOM      3  N   UNL     1       3.750   5.825   1.355  0.00  0.00    -0.315 N 
ATOM      4  H   UNL     1       4.167   6.431   0.537  0.00  0.00    +0.149 HD
ENDROOT
BRANCH   1   5
ATOM      5  C   UNL     1       5.471   6.793   2.844  0.00  0.00    +0.162 C 
BRANCH   5   6
ATOM      6  N   UNL     1       5.689   6.922   4.287  0.00  0.00    -0.300 N 
ATOM      7  C   UNL     1       6.335   7.998   4.777  0.00  0.00    +0.245 C 
ATOM      8  O   UNL     1       6.737   8.862   4.022  0.00  0.00    -0.270 OA
ATOM      9  H   UNL     1       5.326   6.140   4.971  0.00  0.00    +0.150 HD
BRANCH   7  10
ATOM     10  C   UNL     1       6.556   8.129   6.234  0.00  0.00    +0.044 A 
ATOM     11  C   UNL     1       6.090   7.141   7.103  0.00  0.00    +0.059 A 
ATOM     12  C   UNL     1       6.304   7.264   8.466  0.00  0.00    +0.124 A 
ATOM     13  C   UNL     1       6.969   8.373   8.968  0.00  0.00    +0.091 A 
ATOM     14  C   UNL     1       7.428   9.360   8.108  0.00  0.00    +0.124 A 
ATOM     15  C   UNL     1       7.224   9.242   6.743  0.00  0.00    +0.059 A 
BRANCH  14  16
ATOM     16  O   UNL     1       8.080  10.444   8.605  0.00  0.00    -0.495 OA
ATOM     17  C   UNL     1       8.256  10.502  10.022  0.00  0.00    +0.277 C 
ENDBRANCH  14  16
BRANCH  12  18
ATOM     18  O   UNL     1       5.857   6.300   9.313  0.00  0.00    -0.495 OA
ATOM     19  C   UNL     1       6.106   6.494  10.706  0.00  0.00    +0.277 C 
ENDBRANCH  12  18
ENDBRANCH   7  10
ENDBRANCH   5   6
BRANCH   5  21
ATOM     20  C   UNL     1       6.449   5.961   0.701  0.00  0.00    +0.009 C 
ATOM     21  C   UNL     1       6.706   6.164   2.196  0.00  0.00    +0.012 C 
ATOM     22  C   UNL     1       7.909   7.090   2.386  0.00  0.00    +0.009 C 
ENDBRANCH   5  21
ENDBRANCH   1   5
BRANCH   3  23
ATOM     23  C   UNL     1       2.628   4.918   1.097  0.00  0.00    +0.093 C 
BRANCH  23  24
ATOM     24  C   UNL     1       2.192   5.049  -0.364  0.00  0.00    -0.017 C 
BRANCH  24  25
ATOM     25  C   UNL     1       3.292   4.545  -1.263  0.00  0.00    -0.018 A 
ATOM     26  C   UNL     1       4.206   5.431  -1.801  0.00  0.00    +0.005 A 
ATOM     27  C   UNL     1       5.215   4.970  -2.625  0.00  0.00    +0.000 A 
ATOM     28  C   UNL     1       5.310   3.622  -2.918  0.00  0.00    +0.004 A 
ATOM     29  C   UNL     1       4.402   2.731  -2.379  0.00  0.00    +0.046 A 
ATOM     30  C   UNL     1       3.388   3.192  -1.551  0.00  0.00    +0.122 A 
BRANCH  30  31
ATOM     31  O   UNL     1       2.491   2.318  -1.023  0.00  0.00    -0.495 OA
ATOM     32  C   UNL     1       2.651   0.939  -1.363  0.00  0.00    +0.277 C 
ENDBRANCH  30  31
ENDBRANCH  24  25
BRANCH  24  33
ATOM     33  N   UNL     1       1.918   6.459  -0.669  0.00  0.00    +0.385 N 
ATOM     34  C   UNL     1       1.432   6.617  -2.064  0.00  0.00    -0.078 C 
ATOM     35  C   UNL     1       0.718   7.992  -2.037  0.00  0.00    -0.020 C 
ATOM     36  C   UNL     1       0.046   8.005  -0.644  0.00  0.00    -0.020 C 
ATOM     37  C   UNL     1       0.841   6.989   0.196  0.00  0.00    -0.078 C 
ATOM     38  H   UNL     1       2.866   6.991  -0.503  0.00  0.00    -0.081 HD
ENDBRANCH  24  33
ENDBRANCH  23  24
ENDBRANCH   3  23
TORSDOF 11
