REMARK  Name = ZINC10372884
REMARK  7 active torsions:
REMARK  status: ('A' for Active; 'I' for Inactive)
REMARK    1  A    between atoms: C_1  and  C_2
REMARK    2  A    between atoms: C_4  and  N_18
REMARK    3  A    between atoms: C_6  and  C_9
REMARK    4  A    between atoms: C_7  and  O_8
REMARK    5  A    between atoms: C_19  and  C_21
REMARK    6  A    between atoms: C_21  and  C_26
REMARK    7  A    between atoms: C_29  and  N_32
REMARK                            x       y       z     vdW  Elec       q    Type
REMARK                         _______ _______ _______ _____ _____    ______ ____
ROOT
ATOM      1  C   UNL     1      -3.720  -3.434  -4.134  0.00  0.00    +0.047 C 
ATOM      2  C   UNL     1      -3.778  -1.949  -4.389  0.00  0.00    -0.007 A 
ATOM      3  C   UNL     1      -3.006  -1.090  -3.632  0.00  0.00    +0.030 A 
ATOM      4  C   UNL     1      -3.054   0.281  -3.860  0.00  0.00    +0.035 A 
ATOM      5  C   UNL     1      -3.882   0.793  -4.846  0.00  0.00    +0.037 A 
ATOM      6  C   UNL     1      -4.660  -0.071  -5.617  0.00  0.00    +0.051 A 
ATOM      7  C   UNL     1      -4.606  -1.450  -5.382  0.00  0.00    +0.130 A 
ENDROOT
BRANCH   6   8
ATOM      8  C   UNL     1      -5.540   0.468  -6.674  0.00  0.00    +0.113 A 
ATOM      9  N   UNL     1      -5.723   1.718  -7.038  0.00  0.00    -0.239 NA
ATOM     10  C   UNL     1      -6.565   2.068  -8.030  0.00  0.00    +0.079 A 
ATOM     11  C   UNL     1      -6.851   3.366  -8.517  0.00  0.00    +0.029 A 
ATOM     12  C   UNL     1      -7.734   3.550  -9.534  0.00  0.00    +0.002 A 
ATOM     13  C   UNL     1      -8.388   2.482 -10.134  0.00  0.00    +0.001 A 
ATOM     14  C   UNL     1      -8.137   1.198  -9.688  0.00  0.00    +0.017 A 
ATOM     15  C   UNL     1      -7.247   1.001  -8.661  0.00  0.00    +0.040 A 
ATOM     16  S   UNL     1      -6.622  -0.415  -7.789  0.00  0.00    -0.067 S 
ENDBRANCH   6   8
BRANCH   4  17
ATOM     17  N   UNL     1      -2.268   1.146  -3.088  0.00  0.00    -0.285 N 
ATOM     18  C   UNL     1      -2.021   0.859  -1.794  0.00  0.00    +0.228 C 
ATOM     19  O   UNL     1      -2.367  -0.209  -1.334  0.00  0.00    -0.275 OA
ATOM     20  H   UNL     1      -1.901   1.952  -3.484  0.00  0.00    +0.155 HD
BRANCH  18  21
ATOM     21  C   UNL     1      -1.315   1.863  -0.921  0.00  0.00    +0.072 C 
ATOM     22  C   UNL     1      -1.316   1.384   0.541  0.00  0.00    +0.021 C 
ATOM     23  C   UNL     1      -2.073   2.453   1.356  0.00  0.00    +0.001 C 
ATOM     24  C   UNL     1      -2.976   3.156   0.311  0.00  0.00    +0.001 C 
ATOM     25  C   UNL     1      -2.071   3.208  -0.944  0.00  0.00    +0.021 C 
BRANCH  21  26
ATOM     26  C   UNL     1       0.101   2.059  -1.399  0.00  0.00    -0.032 A 
ATOM     27  C   UNL     1       0.692   1.113  -2.215  0.00  0.00    +0.007 A 
ATOM     28  C   UNL     1       1.989   1.294  -2.657  0.00  0.00    +0.033 A 
ATOM     29  C   UNL     1       2.699   2.417  -2.274  0.00  0.00    +0.126 A 
ATOM     30  C   UNL     1       2.110   3.361  -1.454  0.00  0.00    +0.033 A 
ATOM     31  C   UNL     1       0.811   3.181  -1.016  0.00  0.00    +0.007 A 
BRANCH  29  32
ATOM     32  N   UNL     1       4.089   2.609  -2.744  0.00  0.00    +0.056 N 
ATOM     33  O   UNL     1       4.715   3.599  -2.407  0.00  0.00    -0.126 OA
ATOM     34  O   UNL     1       4.609   1.778  -3.466  0.00  0.00    -0.126 OA
ENDBRANCH  29  32
ENDBRANCH  21  26
ENDBRANCH  18  21
ENDBRANCH   4  17
BRANCH   7  35
ATOM     35  O   UNL     1      -5.364  -2.298  -6.125  0.00  0.00    -0.506 OA
ATOM     36  H   UNL     1      -6.241  -2.468  -5.754  0.00  0.00    +0.292 HD
ENDBRANCH   7  35
TORSDOF 6
