REMARK  Name = ZINC39276885
REMARK  5 active torsions:
REMARK  status: ('A' for Active; 'I' for Inactive)
REMARK    1  A    between atoms: C_1  and  C_2
REMARK    2  A    between atoms: C_5  and  S_8
REMARK    3  A    between atoms: S_8  and  N_11
REMARK    4  A    between atoms: N_11  and  N_12
REMARK    5  A    between atoms: C_20  and  C_27
REMARK                            x       y       z     vdW  Elec       q    Type
REMARK                         _______ _______ _______ _____ _____    ______ ____
ROOT
ATOM      1  N   UNL     1       2.500  -4.622   1.014  0.00  0.00    -0.173 NA
ATOM      2  C   UNL     1       3.701  -5.063   1.055  0.00  0.00    +0.064 C 
ATOM      3  C   UNL     1       4.282  -5.899  -0.069  0.00  0.00    +0.055 C 
ATOM      4  C   UNL     1       4.791  -7.239   0.461  0.00  0.00    +0.010 C 
ATOM      5  C   UNL     1       5.841  -7.026   1.563  0.00  0.00    +0.034 C 
ATOM      6  C   UNL     1       5.217  -6.128   2.600  0.00  0.00    -0.033 C 
ATOM      7  C   UNL     1       5.030  -6.266   3.905  0.00  0.00    -0.000 A 
ATOM      8  C   UNL     1       5.500  -7.280   4.862  0.00  0.00    +0.014 A 
ATOM      9  C   UNL     1       5.086  -7.128   6.148  0.00  0.00    -0.044 A 
ATOM     10  C   UNL     1       4.261  -6.081   6.573  0.00  0.00    +0.006 A 
ATOM     11  C   UNL     1       3.793  -5.098   5.763  0.00  0.00    +0.026 A 
ATOM     12  C   UNL     1       4.170  -5.143   4.390  0.00  0.00    +0.043 A 
ATOM     13  N   UNL     1       3.898  -4.324   3.415  0.00  0.00    -0.372 N 
ATOM     14  C   UNL     1       4.615  -4.771   2.224  0.00  0.00    +0.152 C 
ATOM     15  H   UNL     1       3.319  -3.548   3.470  0.00  0.00    +0.161 HD
ENDROOT
BRANCH   9  16
ATOM     16  C   UNL     1       5.539  -8.139   7.169  0.00  0.00    +0.019 C 
ATOM     17  C   UNL     1       4.317  -8.825   7.784  0.00  0.00    +0.008 C 
ATOM     18  C   UNL     1       4.777  -9.852   8.821  0.00  0.00    +0.001 C 
ATOM     19  C   UNL     1       5.573  -9.146   9.920  0.00  0.00    +0.000 C 
ATOM     20  C   UNL     1       6.795  -8.460   9.305  0.00  0.00    +0.001 C 
ATOM     21  C   UNL     1       6.335  -7.433   8.269  0.00  0.00    +0.008 C 
ENDBRANCH   9  16
BRANCH   1  22
ATOM     22  N   UNL     1       1.647  -5.009  -0.028  0.00  0.00    -0.137 N 
ATOM     23  H   UNL     1       1.987  -5.550  -0.758  0.00  0.00    +0.197 HD
BRANCH  22  24
ATOM     24  S   UNL     1       0.058  -4.543  -0.013  0.00  0.00    +0.086 S 
ATOM     25  O   UNL     1      -0.474  -4.955   1.239  0.00  0.00    -0.149 OA
ATOM     26  O   UNL     1      -0.499  -4.960  -1.252  0.00  0.00    -0.149 OA
BRANCH  24  31
ATOM     27  C   UNL     1      -0.036   1.490  -0.023  0.00  0.00    +0.044 C 
ATOM     28  C   UNL     1      -0.013  -0.017  -0.021  0.00  0.00    -0.050 A 
ATOM     29  C   UNL     1      -0.013  -0.711  -1.217  0.00  0.00    +0.005 A 
ATOM     30  C   UNL     1       0.009  -2.093  -1.214  0.00  0.00    +0.029 A 
ATOM     31  C   UNL     1       0.031  -2.781  -0.016  0.00  0.00    +0.110 A 
ATOM     32  C   UNL     1       0.032  -2.088   1.180  0.00  0.00    +0.029 A 
ATOM     33  C   UNL     1       0.015  -0.706   1.177  0.00  0.00    +0.005 A 
ENDBRANCH  24  31
ENDBRANCH  22  24
ENDBRANCH   1  22
TORSDOF 4
