REMARK  Name = ZINC60496342
REMARK  7 active torsions:
REMARK  status: ('A' for Active; 'I' for Inactive)
REMARK    1  A    between atoms: C_1  and  C_2
REMARK    2  A    between atoms: C_2  and  N_3
REMARK    3  A    between atoms: N_3  and  C_4
REMARK    4  A    between atoms: N_3  and  S_10
REMARK    5  A    between atoms: S_10  and  C_13
REMARK    6  A    between atoms: C_16  and  S_20
REMARK    7  A    between atoms: S_20  and  N_23
REMARK                            x       y       z     vdW  Elec       q    Type
REMARK                         _______ _______ _______ _____ _____    ______ ____
ROOT
ATOM      1  C   UNL     1      -2.800   1.073   1.657  0.00  0.00    +0.141 A 
ATOM      2  C   UNL     1      -4.131   1.445   1.678  0.00  0.00    +0.033 A 
ATOM      3  C   UNL     1      -4.482   2.739   2.014  0.00  0.00    +0.030 A 
ATOM      4  C   UNL     1      -3.503   3.663   2.330  0.00  0.00    +0.108 A 
ATOM      5  C   UNL     1      -2.172   3.293   2.310  0.00  0.00    +0.068 A 
ATOM      6  C   UNL     1      -1.819   1.996   1.978  0.00  0.00    +0.151 A 
ATOM      7  F   UNL     1      -0.518   1.632   1.963  0.00  0.00    -0.203 F 
ENDROOT
BRANCH   1   8
ATOM      8  S   UNL     1      -2.352  -0.576   1.228  0.00  0.00    +0.064 S 
ATOM      9  O   UNL     1      -3.561  -1.261   0.932  0.00  0.00    -0.153 OA
ATOM     10  O   UNL     1      -1.448  -1.024   2.229  0.00  0.00    -0.153 OA
BRANCH   8  11
ATOM     11  N   UNL     1      -1.493  -0.498  -0.185  0.00  0.00    -0.174 NA
BRANCH  11  12
ATOM     12  C   UNL     1      -2.198  -0.456  -1.469  0.00  0.00    +0.080 C 
ATOM     13  C   UNL     1      -1.676  -1.574  -2.374  0.00  0.00    +0.020 C 
ATOM     14  C   UNL     1      -2.412  -1.531  -3.715  0.00  0.00    +0.002 C 
ATOM     15  C   UNL     1      -2.170  -0.177  -4.386  0.00  0.00    +0.000 C 
ATOM     16  C   UNL     1      -2.692   0.941  -3.481  0.00  0.00    +0.002 C 
ATOM     17  C   UNL     1      -1.956   0.897  -2.140  0.00  0.00    +0.020 C 
ENDBRANCH  11  12
BRANCH  11  19
ATOM     18  C   UNL     1       0.511  -1.897  -0.287  0.00  0.00    +0.022 C 
ATOM     19  C   UNL     1      -0.029  -0.471  -0.152  0.00  0.00    +0.106 C 
ENDBRANCH  11  19
ENDBRANCH   8  11
ENDBRANCH   1   8
BRANCH   4  20
ATOM     20  S   UNL     1      -3.953   5.312   2.758  0.00  0.00    +0.056 S 
ATOM     21  O   UNL     1      -2.823   6.126   2.480  0.00  0.00    -0.153 OA
ATOM     22  O   UNL     1      -5.226   5.550   2.172  0.00  0.00    -0.153 OA
BRANCH  20  23
ATOM     23  N   UNL     1      -4.173   5.350   4.399  0.00  0.00    -0.204 NA
ATOM     24  H   UNL     1      -4.047   4.544   4.923  0.00  0.00    +0.144 HD
ATOM     25  H   UNL     1      -4.427   6.178   4.835  0.00  0.00    +0.144 HD
ENDBRANCH  20  23
ENDBRANCH   4  20
TORSDOF 6
