REMARK  Name = ZINC23762963
REMARK  10 active torsions:
REMARK  status: ('A' for Active; 'I' for Inactive)
REMARK    1  A    between atoms: C_1  and  N_2
REMARK    2  A    between atoms: N_5  and  C_8
REMARK    3  A    between atoms: C_8  and  C_9
REMARK    4  A    between atoms: C_9  and  C_10
REMARK    5  A    between atoms: C_10  and  N_11
REMARK    6  A    between atoms: N_11  and  C_12
REMARK    7  A    between atoms: C_12  and  C_13
REMARK    8  A    between atoms: C_16  and  O_19
REMARK    9  A    between atoms: O_19  and  C_20
REMARK   10  A    between atoms: C_25  and  N_26
REMARK                            x       y       z     vdW  Elec       q    Type
REMARK                         _______ _______ _______ _____ _____    ______ ____
ROOT
ATOM      1  C   UNL     1      -2.200   0.983  -1.010  0.00  0.00    -0.064 A 
ATOM      2  C   UNL     1      -2.471  -0.161  -1.738  0.00  0.00    +0.005 A 
ATOM      3  C   UNL     1      -3.738  -0.710  -1.717  0.00  0.00    +0.046 A 
ATOM      4  C   UNL     1      -4.742  -0.106  -0.974  0.00  0.00    +0.129 A 
ATOM      5  C   UNL     1      -4.469   1.045  -0.249  0.00  0.00    +0.046 A 
ATOM      6  C   UNL     1      -3.199   1.587  -0.268  0.00  0.00    +0.005 A 
ENDROOT
BRANCH   1   7
ATOM      7  C   UNL     1      -0.814   1.577  -1.029  0.00  0.00    -0.047 C 
BRANCH   7   8
ATOM      8  N   UNL     1      -0.018   0.997   0.061  0.00  0.00    +0.382 N 
ATOM      9  H   UNL     1       0.033  -0.093  -0.081  0.00  0.00    -0.085 HD
ATOM     10  H   UNL     1      -0.514   1.219   1.018  0.00  0.00    -0.085 HD
BRANCH   8  11
ATOM     11  C   UNL     1       1.341   1.553   0.074  0.00  0.00    -0.081 C 
BRANCH  11  12
ATOM     12  C   UNL     1       2.138   0.926   1.219  0.00  0.00    -0.004 C 
BRANCH  12  13
ATOM     13  C   UNL     1       3.554   1.506   1.232  0.00  0.00    +0.082 C 
BRANCH  13  18
ATOM     14  C   UNL     1       6.733   0.341   5.754  0.00  0.00    -0.096 C 
ATOM     15  N   UNL     1       5.967   0.942   4.654  0.00  0.00    +0.379 N 
ATOM     16  C   UNL     1       6.517   0.544   3.350  0.00  0.00    -0.064 C 
ATOM     17  C   UNL     1       5.744   1.252   2.236  0.00  0.00    +0.066 C 
ATOM     18  N   UNL     1       4.320   0.904   2.333  0.00  0.00    -0.306 NA
ATOM     19  C   UNL     1       3.770   1.303   3.636  0.00  0.00    +0.066 C 
ATOM     20  C   UNL     1       4.543   0.594   4.751  0.00  0.00    -0.064 C 
ATOM     21  H   UNL     1       6.056   2.035   4.740  0.00  0.00    -0.082 HD
ENDBRANCH  13  18
ENDBRANCH  12  13
ENDBRANCH  11  12
ENDBRANCH   8  11
ENDBRANCH   7   8
ENDBRANCH   1   7
BRANCH   4  22
ATOM     22  O   UNL     1      -5.991  -0.641  -0.957  0.00  0.00    -0.454 OA
BRANCH  22  23
ATOM     23  C   UNL     1      -6.994   0.060  -1.548  0.00  0.00    +0.159 A 
ATOM     24  C   UNL     1      -6.709   1.219  -2.256  0.00  0.00    +0.050 A 
ATOM     25  C   UNL     1      -7.729   1.930  -2.856  0.00  0.00    +0.024 A 
ATOM     26  C   UNL     1      -9.037   1.487  -2.751  0.00  0.00    +0.043 A 
ATOM     27  C   UNL     1      -9.323   0.333  -2.046  0.00  0.00    +0.056 A 
ATOM     28  C   UNL     1      -8.305  -0.384  -1.448  0.00  0.00    +0.170 A 
ATOM     29 CL   UNL     1     -10.318   2.383  -3.506  0.00  0.00    -0.083 Cl
BRANCH  28  30
ATOM     30  N   UNL     1      -8.612  -1.623  -0.699  0.00  0.00    +0.060 N 
ATOM     31  O   UNL     1      -9.762  -2.013  -0.612  0.00  0.00    -0.126 OA
ATOM     32  O   UNL     1      -7.714  -2.252  -0.169  0.00  0.00    -0.126 OA
ENDBRANCH  28  30
ENDBRANCH  22  23
ENDBRANCH   4  22
TORSDOF 9
