REMARK  Name = ZINC00900906
REMARK  10 active torsions:
REMARK  status: ('A' for Active; 'I' for Inactive)
REMARK    1  A    between atoms: C_1  and  C_2
REMARK    2  A    between atoms: C_2  and  N_3
REMARK    3  A    between atoms: N_3  and  C_4
REMARK    4  A    between atoms: N_3  and  C_6
REMARK    5  A    between atoms: C_4  and  C_5
REMARK    6  A    between atoms: C_11  and  C_17
REMARK    7  A    between atoms: N_19  and  C_20
REMARK    8  A    between atoms: C_23  and  S_26
REMARK    9  A    between atoms: S_26  and  N_29
REMARK   10  A    between atoms: C_33  and  C_36
REMARK                            x       y       z     vdW  Elec       q    Type
REMARK                         _______ _______ _______ _____ _____    ______ ____
ROOT
ATOM      1  C   UNL     1       4.923   1.160   0.127  0.00  0.00    +0.255 C 
ATOM      2  O   UNL     1       5.949   1.795   0.275  0.00  0.00    -0.270 OA
ATOM      3  N   UNL     1       4.976  -0.176  -0.047  0.00  0.00    -0.281 N 
ATOM      4  H   UNL     1       4.156  -0.692  -0.088  0.00  0.00    +0.155 HD
ENDROOT
BRANCH   1  10
ATOM      5  C   UNL     1      -1.191   3.207   0.019  0.00  0.00    +0.033 A 
ATOM      6  C   UNL     1      -1.174   1.823  -0.169  0.00  0.00    +0.024 A 
ATOM      7  C   UNL     1       0.007   1.144  -0.180  0.00  0.00    +0.013 A 
ATOM      8  C   UNL     1       1.218   1.838  -0.013  0.00  0.00    +0.018 A 
ATOM      9  C   UNL     1       2.445   1.137  -0.030  0.00  0.00    +0.031 A 
ATOM     10  C   UNL     1       3.623   1.849   0.138  0.00  0.00    +0.122 A 
ATOM     11  C   UNL     1       3.550   3.301   0.326  0.00  0.00    +0.350 A 
ATOM     12  O   UNL     1       4.571   3.946   0.475  0.00  0.00    -0.244 OA
ATOM     13  O   UNL     1       2.358   3.921   0.335  0.00  0.00    -0.422 OA
ATOM     14  C   UNL     1       1.206   3.235   0.172  0.00  0.00    +0.141 A 
ATOM     15  C   UNL     1      -0.005   3.909   0.186  0.00  0.00    +0.070 A 
BRANCH   5  16
ATOM     16  N   UNL     1      -2.403   3.886   0.034  0.00  0.00    -0.330 N 
BRANCH  16  18
ATOM     17  C   UNL     1      -4.183   2.704   1.224  0.00  0.00    +0.024 C 
ATOM     18  C   UNL     1      -3.657   3.150  -0.142  0.00  0.00    +0.102 C 
ENDBRANCH  16  18
BRANCH  16  19
ATOM     19  C   UNL     1      -2.426   5.338   0.226  0.00  0.00    +0.102 C 
ATOM     20  C   UNL     1      -2.345   6.034  -1.135  0.00  0.00    +0.024 C 
ENDBRANCH  16  19
ENDBRANCH   5  16
ENDBRANCH   1  10
BRANCH   3  21
ATOM     21  C   UNL     1       6.213  -0.816  -0.168  0.00  0.00    +0.034 A 
ATOM     22  C   UNL     1       7.275  -0.169  -0.786  0.00  0.00    +0.025 A 
ATOM     23  C   UNL     1       8.496  -0.803  -0.900  0.00  0.00    +0.030 A 
ATOM     24  C   UNL     1       8.660  -2.085  -0.408  0.00  0.00    +0.106 A 
ATOM     25  C   UNL     1       7.604  -2.734   0.203  0.00  0.00    +0.030 A 
ATOM     26  C   UNL     1       6.381  -2.104   0.325  0.00  0.00    +0.025 A 
BRANCH  24  27
ATOM     27  S   UNL     1      10.219  -2.892  -0.561  0.00  0.00    +0.061 S 
ATOM     28  O   UNL     1      11.197  -1.868  -0.683  0.00  0.00    -0.153 OA
ATOM     29  O   UNL     1      10.269  -3.875   0.464  0.00  0.00    -0.153 OA
BRANCH  27  30
ATOM     30  N   UNL     1      10.207  -3.710  -2.001  0.00  0.00    -0.176 NA
ATOM     31  C   UNL     1       9.737  -5.100  -2.069  0.00  0.00    +0.109 C 
ATOM     32  C   UNL     1       8.647  -5.196  -3.147  0.00  0.00    +0.017 C 
ATOM     33  C   UNL     1       9.196  -4.653  -4.469  0.00  0.00    +0.006 C 
ATOM     34  C   UNL     1       9.578  -3.181  -4.299  0.00  0.00    +0.002 C 
ATOM     35  C   UNL     1      10.673  -3.061  -3.235  0.00  0.00    +0.112 C 
ATOM     36  C   UNL     1      10.095  -2.630  -5.629  0.00  0.00    +0.009 C 
ENDBRANCH  27  30
ENDBRANCH  24  27
ENDBRANCH   3  21
TORSDOF 7
