REMARK  Name = ZINC14468030
REMARK  5 active torsions:
REMARK  status: ('A' for Active; 'I' for Inactive)
REMARK    1  A    between atoms: C_6  and  C_7
REMARK    2  A    between atoms: N_9  and  C_10
REMARK    3  A    between atoms: C_10  and  C_11
REMARK    4  A    between atoms: C_24  and  C_27
REMARK    5  A    between atoms: C_32  and  O_33
REMARK                            x       y       z     vdW  Elec       q    Type
REMARK                         _______ _______ _______ _____ _____    ______ ____
ROOT
ATOM      1  C   UNL     1      -4.956   0.832  -1.717  0.00  0.00    +0.015 A 
ATOM      2  C   UNL     1      -4.607   2.156  -1.591  0.00  0.00    +0.024 A 
ATOM      3  C   UNL     1      -3.382   2.515  -1.032  0.00  0.00    +0.031 A 
ATOM      4  C   UNL     1      -2.509   1.512  -0.584  0.00  0.00    -0.019 A 
ATOM      5  C   UNL     1      -2.851   0.189  -0.718  0.00  0.00    +0.019 A 
ATOM      6  C   UNL     1      -4.079  -0.167  -1.285  0.00  0.00    +0.037 A 
ATOM      7  C   UNL     1      -1.230   1.926   0.018  0.00  0.00    +0.049 C 
ATOM      8  C   UNL     1      -0.013   1.076   0.008  0.00  0.00    -0.023 C 
ATOM      9  C   UNL     1       1.055   1.865   0.002  0.00  0.00    -0.030 C 
ATOM     10  C   UNL     1       0.621   3.332  -0.021  0.00  0.00    +0.033 C 
ATOM     11  C   UNL     1      -0.762   3.235  -0.681  0.00  0.00    +0.029 C 
ATOM     12  C   UNL     1      -1.779   4.302  -0.319  0.00  0.00    +0.109 C 
ATOM     13  N   UNL     1      -3.052   3.866  -0.932  0.00  0.00    -0.336 N 
ATOM     14  H   UNL     1      -3.669   4.532  -1.272  0.00  0.00    +0.147 HD
ENDROOT
BRANCH  12  15
ATOM     15  C   UNL     1      -1.927   4.395   1.177  0.00  0.00    +0.017 A 
ATOM     16  C   UNL     1      -2.934   3.697   1.817  0.00  0.00    +0.029 A 
ATOM     17  C   UNL     1      -3.070   3.781   3.191  0.00  0.00    +0.043 A 
ATOM     18  C   UNL     1      -2.199   4.563   3.929  0.00  0.00    +0.043 A 
ATOM     19  C   UNL     1      -1.190   5.262   3.293  0.00  0.00    +0.084 A 
ATOM     20  C   UNL     1      -1.049   5.175   1.915  0.00  0.00    +0.140 A 
ATOM     21 CL   UNL     1      -0.096   6.243   4.218  0.00  0.00    -0.080 Cl
ATOM     22 CL   UNL     1      -4.337   2.903   3.991  0.00  0.00    -0.083 Cl
BRANCH  20  23
ATOM     23  O   UNL     1      -0.054   5.857   1.288  0.00  0.00    -0.505 OA
ATOM     24  H   UNL     1      -0.303   6.749   1.010  0.00  0.00    +0.292 HD
ENDBRANCH  20  23
ENDBRANCH  12  15
BRANCH   6  25
ATOM     25  C   UNL     1      -4.446  -1.588  -1.428  0.00  0.00    +0.244 C 
ATOM     26  O   UNL     1      -3.680  -2.454  -1.051  0.00  0.00    -0.270 OA
ATOM     27  N   UNL     1      -5.630  -1.927  -1.975  0.00  0.00    -0.309 N 
ATOM     28  H   UNL     1      -6.240  -1.236  -2.276  0.00  0.00    +0.149 HD
BRANCH  27  29
ATOM     29  C   UNL     1      -5.994  -3.339  -2.117  0.00  0.00    +0.136 C 
BRANCH  29  30
ATOM     30  C   UNL     1      -7.377  -3.446  -2.763  0.00  0.00    +0.135 C 
ATOM     31  C   UNL     1      -7.774  -4.928  -2.909  0.00  0.00    +0.035 C 
ATOM     32  C   UNL     1      -9.095  -5.048  -2.111  0.00  0.00    +0.031 C 
ATOM     33  C   UNL     1      -9.582  -3.577  -2.066  0.00  0.00    +0.160 C 
ATOM     34  O   UNL     1      -8.360  -2.819  -1.921  0.00  0.00    -0.375 OA
ENDBRANCH  29  30
ENDBRANCH  27  29
ENDBRANCH   6  25
TORSDOF 5
