REMARK  Name = ZINC39608054
REMARK  7 active torsions:
REMARK  status: ('A' for Active; 'I' for Inactive)
REMARK    1  A    between atoms: C_1  and  C_2
REMARK    2  A    between atoms: C_2  and  C_4
REMARK    3  A    between atoms: C_2  and  N_7
REMARK    4  A    between atoms: C_4  and  C_5
REMARK    5  A    between atoms: C_4  and  C_6
REMARK    6  A    between atoms: C_8  and  C_10
REMARK    7  A    between atoms: C_21  and  C_23
REMARK                            x       y       z     vdW  Elec       q    Type
REMARK                         _______ _______ _______ _____ _____    ______ ____
ROOT
ATOM      1  C   UNL     1       0.707  -1.094  -3.601  0.00  0.00    +0.100 C 
ATOM      2  C   UNL     1       1.732  -0.044  -4.085  0.00  0.00    +0.121 C 
ATOM      3  N   UNL     1       1.653  -0.096  -5.564  0.00  0.00    -0.295 N 
ATOM      4  C   UNL     1       0.207  -0.262  -5.849  0.00  0.00    +0.115 C 
ATOM      5  C   UNL     1      -0.292  -1.234  -4.762  0.00  0.00    -0.004 C 
ATOM      6  C   UNL     1      -0.290  -2.665  -5.292  0.00  0.00    -0.010 C 
ATOM      7  C   UNL     1      -1.331  -2.793  -6.407  0.00  0.00    -0.082 C 
ATOM      8  N   UNL     1      -2.658  -2.446  -5.881  0.00  0.00    +0.379 N 
ATOM      9  C   UNL     1      -2.678  -1.040  -5.459  0.00  0.00    -0.082 C 
ATOM     10  C   UNL     1      -1.693  -0.838  -4.304  0.00  0.00    -0.010 C 
ATOM     11  C   UNL     1       2.665  -0.011  -6.449  0.00  0.00    +0.265 C 
ATOM     12  O   UNL     1       2.430   0.013  -7.641  0.00  0.00    -0.268 OA
ATOM     13  H   UNL     1      -3.351  -2.590  -6.601  0.00  0.00    -0.086 HD
ATOM     14  H   UNL     1      -2.870  -3.036  -5.091  0.00  0.00    -0.086 HD
ENDROOT
BRANCH  11  15
ATOM     15  C   UNL     1       4.066   0.052  -5.969  0.00  0.00    +0.126 A 
ATOM     16  C   UNL     1       5.100   0.252  -6.880  0.00  0.00    +0.033 A 
ATOM     17  C   UNL     1       6.405   0.308  -6.417  0.00  0.00    +0.004 A 
ATOM     18  C   UNL     1       6.630   0.163  -5.056  0.00  0.00    +0.020 A 
ATOM     19  C   UNL     1       5.553  -0.034  -4.207  0.00  0.00    +0.111 A 
ATOM     20  N   UNL     1       4.324  -0.078  -4.673  0.00  0.00    -0.250 NA
ENDBRANCH  11  15
BRANCH   1  22
ATOM     21  N   UNL     1      -0.600  -1.490  -1.539  0.00  0.00    -0.312 N 
ATOM     22  C   UNL     1       0.005  -0.609  -2.360  0.00  0.00    +0.218 C 
ATOM     23  O   UNL     1      -0.017   0.576  -2.099  0.00  0.00    -0.275 OA
ATOM     24  H   UNL     1      -0.583  -2.438  -1.748  0.00  0.00    +0.149 HD
BRANCH  21  26
ATOM     25  C   UNL     1      -0.270  -0.878   0.806  0.00  0.00    +0.028 C 
ATOM     26  C   UNL     1      -1.283  -1.019  -0.332  0.00  0.00    +0.072 C 
BRANCH  26  27
ATOM     27  C   UNL     1      -2.364  -2.025   0.069  0.00  0.00    +0.003 C 
ATOM     28  C   UNL     1      -1.706  -3.348   0.467  0.00  0.00    +0.009 C 
ATOM     29  C   UNL     1      -3.159  -1.474   1.254  0.00  0.00    +0.009 C 
ENDBRANCH  26  27
ENDBRANCH  21  26
ENDBRANCH   1  22
TORSDOF 4
