REMARK  Name = ZINC39264872
REMARK  6 active torsions:
REMARK  status: ('A' for Active; 'I' for Inactive)
REMARK    1  A    between atoms: C_1  and  C_2
REMARK    2  A    between atoms: C_8  and  C_10
REMARK    3  A    between atoms: C_8  and  C_11
REMARK    4  A    between atoms: C_16  and  C_18
REMARK    5  A    between atoms: C_18  and  C_20
REMARK    6  A    between atoms: C_18  and  C_22
REMARK                            x       y       z     vdW  Elec       q    Type
REMARK                         _______ _______ _______ _____ _____    ______ ____
ROOT
ATOM      1  C   UNL     1      -0.283   1.395  -0.018  0.00  0.00    +0.007 C 
ATOM      2  C   UNL     1      -0.143  -0.129  -0.009  0.00  0.00    -0.012 C 
ATOM      3  C   UNL     1      -1.489  -0.721  -0.038  0.00  0.00    +0.022 C 
ATOM      4  C   UNL     1      -1.395  -2.264  -0.133  0.00  0.00    +0.108 C 
ATOM      5  N   UNL     1      -0.922  -2.799   1.124  0.00  0.00    -0.299 N 
ATOM      6  C   UNL     1       0.509  -3.013   1.412  0.00  0.00    +0.114 C 
ATOM      7  C   UNL     1       1.381  -1.843   0.919  0.00  0.00    -0.019 C 
ATOM      8  C   UNL     1       0.691  -0.531   1.203  0.00  0.00    +0.011 C 
ATOM      9  C   UNL     1       1.612  -1.983  -0.587  0.00  0.00    +0.012 C 
ATOM     10  C   UNL     1       2.729  -1.876   1.642  0.00  0.00    +0.012 C 
ATOM     11  C   UNL     1      -1.851  -3.124   2.098  0.00  0.00    +0.218 A 
ATOM     12  N   UNL     1      -1.429  -3.611   3.256  0.00  0.00    -0.223 NA
ATOM     13  C   UNL     1      -2.290  -3.931   4.208  0.00  0.00    +0.116 A 
ATOM     14  C   UNL     1      -3.646  -3.753   3.982  0.00  0.00    +0.045 A 
ATOM     15  C   UNL     1      -4.052  -3.242   2.759  0.00  0.00    +0.069 A 
ATOM     16  N   UNL     1      -3.139  -2.937   1.852  0.00  0.00    -0.218 NA
ENDROOT
BRANCH  15  17
ATOM     17  C   UNL     1      -5.516  -3.031   2.469  0.00  0.00    +0.188 C 
BRANCH  17  18
ATOM     18  C   UNL     1      -5.946  -1.690   3.005  0.00  0.00    +0.064 A 
ATOM     19  C   UNL     1      -6.319  -1.572   4.330  0.00  0.00    +0.025 A 
ATOM     20  C   UNL     1      -6.714  -0.334   4.813  0.00  0.00    +0.003 A 
ATOM     21  C   UNL     1      -6.718   0.744   3.941  0.00  0.00    +0.020 A 
ATOM     22  C   UNL     1      -6.331   0.550   2.629  0.00  0.00    +0.111 A 
ATOM     23  N   UNL     1      -5.957  -0.642   2.205  0.00  0.00    -0.258 NA
ENDBRANCH  17  18
BRANCH  17  24
ATOM     24  C   UNL     1      -6.302  -4.094   3.116  0.00  0.00    +0.078 C 
ATOM     25  N   UNL     1      -6.910  -4.914   3.615  0.00  0.00    -0.195 NA
ENDBRANCH  17  24
ENDBRANCH  15  17
TORSDOF 3
