REMARK  Name = ZINC36637995
REMARK  17 active torsions:
REMARK  status: ('A' for Active; 'I' for Inactive)
REMARK    1  A    between atoms: C_1  and  C_2
REMARK    2  A    between atoms: C_2  and  C_3
REMARK    3  A    between atoms: C_3  and  C_4
REMARK    4  A    between atoms: C_4  and  N_5
REMARK    5  A    between atoms: N_5  and  C_6
REMARK    6  A    between atoms: N_5  and  S_7
REMARK    7  A    between atoms: S_7  and  C_10
REMARK    8  A    between atoms: C_13  and  C_16
REMARK    9  A    between atoms: N_18  and  C_19
REMARK   10  A    between atoms: C_19  and  C_20
REMARK   11  A    between atoms: C_20  and  N_21
REMARK   12  A    between atoms: N_21  and  C_22
REMARK   13  A    between atoms: N_21  and  C_24
REMARK   14  A    between atoms: C_22  and  C_23
REMARK   15  A    between atoms: C_24  and  C_25
REMARK   16  A    between atoms: C_29  and  O_35
REMARK   17  A    between atoms: O_35  and  C_36
REMARK                            x       y       z     vdW  Elec       q    Type
REMARK                         _______ _______ _______ _____ _____    ______ ____
ROOT
ATOM      1  C   UNL     1      -6.359   2.183   3.494  0.00  0.00    +0.252 C 
ATOM      2  O   UNL     1      -5.849   2.905   4.328  0.00  0.00    -0.270 OA
ATOM      3  N   UNL     1      -7.673   2.296   3.218  0.00  0.00    -0.248 N 
ATOM      4  C   UNL     1      -8.414   3.320   3.785  0.00  0.00    +0.168 A 
ATOM      5  N   UNL     1      -8.018   4.269   4.600  0.00  0.00    -0.221 NA
ATOM      6  C   UNL     1      -8.859   5.212   5.080  0.00  0.00    +0.122 A 
ATOM      7  C   UNL     1      -8.563   6.283   5.960  0.00  0.00    +0.146 A 
ATOM      8  C   UNL     1      -9.546   7.160   6.353  0.00  0.00    +0.048 A 
ATOM      9  C   UNL     1     -10.853   7.029   5.906  0.00  0.00    +0.005 A 
ATOM     10  C   UNL     1     -11.175   5.996   5.046  0.00  0.00    +0.017 A 
ATOM     11  C   UNL     1     -10.200   5.113   4.647  0.00  0.00    +0.044 A 
ATOM     12  S   UNL     1     -10.151   3.689   3.586  0.00  0.00    -0.052 S 
ENDROOT
BRANCH   1  16
ATOM     13  C   UNL     1      -3.999  -0.695   1.448  0.00  0.00    +0.106 A 
ATOM     14  C   UNL     1      -3.450   0.529   1.788  0.00  0.00    +0.029 A 
ATOM     15  C   UNL     1      -4.211   1.468   2.453  0.00  0.00    +0.015 A 
ATOM     16  C   UNL     1      -5.538   1.182   2.781  0.00  0.00    +0.037 A 
ATOM     17  C   UNL     1      -6.085  -0.055   2.434  0.00  0.00    +0.015 A 
ATOM     18  C   UNL     1      -5.314  -0.983   1.765  0.00  0.00    +0.029 A 
BRANCH  13  19
ATOM     19  S   UNL     1      -3.019  -1.889   0.599  0.00  0.00    +0.061 S 
ATOM     20  O   UNL     1      -3.599  -3.157   0.872  0.00  0.00    -0.153 OA
ATOM     21  O   UNL     1      -1.663  -1.590   0.901  0.00  0.00    -0.153 OA
BRANCH  19  22
ATOM     22  N   UNL     1      -3.214  -1.618  -1.023  0.00  0.00    -0.180 NA
ATOM     23  C   UNL     1      -4.286  -2.297  -1.755  0.00  0.00    +0.131 C 
BRANCH  22  24
ATOM     24  C   UNL     1      -2.314  -0.701  -1.726  0.00  0.00    +0.109 C 
BRANCH  24  25
ATOM     25  C   UNL     1      -2.950   0.689  -1.789  0.00  0.00    +0.017 C 
BRANCH  25  27
ATOM     26  C   UNL     1      -2.647   3.038  -2.586  0.00  0.00    +0.004 C 
ATOM     27  C   UNL     1      -2.010   1.648  -2.523  0.00  0.00    -0.002 C 
ENDBRANCH  25  27
ENDBRANCH  24  25
ENDBRANCH  22  24
ENDBRANCH  19  22
ENDBRANCH  13  19
ENDBRANCH   1  16
BRANCH   7  28
ATOM     28  O   UNL     1      -7.294   6.444   6.421  0.00  0.00    -0.493 OA
ATOM     29  C   UNL     1      -7.059   7.542   7.305  0.00  0.00    +0.277 C 
ENDBRANCH   7  28
BRANCH   3  30
ATOM     30  C   UNL     1      -8.318   1.336   2.319  0.00  0.00    +0.097 C 
BRANCH  30  31
ATOM     31  C   UNL     1      -9.291   0.464   3.117  0.00  0.00    -0.059 C 
BRANCH  31  32
ATOM     32  N   UNL     1      -9.985  -0.455   2.205  0.00  0.00    +0.380 N 
ATOM     33  H   UNL     1     -10.418   0.071   1.462  0.00  0.00    -0.082 HD
BRANCH  32  34
ATOM     34  C   UNL     1      -9.017  -1.402   1.635  0.00  0.00    -0.082 C 
ATOM     35  C   UNL     1      -8.431  -2.268   2.751  0.00  0.00    -0.017 C 
ENDBRANCH  32  34
BRANCH  32  36
ATOM     36  C   UNL     1     -11.014  -1.195   2.946  0.00  0.00    -0.082 C 
ATOM     37  C   UNL     1     -11.818  -2.062   1.975  0.00  0.00    -0.017 C 
ENDBRANCH  32  36
ENDBRANCH  31  32
ENDBRANCH  30  31
ENDBRANCH   3  30
TORSDOF 12
