REMARK  Name = ZINC14060268
REMARK  6 active torsions:
REMARK  status: ('A' for Active; 'I' for Inactive)
REMARK    1  A    between atoms: C_1  and  C_2
REMARK    2  A    between atoms: C_9  and  N_20
REMARK    3  A    between atoms: C_10  and  C_11
REMARK    4  A    between atoms: C_21  and  C_23
REMARK    5  A    between atoms: C_26  and  S_29
REMARK    6  A    between atoms: S_29  and  C_32
REMARK                            x       y       z     vdW  Elec       q    Type
REMARK                         _______ _______ _______ _____ _____    ______ ____
ROOT
ATOM      1  C   UNL     1      -0.019   1.526   0.010  0.00  0.00    +0.008 C 
ATOM      2  C   UNL     1       0.002  -0.004   0.002  0.00  0.00    -0.009 C 
ATOM      3  C   UNL     1       0.742  -0.515   1.242  0.00  0.00    +0.008 C 
ATOM      4  C   UNL     1       0.986  -2.019   1.119  0.00  0.00    +0.037 C 
ATOM      5  C   UNL     1      -0.340  -2.710   0.814  0.00  0.00    -0.026 A 
ATOM      6  C   UNL     1      -1.390  -2.005   0.332  0.00  0.00    -0.004 A 
ATOM      7  S   UNL     1      -2.684  -3.199   0.135  0.00  0.00    -0.077 S 
ATOM      8  C   UNL     1      -1.808  -4.645   0.703  0.00  0.00    +0.082 A 
ATOM      9  C   UNL     1      -0.560  -4.130   1.016  0.00  0.00    +0.039 A 
ATOM     10  C   UNL     1      -1.437  -0.539   0.033  0.00  0.00    +0.046 C 
ENDROOT
BRANCH   9  11
ATOM     11  C   UNL     1       0.511  -4.997   1.536  0.00  0.00    +0.112 A 
ATOM     12  N   UNL     1       1.744  -4.677   1.874  0.00  0.00    -0.239 NA
ATOM     13  C   UNL     1       2.623  -5.584   2.345  0.00  0.00    +0.079 A 
ATOM     14  C   UNL     1       3.964  -5.374   2.745  0.00  0.00    +0.029 A 
ATOM     15  C   UNL     1       4.731  -6.415   3.199  0.00  0.00    +0.002 A 
ATOM     16  C   UNL     1       4.226  -7.705   3.281  0.00  0.00    +0.001 A 
ATOM     17  C   UNL     1       2.920  -7.947   2.898  0.00  0.00    +0.017 A 
ATOM     18  C   UNL     1       2.143  -6.911   2.442  0.00  0.00    +0.040 A 
ATOM     19  S   UNL     1       0.472  -6.754   1.861  0.00  0.00    -0.067 S 
ENDBRANCH   9  11
BRANCH   8  20
ATOM     20  N   UNL     1      -2.260  -5.954   0.807  0.00  0.00    -0.275 N 
ATOM     21  C   UNL     1      -3.523  -6.261   0.449  0.00  0.00    +0.249 C 
ATOM     22  O   UNL     1      -4.266  -5.391   0.036  0.00  0.00    -0.270 OA
ATOM     23  H   UNL     1      -1.668  -6.648   1.136  0.00  0.00    +0.156 HD
BRANCH  21  24
ATOM     24  C   UNL     1      -4.005  -7.654   0.559  0.00  0.00    +0.037 A 
ATOM     25  C   UNL     1      -3.153  -8.655   1.028  0.00  0.00    +0.015 A 
ATOM     26  C   UNL     1      -3.611  -9.952   1.132  0.00  0.00    +0.027 A 
ATOM     27  C   UNL     1      -4.908 -10.264   0.764  0.00  0.00    +0.088 A 
ATOM     28  C   UNL     1      -5.756  -9.276   0.294  0.00  0.00    +0.027 A 
ATOM     29  C   UNL     1      -5.313  -7.974   0.190  0.00  0.00    +0.015 A 
BRANCH  27  30
ATOM     30  S   UNL     1      -5.483 -11.924   0.895  0.00  0.00    -0.006 S 
ATOM     31  O   UNL     1      -4.683 -12.505   1.917  0.00  0.00    -0.170 OA
ATOM     32  O   UNL     1      -6.890 -11.809   1.055  0.00  0.00    -0.170 OA
ATOM     33  C   UNL     1      -5.095 -12.679  -0.708  0.00  0.00    +0.200 C 
ENDBRANCH  27  30
ENDBRANCH  21  24
ENDBRANCH   8  20
TORSDOF 4
