REMARK  Name = ZINC12664465
REMARK  8 active torsions:
REMARK  status: ('A' for Active; 'I' for Inactive)
REMARK    1  A    between atoms: C_1  and  C_2
REMARK    2  A    between atoms: C_2  and  O_3
REMARK    3  A    between atoms: O_3  and  C_4
REMARK    4  A    between atoms: N_10  and  C_33
REMARK    5  A    between atoms: N_12  and  C_13
REMARK    6  A    between atoms: C_13  and  C_15
REMARK    7  A    between atoms: N_20  and  S_22
REMARK    8  A    between atoms: S_22  and  C_25
REMARK                            x       y       z     vdW  Elec       q    Type
REMARK                         _______ _______ _______ _____ _____    ______ ____
ROOT
ATOM      1  C   UNL     1       2.003   1.145   1.527  0.00  0.00    +0.243 C 
ATOM      2  O   UNL     1       1.638   1.113   0.367  0.00  0.00    -0.273 OA
ENDROOT
BRANCH   1  11
ATOM      3  C   UNL     1      -0.046   5.932   0.650  0.00  0.00    +0.145 A 
ATOM      4  C   UNL     1      -0.904   6.995   0.844  0.00  0.00    +0.048 A 
ATOM      5  C   UNL     1      -1.831   6.989   1.873  0.00  0.00    +0.005 A 
ATOM      6  C   UNL     1      -1.901   5.892   2.714  0.00  0.00    +0.017 A 
ATOM      7  C   UNL     1      -1.042   4.834   2.527  0.00  0.00    +0.042 A 
ATOM      8  C   UNL     1      -0.090   4.810   1.499  0.00  0.00    +0.099 A 
ATOM      9  N   UNL     1       0.689   3.667   1.452  0.00  0.00    -0.321 N 
ATOM     10  C   UNL     1       0.505   2.680   2.368  0.00  0.00    +0.166 A 
ATOM     11  N   UNL     1       1.158   1.525   2.479  0.00  0.00    -0.156 NA
ATOM     12  S   UNL     1      -0.784   3.286   3.357  0.00  0.00    -0.052 S 
ATOM     13  C   UNL     1       1.717   3.523   0.418  0.00  0.00    +0.151 C 
BRANCH   3  14
ATOM     14  O   UNL     1       0.852   5.970  -0.370  0.00  0.00    -0.490 OA
BRANCH  14  16
ATOM     15  C   UNL     1       1.918   6.998  -2.280  0.00  0.00    +0.048 C 
ATOM     16  C   UNL     1       0.848   7.137  -1.195  0.00  0.00    +0.226 C 
ENDBRANCH  14  16
ENDBRANCH   3  14
ENDBRANCH   1  11
BRANCH   1  17
ATOM     17  C   UNL     1       3.414   0.754   1.883  0.00  0.00    +0.093 C 
ATOM     18  C   UNL     1       4.119   1.937   2.551  0.00  0.00    +0.015 C 
ATOM     19  C   UNL     1       5.541   1.530   2.944  0.00  0.00    +0.018 C 
ATOM     20  C   UNL     1       6.325   1.148   1.684  0.00  0.00    +0.109 C 
ATOM     21  N   UNL     1       5.579   0.111   0.959  0.00  0.00    -0.176 NA
ATOM     22  C   UNL     1       4.173   0.362   0.612  0.00  0.00    +0.122 C 
BRANCH  21  23
ATOM     23  S   UNL     1       6.308  -1.317   0.541  0.00  0.00    +0.061 S 
ATOM     24  O   UNL     1       5.585  -1.832  -0.568  0.00  0.00    -0.153 OA
ATOM     25  O   UNL     1       7.704  -1.059   0.488  0.00  0.00    -0.153 OA
BRANCH  23  26
ATOM     26  C   UNL     1       6.054  -2.441   1.874  0.00  0.00    +0.106 A 
ATOM     27  C   UNL     1       6.976  -2.514   2.901  0.00  0.00    +0.030 A 
ATOM     28  C   UNL     1       6.774  -3.392   3.950  0.00  0.00    +0.022 A 
ATOM     29  C   UNL     1       5.655  -4.205   3.965  0.00  0.00    +0.041 A 
ATOM     30  C   UNL     1       4.736  -4.136   2.934  0.00  0.00    +0.022 A 
ATOM     31  C   UNL     1       4.935  -3.253   1.889  0.00  0.00    +0.030 A 
ATOM     32 CL   UNL     1       5.405  -5.313   5.278  0.00  0.00    -0.084 Cl
ENDBRANCH  23  26
ENDBRANCH  21  23
ENDBRANCH   1  17
TORSDOF 6
