REMARK  Name = ZINC22885044
REMARK  7 active torsions:
REMARK  status: ('A' for Active; 'I' for Inactive)
REMARK    1  A    between atoms: C_1  and  C_2
REMARK    2  A    between atoms: C_2  and  C_3
REMARK    3  A    between atoms: C_2  and  N_4
REMARK    4  A    between atoms: C_5  and  C_7
REMARK    5  A    between atoms: C_7  and  N_8
REMARK    6  A    between atoms: C_9  and  C_11
REMARK    7  A    between atoms: C_17  and  C_19
REMARK                            x       y       z     vdW  Elec       q    Type
REMARK                         _______ _______ _______ _____ _____    ______ ____
ROOT
ATOM      1  C   UNL     1      -4.267  -5.675  -1.855  0.00  0.00    +0.162 C 
ATOM      2  C   UNL     1      -3.369  -6.700  -1.131  0.00  0.00    +0.033 C 
ATOM      3  C   UNL     1      -4.378  -7.485  -0.252  0.00  0.00    +0.021 C 
ATOM      4  C   UNL     1      -5.628  -7.519  -1.166  0.00  0.00    +0.108 C 
ATOM      5  N   UNL     1      -5.638  -6.205  -1.843  0.00  0.00    -0.289 N 
ATOM      6  C   UNL     1      -6.722  -5.593  -2.360  0.00  0.00    +0.222 C 
ATOM      7  O   UNL     1      -6.624  -4.478  -2.826  0.00  0.00    -0.275 OA
ENDROOT
BRANCH   6   8
ATOM      8  C   UNL     1      -8.056  -6.295  -2.361  0.00  0.00    +0.048 C 
ATOM      9  C   UNL     1      -7.892  -7.700  -2.944  0.00  0.00    +0.019 C 
ATOM     10  C   UNL     1      -9.246  -8.413  -2.944  0.00  0.00    -0.009 C 
ATOM     11  C   UNL     1     -10.239  -7.620  -3.795  0.00  0.00    +0.007 C 
ATOM     12  C   UNL     1     -10.403  -6.215  -3.212  0.00  0.00    -0.009 C 
ATOM     13  C   UNL     1      -9.049  -5.502  -3.212  0.00  0.00    +0.019 C 
ATOM     14  C   UNL     1     -10.927  -6.316  -1.778  0.00  0.00    +0.007 C 
ATOM     15  C   UNL     1      -9.933  -7.109  -0.927  0.00  0.00    -0.009 C 
ATOM     16  C   UNL     1      -9.769  -8.514  -1.510  0.00  0.00    +0.007 C 
ATOM     17  C   UNL     1      -8.579  -6.396  -0.926  0.00  0.00    +0.019 C 
ENDBRANCH   6   8
BRANCH   1  19
ATOM     18  N   UNL     1      -3.056  -3.688  -1.016  0.00  0.00    -0.305 N 
ATOM     19  C   UNL     1      -4.222  -4.353  -1.132  0.00  0.00    +0.234 C 
ATOM     20  O   UNL     1      -5.236  -3.889  -0.654  0.00  0.00    -0.274 OA
ATOM     21  H   UNL     1      -2.246  -4.059  -1.398  0.00  0.00    +0.149 HD
BRANCH  18  22
ATOM     22  C   UNL     1      -3.013  -2.403  -0.313  0.00  0.00    +0.200 C 
BRANCH  22  24
ATOM     23  N   UNL     1      -1.321  -0.694   0.267  0.00  0.00    -0.312 N 
ATOM     24  C   UNL     1      -1.602  -1.872  -0.325  0.00  0.00    +0.230 C 
ATOM     25  O   UNL     1      -0.721  -2.504  -0.867  0.00  0.00    -0.274 OA
ATOM     26  H   UNL     1      -2.026  -0.189   0.701  0.00  0.00    +0.149 HD
BRANCH  23  28
ATOM     27  C   UNL     1       0.022   1.346   0.397  0.00  0.00    +0.027 C 
ATOM     28  C   UNL     1       0.050  -0.178   0.256  0.00  0.00    +0.067 C 
ATOM     29  C   UNL     1       0.833  -0.784   1.422  0.00  0.00    +0.027 C 
ENDBRANCH  23  28
ENDBRANCH  22  24
ENDBRANCH  18  22
ENDBRANCH   1  19
TORSDOF 5
