REMARK  Name = ZINC43069408
REMARK  8 active torsions:
REMARK  status: ('A' for Active; 'I' for Inactive)
REMARK    1  A    between atoms: C_1  and  C_2
REMARK    2  A    between atoms: C_2  and  C_4
REMARK    3  A    between atoms: C_2  and  N_7
REMARK    4  A    between atoms: C_4  and  C_5
REMARK    5  A    between atoms: C_4  and  C_6
REMARK    6  A    between atoms: N_10  and  N_11
REMARK    7  A    between atoms: N_11  and  C_12
REMARK    8  A    between atoms: C_12  and  C_19
REMARK                            x       y       z     vdW  Elec       q    Type
REMARK                         _______ _______ _______ _____ _____    ______ ____
ROOT
ATOM      1  N   UNL     1       0.688  -0.476  -1.203  0.00  0.00    -0.296 N 
ATOM      2  C   UNL     1       0.006  -0.608  -2.358  0.00  0.00    +0.314 C 
ATOM      3  O   UNL     1      -1.178  -0.335  -2.400  0.00  0.00    -0.252 OA
ATOM      4  N   UNL     1       0.637  -1.043  -3.467  0.00  0.00    -0.234 N 
ATOM      5  H   UNL     1       1.632  -0.695  -1.170  0.00  0.00    +0.151 HD
ATOM      6  H   UNL     1       0.146  -1.137  -4.299  0.00  0.00    +0.171 HD
ENDROOT
BRANCH   1   8
ATOM      7  C   UNL     1      -0.019   1.526   0.010  0.00  0.00    +0.028 C 
ATOM      8  C   UNL     1       0.002  -0.004   0.002  0.00  0.00    +0.074 C 
BRANCH   8   9
ATOM      9  C   UNL     1       0.742  -0.511   1.242  0.00  0.00    +0.003 C 
ATOM     10  C   UNL     1       0.026  -0.018   2.500  0.00  0.00    +0.009 C 
ATOM     11  C   UNL     1       0.763  -2.041   1.233  0.00  0.00    +0.009 C 
ENDBRANCH   8   9
ENDBRANCH   1   8
BRANCH   4  12
ATOM     12  N   UNL     1       1.967  -1.350  -3.420  0.00  0.00    -0.232 NA
ATOM     13  H   UNL     1       2.508  -0.566  -3.086  0.00  0.00    +0.145 HD
BRANCH  12  14
ATOM     14  C   UNL     1       2.450  -1.801  -4.732  0.00  0.00    +0.054 C 
ATOM     15  C   UNL     1       1.598  -2.985  -5.187  0.00  0.00    +0.047 C 
ATOM     16  C   UNL     1       2.422  -3.915  -6.121  0.00  0.00    +0.168 C 
ATOM     17  S   UNL     1       4.051  -3.858  -5.253  0.00  0.00    -0.029 S 
ATOM     18  O   UNL     1       4.027  -4.761  -4.156  0.00  0.00    -0.174 OA
ATOM     19  O   UNL     1       5.095  -3.945  -6.212  0.00  0.00    -0.174 OA
ATOM     20  C   UNL     1       3.951  -2.132  -4.619  0.00  0.00    +0.189 C 
ATOM     21  C   UNL     1       2.274  -0.660  -5.737  0.00  0.00    +0.031 C 
ENDBRANCH  12  14
ENDBRANCH   4  12
TORSDOF 4
