REMARK  Name = ZINC38551109
REMARK  9 active torsions:
REMARK  status: ('A' for Active; 'I' for Inactive)
REMARK    1  A    between atoms: C_1  and  C_2
REMARK    2  A    between atoms: C_6  and  N_8
REMARK    3  A    between atoms: N_8  and  C_9
REMARK    4  A    between atoms: C_9  and  C_11
REMARK    5  A    between atoms: C_9  and  C_19
REMARK    6  A    between atoms: C_14  and  S_17
REMARK    7  A    between atoms: S_17  and  C_18
REMARK    8  A    between atoms: C_23  and  N_24
REMARK    9  A    between atoms: C_25  and  C_27
REMARK                            x       y       z     vdW  Elec       q    Type
REMARK                         _______ _______ _______ _____ _____    ______ ____
ROOT
ATOM      1  C   UNL     1       0.195  -4.070   2.333  0.00  0.00    +0.135 C 
ENDROOT
BRANCH   1   2
ATOM      2  C   UNL     1       1.489  -4.701   1.887  0.00  0.00    +0.009 A 
ATOM      3  C   UNL     1       2.110  -5.662   2.686  0.00  0.00    -0.030 A 
ATOM      4  C   UNL     1       3.275  -6.184   2.216  0.00  0.00    -0.005 A 
ATOM      5  S   UNL     1       3.520  -5.355   0.669  0.00  0.00    -0.078 S 
ATOM      6  C   UNL     1       2.051  -4.339   0.703  0.00  0.00    +0.078 A 
ATOM      7  C   UNL     1       4.137  -7.217   2.866  0.00  0.00    +0.043 C 
ATOM      8  C   UNL     1       3.708  -7.349   4.335  0.00  0.00    +0.005 C 
ATOM      9  C   UNL     1       2.182  -7.465   4.393  0.00  0.00    +0.005 C 
ATOM     10  C   UNL     1       1.542  -6.127   4.024  0.00  0.00    +0.036 C 
BRANCH   6  11
ATOM     11  N   UNL     1       1.599  -3.414  -0.240  0.00  0.00    -0.273 N 
ATOM     12  C   UNL     1       2.243  -3.280  -1.416  0.00  0.00    +0.284 C 
ATOM     13  O   UNL     1       3.171  -4.019  -1.689  0.00  0.00    -0.266 OA
ATOM     14  H   UNL     1       0.821  -2.867  -0.048  0.00  0.00    +0.156 HD
BRANCH  12  15
ATOM     15  C   UNL     1       1.827  -2.243  -2.366  0.00  0.00    +0.189 A 
ATOM     16  C   UNL     1       2.332  -2.056  -3.621  0.00  0.00    +0.054 A 
ATOM     17  C   UNL     1       1.648  -0.961  -4.171  0.00  0.00    +0.042 A 
ATOM     18  C   UNL     1       0.768  -0.532  -3.240  0.00  0.00    +0.196 A 
ATOM     19  O   UNL     1       0.875  -1.311  -2.155  0.00  0.00    -0.458 OA
ENDBRANCH  12  15
ENDBRANCH   6  11
ENDBRANCH   1   2
BRANCH   1  20
ATOM     20  C   UNL     1      -0.952  -4.688   1.575  0.00  0.00    -0.023 A 
ATOM     21  C   UNL     1      -1.306  -4.191   0.334  0.00  0.00    +0.007 A 
ATOM     22  C   UNL     1      -2.356  -4.753  -0.363  0.00  0.00    +0.015 A 
ATOM     23  C   UNL     1      -3.058  -5.821   0.183  0.00  0.00    +0.008 A 
ATOM     24  C   UNL     1      -2.700  -6.318   1.431  0.00  0.00    +0.015 A 
ATOM     25  C   UNL     1      -1.644  -5.754   2.120  0.00  0.00    +0.007 A 
BRANCH  23  26
ATOM     26  S   UNL     1      -4.400  -6.542  -0.702  0.00  0.00    -0.129 S 
ATOM     27  C   UNL     1      -4.985  -7.867   0.390  0.00  0.00    +0.090 C 
ENDBRANCH  23  26
ENDBRANCH   1  20
BRANCH   1  28
ATOM     28  N   UNL     1       0.237  -2.630   2.067  0.00  0.00    -0.320 N 
ATOM     29  H   UNL     1      -0.229  -2.265   1.299  0.00  0.00    +0.148 HD
BRANCH  28  35
ATOM     30  C   UNL     1       1.859   1.778   2.993  0.00  0.00    +0.063 C 
ATOM     31  C   UNL     1       1.738   0.328   3.388  0.00  0.00    +0.014 A 
ATOM     32  C   UNL     1       2.324  -0.110   4.559  0.00  0.00    +0.021 A 
ATOM     33  C   UNL     1       2.209  -1.447   4.918  0.00  0.00    +0.005 A 
ATOM     34  C   UNL     1       1.508  -2.297   4.081  0.00  0.00    +0.041 A 
ATOM     35  C   UNL     1       0.944  -1.787   2.917  0.00  0.00    +0.097 A 
ATOM     36  N   UNL     1       1.071  -0.504   2.612  0.00  0.00    -0.347 N 
ATOM     37  H   UNL     1       0.665  -0.170   1.797  0.00  0.00    +0.167 HD
ENDBRANCH  28  35
ENDBRANCH   1  28
TORSDOF 7
