REMARK  Name = ZINC01951319
REMARK  4 active torsions:
REMARK  status: ('A' for Active; 'I' for Inactive)
REMARK    1  A    between atoms: N_14  and  N_15
REMARK    2  A    between atoms: N_15  and  C_16
REMARK    3  A    between atoms: C_16  and  N_18
REMARK    4  A    between atoms: N_18  and  C_19
REMARK                            x       y       z     vdW  Elec       q    Type
REMARK                         _______ _______ _______ _____ _____    ______ ____
ROOT
ATOM      1  C   UNL     1      -0.001   1.361   0.255  0.00  0.00    +0.151 C 
ATOM      2  S   UNL     1      -1.461   2.190   0.590  0.00  0.00    -0.017 S 
ENDROOT
BRANCH   1   3
ATOM      3  N   UNL     1       1.171   2.027   0.267  0.00  0.00    -0.218 N 
ATOM      4  H   UNL     1       1.187   2.975   0.469  0.00  0.00    +0.176 HD
BRANCH   3  18
ATOM      5  C   UNL     1       4.492   6.124  -0.216  0.00  0.00    +0.001 A 
ATOM      6  C   UNL     1       3.143   5.835  -0.089  0.00  0.00    +0.001 A 
ATOM      7  C   UNL     1       2.712   4.525  -0.048  0.00  0.00    +0.011 A 
ATOM      8  C   UNL     1       3.636   3.487  -0.134  0.00  0.00    +0.010 A 
ATOM      9  C   UNL     1       5.005   3.778  -0.259  0.00  0.00    -0.008 A 
ATOM     10  C   UNL     1       5.422   5.108  -0.294  0.00  0.00    +0.009 A 
ATOM     11  C   UNL     1       5.754   2.505  -0.337  0.00  0.00    -0.008 A 
ATOM     12  C   UNL     1       7.115   2.232  -0.471  0.00  0.00    +0.009 A 
ATOM     13  C   UNL     1       7.554   0.925  -0.520  0.00  0.00    +0.001 A 
ATOM     14  C   UNL     1       6.652  -0.124  -0.437  0.00  0.00    +0.001 A 
ATOM     15  C   UNL     1       5.302   0.127  -0.304  0.00  0.00    +0.011 A 
ATOM     16  C   UNL     1       4.841   1.440  -0.253  0.00  0.00    +0.010 A 
ATOM     17  C   UNL     1       3.486   2.016  -0.119  0.00  0.00    +0.097 C 
ATOM     18  N   UNL     1       2.364   1.349  -0.013  0.00  0.00    -0.180 NA
ENDBRANCH   3  18
ENDBRANCH   1   3
BRANCH   1  19
ATOM     19  N   UNL     1      -0.024   0.043  -0.026  0.00  0.00    -0.314 N 
ATOM     20  H   UNL     1       0.802  -0.426  -0.220  0.00  0.00    +0.149 HD
BRANCH  19  21
ATOM     21  C   UNL     1      -1.298  -0.681  -0.039  0.00  0.00    +0.140 C 
ATOM     22  C   UNL     1      -1.641  -1.108   1.362  0.00  0.00    +0.020 A 
ATOM     23  C   UNL     1      -1.432  -0.227   2.410  0.00  0.00    +0.009 A 
ATOM     24  C   UNL     1      -1.739  -0.600   3.704  0.00  0.00    +0.001 A 
ATOM     25  C   UNL     1      -2.259  -1.856   3.957  0.00  0.00    +0.004 A 
ATOM     26  C   UNL     1      -2.471  -2.738   2.916  0.00  0.00    +0.046 A 
ATOM     27  C   UNL     1      -2.163  -2.366   1.613  0.00  0.00    +0.134 A 
ATOM     28  O   UNL     1      -2.377  -3.245   0.605  0.00  0.00    -0.455 OA
ATOM     29  C   UNL     1      -1.723  -3.100  -0.572  0.00  0.00    +0.134 A 
ATOM     30  C   UNL     1      -1.178  -1.880  -0.940  0.00  0.00    +0.020 A 
ATOM     31  C   UNL     1      -0.514  -1.758  -2.148  0.00  0.00    +0.009 A 
ATOM     32  C   UNL     1      -0.393  -2.849  -2.988  0.00  0.00    +0.001 A 
ATOM     33  C   UNL     1      -0.936  -4.067  -2.624  0.00  0.00    +0.004 A 
ATOM     34  C   UNL     1      -1.600  -4.194  -1.420  0.00  0.00    +0.046 A 
ENDBRANCH  19  21
ENDBRANCH   1  19
TORSDOF 4
