REMARK  Name = ZINC58406735
REMARK  7 active torsions:
REMARK  status: ('A' for Active; 'I' for Inactive)
REMARK    1  A    between atoms: C_4  and  N_7
REMARK    2  A    between atoms: C_10  and  C_13
REMARK    3  A    between atoms: C_13  and  N_14
REMARK    4  A    between atoms: N_17  and  C_18
REMARK    5  A    between atoms: C_18  and  C_19
REMARK    6  A    between atoms: N_24  and  C_26
REMARK    7  A    between atoms: C_26  and  C_27
REMARK                            x       y       z     vdW  Elec       q    Type
REMARK                         _______ _______ _______ _____ _____    ______ ____
ROOT
ATOM      1  N   UNL     1       7.114  -3.872   0.626  0.00  0.00    -0.299 N 
ATOM      2  C   UNL     1       7.822  -4.981   0.335  0.00  0.00    +0.300 C 
ATOM      3  O   UNL     1       7.347  -5.831  -0.394  0.00  0.00    -0.253 OA
ATOM      4  N   UNL     1       9.055  -5.148   0.851  0.00  0.00    -0.299 N 
ATOM      5  H   UNL     1       7.492  -3.194   1.208  0.00  0.00    +0.150 HD
ATOM      6  H   UNL     1       9.434  -4.470   1.433  0.00  0.00    +0.150 HD
ENDROOT
BRANCH   1   7
ATOM      7  C   UNL     1       5.773  -3.690   0.065  0.00  0.00    +0.110 C 
BRANCH   7  11
ATOM      8  N   UNL     1       3.620  -0.649  -0.036  0.00  0.00    -0.330 N 
ATOM      9  C   UNL     1       4.950  -0.023  -0.040  0.00  0.00    +0.105 C 
ATOM     10  C   UNL     1       5.992  -1.161  -0.031  0.00  0.00    +0.025 C 
ATOM     11  C   UNL     1       5.194  -2.359   0.549  0.00  0.00    +0.025 C 
ATOM     12  C   UNL     1       3.787  -2.114  -0.046  0.00  0.00    +0.110 C 
BRANCH   8  16
ATOM     13  C   UNL     1      -0.017   1.379   0.010  0.00  0.00    +0.000 A 
ATOM     14  C   UNL     1       1.169   2.089   0.002  0.00  0.00    +0.002 A 
ATOM     15  C   UNL     1       2.377   1.420  -0.013  0.00  0.00    +0.023 A 
ATOM     16  C   UNL     1       2.400   0.031  -0.021  0.00  0.00    +0.030 A 
ATOM     17  C   UNL     1       1.206  -0.680  -0.013  0.00  0.00    +0.023 A 
ATOM     18  C   UNL     1       0.002  -0.004   0.002  0.00  0.00    +0.002 A 
ENDBRANCH   8  16
ENDBRANCH   7  11
ENDBRANCH   1   7
BRANCH   4  19
ATOM     19  C   UNL     1       9.825  -6.354   0.534  0.00  0.00    +0.107 C 
BRANCH  19  20
ATOM     20  C   UNL     1      11.180  -6.295   1.242  0.00  0.00    -0.011 C 
ATOM     21  C   UNL     1      12.002  -5.133   0.678  0.00  0.00    +0.001 C 
ATOM     22  C   UNL     1      13.384  -5.130   1.337  0.00  0.00    -0.018 C 
ATOM     23  C   UNL     1      14.057  -6.484   1.102  0.00  0.00    -0.078 C 
ATOM     24  N   UNL     1      13.236  -7.551   1.688  0.00  0.00    +0.383 N 
ATOM     25  C   UNL     1      11.934  -7.606   1.012  0.00  0.00    -0.073 C 
ATOM     26  H   UNL     1      13.096  -7.366   2.670  0.00  0.00    -0.081 HD
BRANCH  24  27
ATOM     27  C   UNL     1      13.923  -8.839   1.529  0.00  0.00    -0.036 C 
BRANCH  27  28
ATOM     28  C   UNL     1      15.198  -8.831   2.332  0.00  0.00    -0.027 A 
ATOM     29  C   UNL     1      15.401  -9.212   3.617  0.00  0.00    +0.009 A 
ATOM     30  C   UNL     1      16.672  -9.117   4.152  0.00  0.00    +0.008 A 
ATOM     31  C   UNL     1      17.678  -8.645   3.376  0.00  0.00    +0.045 A 
ATOM     32  S   UNL     1      16.837  -8.324   1.835  0.00  0.00    -0.103 S 
ENDBRANCH  27  28
ENDBRANCH  24  27
ENDBRANCH  19  20
ENDBRANCH   4  19
TORSDOF 7
