REMARK  Name = ZINC09433225
REMARK  10 active torsions:
REMARK  status: ('A' for Active; 'I' for Inactive)
REMARK    1  A    between atoms: C_1  and  C_2
REMARK    2  A    between atoms: C_2  and  C_3
REMARK    3  A    between atoms: C_2  and  C_4
REMARK    4  A    between atoms: C_4  and  N_5
REMARK    5  A    between atoms: C_6  and  C_33
REMARK    6  A    between atoms: C_8  and  C_18
REMARK    7  A    between atoms: N_20  and  C_21
REMARK    8  A    between atoms: C_21  and  C_22
REMARK    9  A    between atoms: C_22  and  C_23
REMARK   10  A    between atoms: C_23  and  N_71
REMARK                            x       y       z     vdW  Elec       q    Type
REMARK                         _______ _______ _______ _____ _____    ______ ____
ROOT
ATOM      1  N   UNL     1       1.817   4.311  -0.880  0.00  0.00    -0.289 N 
ATOM      2  C   UNL     1       2.498   3.360  -0.004  0.00  0.00    +0.129 C 
ATOM      3  C   UNL     1       2.580   3.893   1.424  0.00  0.00    +0.131 C 
ATOM      4  C   UNL     1       1.220   4.348   1.886  0.00  0.00    -0.021 A 
ATOM      5  C   UNL     1       0.855   4.239   3.210  0.00  0.00    +0.005 A 
ATOM      6  C   UNL     1      -0.391   4.680   3.622  0.00  0.00    +0.000 A 
ATOM      7  C   UNL     1      -1.276   5.230   2.712  0.00  0.00    +0.001 A 
ATOM      8  C   UNL     1      -0.924   5.339   1.381  0.00  0.00    +0.013 A 
ATOM      9  C   UNL     1       0.327   4.893   0.961  0.00  0.00    +0.041 A 
ATOM     10  C   UNL     1       0.730   4.985  -0.458  0.00  0.00    +0.247 C 
ATOM     11  O   UNL     1       0.086   5.662  -1.236  0.00  0.00    -0.270 OA
ENDROOT
BRANCH   2  12
ATOM     12  C   UNL     1       1.742   2.057  -0.004  0.00  0.00    +0.011 A 
ATOM     13  C   UNL     1       2.223   0.790  -0.015  0.00  0.00    +0.013 A 
ATOM     14  C   UNL     1       1.332  -0.266  -0.012  0.00  0.00    +0.008 A 
ATOM     15  C   UNL     1       0.002  -0.004   0.002  0.00  0.00    +0.045 A 
ATOM     16  S   UNL     1      -0.022   1.781   0.012  0.00  0.00    -0.100 S 
ENDBRANCH   2  12
BRANCH   3  17
ATOM     17  C   UNL     1       3.538   5.056   1.469  0.00  0.00    +0.223 C 
ATOM     18  O   UNL     1       4.099   5.419   0.457  0.00  0.00    -0.275 OA
ATOM     19  N   UNL     1       3.771   5.692   2.634  0.00  0.00    -0.315 N 
ATOM     20  H   UNL     1       3.323   5.401   3.444  0.00  0.00    +0.149 HD
BRANCH  19  21
ATOM     21  C   UNL     1       4.703   6.822   2.678  0.00  0.00    +0.102 C 
BRANCH  21  22
ATOM     22  C   UNL     1       4.786   7.358   4.109  0.00  0.00    +0.000 C 
BRANCH  22  23
ATOM     23  C   UNL     1       5.759   8.539   4.155  0.00  0.00    -0.077 C 
BRANCH  23  33
ATOM     24  C   UNL     1       6.934  10.028   5.663  0.00  0.00    -0.074 C 
ATOM     25  C   UNL     1       6.745  10.792   6.974  0.00  0.00    +0.017 C 
ATOM     26  C   UNL     1       6.536   9.822   8.109  0.00  0.00    -0.048 A 
ATOM     27  C   UNL     1       6.699  10.279   9.408  0.00  0.00    +0.004 A 
ATOM     28  C   UNL     1       6.514   9.425  10.476  0.00  0.00    +0.000 A 
ATOM     29  C   UNL     1       6.164   8.106  10.250  0.00  0.00    +0.000 A 
ATOM     30  C   UNL     1       6.002   7.650   8.957  0.00  0.00    +0.002 A 
ATOM     31  C   UNL     1       6.190   8.507   7.882  0.00  0.00    -0.061 A 
ATOM     32  C   UNL     1       6.011   7.961   6.490  0.00  0.00    -0.043 C 
ATOM     33  N   UNL     1       5.820   9.066   5.536  0.00  0.00    +0.383 N 
ATOM     34  H   UNL     1       4.937   9.545   5.750  0.00  0.00    -0.081 HD
ENDBRANCH  23  33
ENDBRANCH  22  23
ENDBRANCH  21  22
ENDBRANCH  19  21
ENDBRANCH   3  17
BRANCH   1  35
ATOM     35  C   UNL     1       2.322   4.533  -2.236  0.00  0.00    +0.111 C 
BRANCH  35  37
ATOM     36  C   UNL     1       0.153   3.853  -3.271  0.00  0.00    +0.009 C 
ATOM     37  C   UNL     1       1.651   3.551  -3.199  0.00  0.00    +0.000 C 
ATOM     38  C   UNL     1       2.268   3.699  -4.591  0.00  0.00    +0.009 C 
ENDBRANCH  35  37
ENDBRANCH   1  35
TORSDOF 8
