REMARK  Name = ZINC43263350
REMARK  8 active torsions:
REMARK  status: ('A' for Active; 'I' for Inactive)
REMARK    1  A    between atoms: C_1  and  C_2
REMARK    2  A    between atoms: C_2  and  C_3
REMARK    3  A    between atoms: C_3  and  C_5
REMARK    4  A    between atoms: C_3  and  N_23
REMARK    5  A    between atoms: C_5  and  C_7
REMARK    6  A    between atoms: C_5  and  N_13
REMARK    7  A    between atoms: N_16  and  C_21
REMARK    8  A    between atoms: C_21  and  C_22
REMARK                            x       y       z     vdW  Elec       q    Type
REMARK                         _______ _______ _______ _____ _____    ______ ____
ROOT
ATOM      1  C   UNL     1       0.872  -2.034   1.171  0.00  0.00    +0.099 C 
ENDROOT
BRANCH   1   2
ATOM      2  N   UNL     1       1.622  -2.405  -0.032  0.00  0.00    -0.286 N 
ATOM      3  C   UNL     1       0.998  -3.251  -1.049  0.00  0.00    +0.128 C 
ATOM      4  C   UNL     1       1.418  -2.805  -2.447  0.00  0.00    +0.127 C 
ATOM      5  N   UNL     1       2.875  -2.703  -2.538  0.00  0.00    -0.293 N 
ATOM      6  C   UNL     1       3.588  -2.241  -1.490  0.00  0.00    +0.302 C 
ATOM      7  O   UNL     1       4.782  -2.052  -1.595  0.00  0.00    -0.265 OA
ATOM      8  C   UNL     1       2.884  -1.961  -0.200  0.00  0.00    +0.302 C 
ATOM      9  O   UNL     1       3.443  -1.346   0.684  0.00  0.00    -0.265 OA
BRANCH   5  10
ATOM     10  C   UNL     1       3.560  -3.103  -3.769  0.00  0.00    +0.105 C 
ATOM     11  C   UNL     1       3.673  -1.898  -4.705  0.00  0.00    +0.024 C 
ENDBRANCH   5  10
ENDBRANCH   1   2
BRANCH   1  12
ATOM     12  C   UNL     1       1.601  -2.533   2.392  0.00  0.00    +0.010 A 
ATOM     13  C   UNL     1       1.095  -3.092   3.518  0.00  0.00    +0.014 A 
ATOM     14  C   UNL     1       1.963  -3.480   4.522  0.00  0.00    +0.023 A 
ATOM     15  C   UNL     1       3.295  -3.289   4.349  0.00  0.00    +0.055 A 
ATOM     16  S   UNL     1       3.354  -2.548   2.726  0.00  0.00    -0.085 S 
ATOM     17 BR   UNL     1       4.720  -3.707   5.521  0.00  0.00    -0.043 Br
ENDBRANCH   1  12
BRANCH   1  18
ATOM     18  C   UNL     1       0.742  -0.511   1.242  0.00  0.00    -0.050 C 
BRANCH  18  19
ATOM     19  N   UNL     1      -0.010  -0.139   2.447  0.00  0.00    +0.381 N 
ATOM     20  H   UNL     1       0.478  -0.473   3.265  0.00  0.00    -0.090 HD
ATOM     21  H   UNL     1      -0.096   0.865   2.494  0.00  0.00    -0.090 HD
ATOM     22  H   UNL     1      -0.929  -0.554   2.411  0.00  0.00    -0.090 HD
ENDBRANCH  18  19
BRANCH  18  24
ATOM     23  C   UNL     1      -0.019   1.526   0.010  0.00  0.00    +0.002 C 
ATOM     24  C   UNL     1       0.002  -0.004   0.002  0.00  0.00    -0.018 C 
ENDBRANCH  18  24
ENDBRANCH   1  18
TORSDOF 6
