REMARK  Name = ZINC28121101
REMARK  7 active torsions:
REMARK  status: ('A' for Active; 'I' for Inactive)
REMARK    1  A    between atoms: C_1  and  C_2
REMARK    2  A    between atoms: C_2  and  C_3
REMARK    3  A    between atoms: C_4  and  C_24
REMARK    4  A    between atoms: C_10  and  O_23
REMARK    5  A    between atoms: C_11  and  C_14
REMARK    6  A    between atoms: C_14  and  N_15
REMARK    7  A    between atoms: C_20  and  C_22
REMARK                            x       y       z     vdW  Elec       q    Type
REMARK                         _______ _______ _______ _____ _____    ______ ____
ROOT
ATOM      1  C   UNL     1      -5.800   5.134   0.919  0.00  0.00    +0.119 A 
ATOM      2  C   UNL     1      -6.360   5.503   2.105  0.00  0.00    +0.092 A 
ATOM      3  C   UNL     1      -5.472   5.900   3.213  0.00  0.00    +0.202 A 
ATOM      4  O   UNL     1      -5.915   6.240   4.296  0.00  0.00    -0.286 OA
ATOM      5  C   UNL     1      -4.023   5.867   2.946  0.00  0.00    +0.065 A 
ATOM      6  C   UNL     1      -3.098   6.224   3.928  0.00  0.00    +0.019 A 
ATOM      7  C   UNL     1      -1.762   6.182   3.648  0.00  0.00    +0.046 A 
ATOM      8  C   UNL     1      -1.319   5.785   2.388  0.00  0.00    +0.122 A 
ATOM      9  C   UNL     1      -2.225   5.428   1.403  0.00  0.00    +0.020 A 
ATOM     10  C   UNL     1      -3.587   5.470   1.669  0.00  0.00    +0.144 A 
ATOM     11  O   UNL     1      -4.481   5.120   0.723  0.00  0.00    -0.458 OA
ENDROOT
BRANCH   2  12
ATOM     12  C   UNL     1      -7.826   5.503   2.277  0.00  0.00    +0.116 A 
ATOM     13  N   UNL     1      -8.760   5.188   1.405  0.00  0.00    -0.239 NA
ATOM     14  C   UNL     1     -10.074   5.230   1.704  0.00  0.00    +0.079 A 
ATOM     15  C   UNL     1     -11.171   4.914   0.869  0.00  0.00    +0.029 A 
ATOM     16  C   UNL     1     -12.448   5.016   1.326  0.00  0.00    +0.002 A 
ATOM     17  C   UNL     1     -12.727   5.430   2.621  0.00  0.00    +0.001 A 
ATOM     18  C   UNL     1     -11.683   5.748   3.470  0.00  0.00    +0.017 A 
ATOM     19  C   UNL     1     -10.391   5.649   3.018  0.00  0.00    +0.040 A 
ATOM     20  S   UNL     1      -8.785   5.941   3.720  0.00  0.00    -0.067 S 
ENDBRANCH   2  12
BRANCH   1  22
ATOM     21  C   UNL     1      -7.064   5.959  -1.049  0.00  0.00    +0.012 C 
ATOM     22  C   UNL     1      -6.706   4.727  -0.215  0.00  0.00    +0.072 C 
ENDBRANCH   1  22
BRANCH   8  23
ATOM     23  O   UNL     1       0.011   5.748   2.123  0.00  0.00    -0.506 OA
ATOM     24  H   UNL     1       0.366   5.435   1.130  0.00  0.00    +0.292 HD
ENDBRANCH   8  23
BRANCH   9  25
ATOM     25  C   UNL     1      -1.734   5.000   0.044  0.00  0.00    -0.035 C 
BRANCH  25  26
ATOM     26  N   UNL     1      -1.525   3.546   0.035  0.00  0.00    +0.384 N 
ATOM     27  C   UNL     1      -0.804   3.109   1.238  0.00  0.00    -0.078 C 
ATOM     28  C   UNL     1      -0.732   1.581   1.266  0.00  0.00    -0.019 C 
ATOM     29  C   UNL     1      -0.013   1.086   0.008  0.00  0.00    -0.003 C 
ATOM     30  C   UNL     1      -0.756   1.594  -1.230  0.00  0.00    -0.016 C 
ATOM     31  C   UNL     1      -0.826   3.122  -1.185  0.00  0.00    -0.071 C 
ATOM     32  C   UNL     1      -1.586   3.634  -2.411  0.00  0.00    -0.013 C 
ATOM     33  H   UNL     1      -2.512   3.061   0.041  0.00  0.00    -0.081 HD
ENDBRANCH  25  26
ENDBRANCH   9  25
TORSDOF 5
