REMARK  Name = ZINC55273475
REMARK  4 active torsions:
REMARK  status: ('A' for Active; 'I' for Inactive)
REMARK    1  A    between atoms: C_1  and  C_2
REMARK    2  A    between atoms: C_4  and  C_7
REMARK    3  A    between atoms: C_7  and  C_8
REMARK    4  A    between atoms: C_10  and  C_13
REMARK                            x       y       z     vdW  Elec       q    Type
REMARK                         _______ _______ _______ _____ _____    ______ ____
ROOT
ATOM      1  C   UNL     1      -2.899  -2.787   1.164  0.00  0.00    +0.178 A 
ATOM      2  N   UNL     1      -2.792  -3.318   2.387  0.00  0.00    -0.194 NA
ATOM      3  C   UNL     1      -3.725  -2.843   3.164  0.00  0.00    +0.245 A 
ATOM      4  O   UNL     1      -4.466  -1.984   2.453  0.00  0.00    -0.337 OA
ATOM      5  N   UNL     1      -3.904  -1.959   1.150  0.00  0.00    -0.061 NA
ENDROOT
BRANCH   3   6
ATOM      6  C   UNL     1      -3.934  -3.200   4.614  0.00  0.00    +0.164 C 
ATOM      7  C   UNL     1      -3.467  -2.080   5.522  0.00  0.00    -0.001 C 
ATOM      8  C   UNL     1      -4.360  -1.516   6.282  0.00  0.00    +0.031 C 
ATOM      9  C   UNL     1      -5.763  -1.973   6.238  0.00  0.00    +0.089 C 
ATOM     10  S   UNL     1      -5.726  -3.281   5.021  0.00  0.00    -0.089 S 
ATOM     11  N   UNL     1      -6.783  -1.529   6.922  0.00  0.00    -0.293 NA
ATOM     12  H   UNL     1      -7.660  -1.923   6.795  0.00  0.00    +0.187 HD
ENDBRANCH   3   6
BRANCH   1  13
ATOM     13  C   UNL     1      -1.999  -3.093  -0.006  0.00  0.00    +0.135 C 
BRANCH  13  17
ATOM     14  C   UNL     1      -0.018   1.503   0.010  0.00  0.00    +0.073 C 
ATOM     15  C   UNL     1       0.002  -0.004   0.002  0.00  0.00    +0.076 A 
ATOM     16  N   UNL     1      -1.013  -0.832   0.002  0.00  0.00    -0.249 NA
ATOM     17  C   UNL     1      -0.834  -2.137  -0.006  0.00  0.00    +0.056 A 
ATOM     18  C   UNL     1       0.449  -2.582  -0.014  0.00  0.00    +0.070 A 
ATOM     19  S   UNL     1       1.335  -1.032  -0.017  0.00  0.00    -0.081 S 
ENDBRANCH  13  17
ENDBRANCH   1  13
TORSDOF 3
