REMARK  Name = ZINC16754233
REMARK  5 active torsions:
REMARK  status: ('A' for Active; 'I' for Inactive)
REMARK    1  A    between atoms: N_11  and  C_15
REMARK    2  A    between atoms: C_15  and  C_16
REMARK    3  A    between atoms: N_18  and  C_19
REMARK    4  A    between atoms: C_22  and  S_25
REMARK    5  A    between atoms: S_25  and  N_28
REMARK                            x       y       z     vdW  Elec       q    Type
REMARK                         _______ _______ _______ _____ _____    ______ ____
ROOT
ATOM      1  C   UNL     1      -2.829  -7.524   1.463  0.00  0.00    +0.001 A 
ATOM      2  C   UNL     1      -3.100  -8.072   2.703  0.00  0.00    +0.004 A 
ATOM      3  C   UNL     1      -2.358  -7.688   3.801  0.00  0.00    +0.046 A 
ATOM      4  C   UNL     1      -1.338  -6.752   3.666  0.00  0.00    +0.135 A 
ATOM      5  C   UNL     1      -1.065  -6.208   2.422  0.00  0.00    +0.004 A 
ATOM      6  C   UNL     1      -1.816  -6.596   1.324  0.00  0.00    +0.008 A 
ATOM      7  C   UNL     1       0.034  -5.200   2.228  0.00  0.00    +0.076 C 
ATOM      8  C   UNL     1      -0.303  -4.218   1.167  0.00  0.00    +0.033 A 
ATOM      9  C   UNL     1      -0.604  -2.907   1.276  0.00  0.00    +0.090 A 
ATOM     10  N   UNL     1      -0.875  -2.244   0.103  0.00  0.00    -0.288 N 
ATOM     11  C   UNL     1      -0.838  -2.902  -1.073  0.00  0.00    +0.292 A 
ATOM     12  O   UNL     1      -1.053  -2.477  -2.194  0.00  0.00    -0.259 OA
ATOM     13  S   UNL     1      -0.403  -4.509  -0.584  0.00  0.00    -0.030 S 
ATOM     14  S   UNL     1      -0.635  -2.125   2.876  0.00  0.00    -0.106 S 
ATOM     15  C   UNL     1      -0.672  -3.559   3.993  0.00  0.00    +0.091 C 
ATOM     16  C   UNL     1       0.409  -4.554   3.555  0.00  0.00    +0.121 C 
ATOM     17  C   UNL     1       0.475  -5.660   4.594  0.00  0.00    +0.317 C 
ATOM     18  O   UNL     1       1.482  -5.876   5.226  0.00  0.00    -0.250 OA
ATOM     19  O   UNL     1      -0.643  -6.389   4.778  0.00  0.00    -0.425 OA
ENDROOT
BRANCH  10  20
ATOM     20  C   UNL     1      -1.211  -0.819   0.131  0.00  0.00    +0.222 C 
BRANCH  20  21
ATOM     21  C   UNL     1       0.050  -0.003   0.007  0.00  0.00    +0.237 C 
ATOM     22  O   UNL     1       1.123  -0.557  -0.094  0.00  0.00    -0.274 OA
ATOM     23  N   UNL     1      -0.016   1.344   0.009  0.00  0.00    -0.284 N 
ATOM     24  H   UNL     1      -0.879   1.787   0.019  0.00  0.00    +0.155 HD
BRANCH  23  25
ATOM     25  C   UNL     1       1.160   2.102  -0.008  0.00  0.00    +0.034 A 
ATOM     26  C   UNL     1       1.221   3.307   0.679  0.00  0.00    +0.025 A 
ATOM     27  C   UNL     1       2.385   4.051   0.664  0.00  0.00    +0.030 A 
ATOM     28  C   UNL     1       3.485   3.600  -0.041  0.00  0.00    +0.105 A 
ATOM     29  C   UNL     1       3.426   2.403  -0.730  0.00  0.00    +0.030 A 
ATOM     30  C   UNL     1       2.267   1.652  -0.715  0.00  0.00    +0.025 A 
BRANCH  28  31
ATOM     31  S   UNL     1       4.966   4.555  -0.063  0.00  0.00    +0.056 S 
ATOM     32  O   UNL     1       4.944   5.365   1.104  0.00  0.00    -0.153 OA
ATOM     33  O   UNL     1       6.027   3.653  -0.345  0.00  0.00    -0.153 OA
BRANCH  31  34
ATOM     34  N   UNL     1       4.865   5.585  -1.356  0.00  0.00    -0.204 NA
ATOM     35  H   UNL     1       5.307   6.448  -1.324  0.00  0.00    +0.144 HD
ATOM     36  H   UNL     1       4.365   5.326  -2.145  0.00  0.00    +0.144 HD
ENDBRANCH  31  34
ENDBRANCH  28  31
ENDBRANCH  23  25
ENDBRANCH  20  21
ENDBRANCH  10  20
TORSDOF 5
