REMARK  Name = ZINC08743805
REMARK  2 active torsions:
REMARK  status: ('A' for Active; 'I' for Inactive)
REMARK    1  A    between atoms: C_6  and  N_7
REMARK    2  A    between atoms: C_13  and  C_15
REMARK                            x       y       z     vdW  Elec       q    Type
REMARK                         _______ _______ _______ _____ _____    ______ ____
ROOT
ATOM      1  N   UNL     1      -1.168  -0.739  -0.051  0.00  0.00    -0.327 N 
ATOM      2  C   UNL     1      -2.451  -0.042   0.115  0.00  0.00    +0.124 C 
ATOM      3  C   UNL     1      -3.371  -0.426  -1.050  0.00  0.00    +0.127 C 
ATOM      4  N   UNL     1      -3.372  -1.889  -1.185  0.00  0.00    -0.293 N 
ATOM      5  C   UNL     1      -2.089  -2.586  -1.351  0.00  0.00    +0.127 C 
ATOM      6  C   UNL     1      -1.169  -2.202  -0.191  0.00  0.00    +0.124 C 
ATOM      7  C   UNL     1      -4.529  -2.580  -1.157  0.00  0.00    +0.267 C 
ATOM      8  O   UNL     1      -5.590  -1.988  -1.130  0.00  0.00    -0.268 OA
ENDROOT
BRANCH   7   9
ATOM      9  C   UNL     1      -4.508  -4.057  -1.160  0.00  0.00    +0.150 A 
ATOM     10  C   UNL     1      -5.618  -4.912  -1.256  0.00  0.00    +0.005 A 
ATOM     11  C   UNL     1      -5.122  -6.173  -1.216  0.00  0.00    +0.040 A 
ATOM     12  N   UNL     1      -3.787  -6.072  -1.104  0.00  0.00    -0.281 N 
ATOM     13  H   UNL     1      -3.175  -6.822  -1.056  0.00  0.00    +0.189 HD
ATOM     14  N   UNL     1      -3.440  -4.832  -1.077  0.00  0.00    -0.169 NA
ATOM     15  C   UNL     1      -5.974  -7.414  -1.287  0.00  0.00    +0.055 C 
ATOM     16  C   UNL     1      -7.427  -7.020  -0.989  0.00  0.00    +0.006 C 
ATOM     17  C   UNL     1      -7.825  -5.825  -1.860  0.00  0.00    +0.005 C 
ATOM     18  C   UNL     1      -7.078  -4.572  -1.383  0.00  0.00    +0.039 C 
ENDBRANCH   7   9
BRANCH   1  24
ATOM     19  C   UNL     1       1.245  -0.698  -0.126  0.00  0.00    +0.026 A 
ATOM     20  C   UNL     1       2.429   0.012  -0.155  0.00  0.00    +0.040 A 
ATOM     21  C   UNL     1       2.408   1.396  -0.138  0.00  0.00    +0.124 A 
ATOM     22  C   UNL     1       1.201   2.072  -0.091  0.00  0.00    +0.040 A 
ATOM     23  C   UNL     1       0.014   1.366  -0.061  0.00  0.00    +0.026 A 
ATOM     24  C   UNL     1       0.032  -0.022  -0.080  0.00  0.00    +0.030 A 
ATOM     25  F   UNL     1       3.568   2.089  -0.166  0.00  0.00    -0.205 F 
ENDBRANCH   1  24
TORSDOF 2
