REMARK  Name = ZINC09981517
REMARK  7 active torsions:
REMARK  status: ('A' for Active; 'I' for Inactive)
REMARK    1  A    between atoms: C_1  and  C_2
REMARK    2  A    between atoms: C_4  and  C_9
REMARK    3  A    between atoms: C_5  and  S_7
REMARK    4  A    between atoms: S_7  and  C_8
REMARK    5  A    between atoms: C_11  and  C_29
REMARK    6  A    between atoms: C_12  and  N_28
REMARK    7  A    between atoms: N_13  and  C_21
REMARK                            x       y       z     vdW  Elec       q    Type
REMARK                         _______ _______ _______ _____ _____    ______ ____
ROOT
ATOM      1  C   UNL     1      -2.522   2.280  -2.271  0.00  0.00    +0.099 C 
ATOM      2  C   UNL     1      -3.997   2.555  -2.289  0.00  0.00    +0.077 C 
ATOM      3  C   UNL     1      -4.763   2.348  -1.187  0.00  0.00    +0.107 C 
ATOM      4  N   UNL     1      -4.190   1.886  -0.024  0.00  0.00    -0.260 N 
ATOM      5  C   UNL     1      -2.840   2.001   0.181  0.00  0.00    +0.024 C 
ATOM      6  C   UNL     1      -2.001   2.200  -0.858  0.00  0.00    +0.025 C 
ATOM      7  C   UNL     1      -0.617   2.336  -0.655  0.00  0.00    +0.162 C 
ATOM      8  O   UNL     1       0.113   2.502  -1.613  0.00  0.00    -0.292 OA
ATOM      9  C   UNL     1      -0.021   2.278   0.724  0.00  0.00    +0.080 C 
ATOM     10  C   UNL     1      -1.060   2.764   1.740  0.00  0.00    +0.014 C 
ATOM     11  C   UNL     1      -2.318   1.902   1.593  0.00  0.00    +0.052 C 
ENDROOT
BRANCH   4  12
ATOM     12  C   UNL     1      -4.993   1.294   0.958  0.00  0.00    +0.041 A 
ATOM     13  C   UNL     1      -5.616   2.084   1.916  0.00  0.00    +0.024 A 
ATOM     14  C   UNL     1      -6.408   1.498   2.884  0.00  0.00    +0.003 A 
ATOM     15  C   UNL     1      -6.583   0.126   2.899  0.00  0.00    +0.020 A 
ATOM     16  C   UNL     1      -5.964  -0.664   1.946  0.00  0.00    +0.043 A 
ATOM     17  C   UNL     1      -5.174  -0.082   0.972  0.00  0.00    +0.043 A 
ATOM     18 CL   UNL     1      -6.187  -2.385   1.969  0.00  0.00    -0.083 Cl
ENDBRANCH   4  12
BRANCH   1  22
ATOM     19  C   UNL     1      -2.988  -2.763  -2.813  0.00  0.00    +0.051 C 
ATOM     20  C   UNL     1      -2.528  -1.365  -3.140  0.00  0.00    -0.012 A 
ATOM     21  C   UNL     1      -2.784  -0.209  -2.483  0.00  0.00    +0.016 A 
ATOM     22  C   UNL     1      -2.254   0.973  -2.971  0.00  0.00    -0.014 A 
ATOM     23  C   UNL     1      -1.481   0.931  -4.093  0.00  0.00    +0.049 A 
ATOM     24  S   UNL     1      -1.498  -0.809  -4.488  0.00  0.00    -0.087 S 
BRANCH  23  25
ATOM     25  S   UNL     1      -0.675   2.253  -4.934  0.00  0.00    -0.121 S 
ATOM     26  C   UNL     1       0.158   1.443  -6.327  0.00  0.00    +0.090 C 
ENDBRANCH  23  25
ENDBRANCH   1  22
BRANCH   3  27
ATOM     27  N   UNL     1      -6.114   2.601  -1.233  0.00  0.00    -0.345 N 
ATOM     28  H   UNL     1      -6.646   2.538  -0.425  0.00  0.00    +0.144 HD
ATOM     29  H   UNL     1      -6.533   2.842  -2.074  0.00  0.00    +0.144 HD
ENDBRANCH   3  27
BRANCH   2  30
ATOM     30  C   UNL     1      -4.607   3.043  -3.490  0.00  0.00    +0.099 C 
ATOM     31  N   UNL     1      -5.091   3.430  -4.442  0.00  0.00    -0.191 NA
ENDBRANCH   2  30
TORSDOF 5
