REMARK  Name = ZINC05722451
REMARK  10 active torsions:
REMARK  status: ('A' for Active; 'I' for Inactive)
REMARK    1  A    between atoms: C_4  and  O_36
REMARK    2  A    between atoms: C_5  and  C_7
REMARK    3  A    between atoms: N_9  and  N_10
REMARK    4  A    between atoms: C_11  and  C_12
REMARK    5  A    between atoms: C_11  and  C_23
REMARK    6  A    between atoms: C_12  and  C_14
REMARK    7  A    between atoms: C_12  and  C_16
REMARK    8  A    between atoms: C_23  and  C_25
REMARK    9  A    between atoms: C_25  and  C_27
REMARK   10  A    between atoms: C_25  and  C_29
REMARK                            x       y       z     vdW  Elec       q    Type
REMARK                         _______ _______ _______ _____ _____    ______ ____
ROOT
ATOM      1  N   UNL     1       1.336   3.449   0.737  0.00  0.00    -0.179 NA
ATOM      2  C   UNL     1       2.442   3.783   0.133  0.00  0.00    +0.124 C 
ENDROOT
BRANCH   1   5
ATOM      3  C   UNL     1       0.019   1.794   1.829  0.00  0.00    +0.267 C 
ATOM      4  O   UNL     1      -0.931   2.552   1.809  0.00  0.00    -0.268 OA
ATOM      5  N   UNL     1       1.183   2.156   1.255  0.00  0.00    -0.202 N 
ATOM      6  H   UNL     1       1.915   1.523   1.201  0.00  0.00    +0.178 HD
BRANCH   3  11
ATOM      7  C   UNL     1       0.811  -1.688   2.983  0.00  0.00    +0.001 A 
ATOM      8  C   UNL     1      -0.336  -2.008   3.691  0.00  0.00    +0.004 A 
ATOM      9  C   UNL     1      -1.369  -1.098   3.796  0.00  0.00    +0.046 A 
ATOM     10  C   UNL     1      -1.264   0.146   3.192  0.00  0.00    +0.129 A 
ATOM     11  C   UNL     1      -0.105   0.474   2.475  0.00  0.00    +0.080 A 
ATOM     12  C   UNL     1       0.931  -0.459   2.372  0.00  0.00    +0.017 A 
BRANCH  10  13
ATOM     13  O   UNL     1      -2.278   1.041   3.294  0.00  0.00    -0.506 OA
ATOM     14  H   UNL     1      -2.935   0.973   2.588  0.00  0.00    +0.292 HD
ENDBRANCH  10  13
ENDBRANCH   3  11
ENDBRANCH   1   5
BRANCH   2  15
ATOM     15  C   UNL     1       2.527   5.013  -0.559  0.00  0.00    +0.201 C 
ATOM     16  O   UNL     1       3.557   5.324  -1.121  0.00  0.00    -0.289 OA
BRANCH  15  17
ATOM     17  C   UNL     1       1.338   5.938  -0.599  0.00  0.00    +0.193 C 
BRANCH  17  18
ATOM     18  C   UNL     1       1.809   7.353  -0.819  0.00  0.00    -0.023 A 
ATOM     19  C   UNL     1       2.525   7.673  -1.957  0.00  0.00    +0.007 A 
ATOM     20  C   UNL     1       2.953   8.971  -2.162  0.00  0.00    +0.020 A 
ATOM     21  C   UNL     1       2.673   9.948  -1.223  0.00  0.00    +0.041 A 
ATOM     22  C   UNL     1       1.961   9.626  -0.082  0.00  0.00    +0.020 A 
ATOM     23  C   UNL     1       1.529   8.328   0.120  0.00  0.00    +0.007 A 
ATOM     24 CL   UNL     1       3.216  11.577  -1.477  0.00  0.00    -0.084 Cl
ENDBRANCH  17  18
BRANCH  17  25
ATOM     25  C   UNL     1       0.444   5.542  -1.699  0.00  0.00    +0.079 C 
ATOM     26  N   UNL     1      -0.245   5.236  -2.549  0.00  0.00    -0.195 NA
ENDBRANCH  17  25
ENDBRANCH  15  17
ENDBRANCH   2  15
BRANCH   2  27
ATOM     27  C   UNL     1       3.631   2.858   0.173  0.00  0.00    +0.175 C 
BRANCH  27  28
ATOM     28  C   UNL     1       3.714   2.091  -1.121  0.00  0.00    -0.025 A 
ATOM     29  C   UNL     1       3.852   2.768  -2.319  0.00  0.00    +0.007 A 
ATOM     30  C   UNL     1       3.934   2.064  -3.506  0.00  0.00    +0.020 A 
ATOM     31  C   UNL     1       3.866   0.682  -3.496  0.00  0.00    +0.041 A 
ATOM     32  C   UNL     1       3.723   0.005  -2.298  0.00  0.00    +0.020 A 
ATOM     33  C   UNL     1       3.647   0.710  -1.111  0.00  0.00    +0.007 A 
ATOM     34 CL   UNL     1       3.962  -0.202  -4.987  0.00  0.00    -0.084 Cl
ENDBRANCH  27  28
BRANCH  27  35
ATOM     35  C   UNL     1       4.861   3.647   0.355  0.00  0.00    +0.077 C 
ATOM     36  N   UNL     1       5.810   4.256   0.496  0.00  0.00    -0.196 NA
ENDBRANCH  27  35
ENDBRANCH   2  27
TORSDOF 10
