REMARK  Name = ZINC19955707
REMARK  10 active torsions:
REMARK  status: ('A' for Active; 'I' for Inactive)
REMARK    1  A    between atoms: C_1  and  C_2
REMARK    2  A    between atoms: C_3  and  C_32
REMARK    3  A    between atoms: C_4  and  C_23
REMARK    4  A    between atoms: C_10  and  C_15
REMARK    5  A    between atoms: C_20  and  O_21
REMARK    6  A    between atoms: O_21  and  C_22
REMARK    7  A    between atoms: C_27  and  N_29
REMARK    8  A    between atoms: C_32  and  O_34
REMARK    9  A    between atoms: O_34  and  C_35
REMARK   10  A    between atoms: C_35  and  C_36
REMARK                            x       y       z     vdW  Elec       q    Type
REMARK                         _______ _______ _______ _____ _____    ______ ____
ROOT
ATOM      1  C   UNL     1       2.560   6.533   2.538  0.00  0.00    +0.061 C 
ATOM      2  C   UNL     1       1.884   6.197   1.234  0.00  0.00    +0.016 C 
ATOM      3  C   UNL     1       0.641   5.684   1.239  0.00  0.00    +0.065 C 
ATOM      4  C   UNL     1      -0.060   5.330  -0.040  0.00  0.00    +0.092 C 
ATOM      5  C   UNL     1       0.594   6.003  -1.220  0.00  0.00    +0.024 C 
ATOM      6  C   UNL     1       1.846   6.500  -1.123  0.00  0.00    +0.016 C 
ATOM      7  N   UNL     1       2.539   6.414   0.054  0.00  0.00    -0.321 N 
ATOM      8  C   UNL     1       2.514   7.156  -2.306  0.00  0.00    +0.060 C 
ATOM      9  C   UNL     1       1.457   7.830  -3.185  0.00  0.00    +0.035 C 
ATOM     10  C   UNL     1       0.450   6.766  -3.634  0.00  0.00    +0.088 C 
ATOM     11  C   UNL     1      -0.134   6.099  -2.418  0.00  0.00    +0.162 C 
ATOM     12  O   UNL     1      -1.256   5.635  -2.474  0.00  0.00    -0.292 OA
ATOM     13  H   UNL     1       3.634   6.523   0.044  0.00  0.00    +0.152 HD
ENDROOT
BRANCH   9  14
ATOM     14  C   UNL     1       2.118   8.443  -4.392  0.00  0.00    -0.002 A 
ATOM     15  C   UNL     1       2.845   7.651  -5.259  0.00  0.00    +0.007 A 
ATOM     16  C   UNL     1       3.448   8.213  -6.370  0.00  0.00    +0.001 A 
ATOM     17  C   UNL     1       3.333   9.570  -6.610  0.00  0.00    +0.004 A 
ATOM     18  C   UNL     1       2.611  10.367  -5.743  0.00  0.00    +0.046 A 
ATOM     19  C   UNL     1       2.001   9.805  -4.631  0.00  0.00    +0.124 A 
BRANCH  19  20
ATOM     20  O   UNL     1       1.290  10.587  -3.777  0.00  0.00    -0.495 OA
ATOM     21  C   UNL     1       1.212  11.980  -4.085  0.00  0.00    +0.277 C 
ENDBRANCH  19  20
ENDBRANCH   9  14
BRANCH   4  22
ATOM     22  C   UNL     1      -0.013   3.837  -0.233  0.00  0.00    -0.033 A 
ATOM     23  C   UNL     1       1.206   3.190  -0.325  0.00  0.00    +0.005 A 
ATOM     24  C   UNL     1       1.249   1.820  -0.502  0.00  0.00    +0.003 A 
ATOM     25  C   UNL     1       0.074   1.096  -0.586  0.00  0.00    +0.033 A 
ATOM     26  C   UNL     1      -1.144   1.743  -0.499  0.00  0.00    +0.126 A 
ATOM     27  C   UNL     1      -1.187   3.113  -0.318  0.00  0.00    +0.037 A 
BRANCH  26  28
ATOM     28  N   UNL     1      -2.402   0.969  -0.595  0.00  0.00    +0.056 N 
ATOM     29  O   UNL     1      -2.364  -0.238  -0.750  0.00  0.00    -0.126 OA
ATOM     30  O   UNL     1      -3.475   1.540  -0.518  0.00  0.00    -0.126 OA
ENDBRANCH  26  28
ENDBRANCH   4  22
BRANCH   3  31
ATOM     31  C   UNL     1      -0.017   5.474   2.473  0.00  0.00    +0.338 C 
ATOM     32  O   UNL     1      -0.915   6.219   2.818  0.00  0.00    -0.245 OA
BRANCH  31  33
ATOM     33  O   UNL     1       0.350   4.446   3.267  0.00  0.00    -0.459 OA
BRANCH  33  34
ATOM     34  C   UNL     1      -0.359   4.293   4.499  0.00  0.00    +0.264 C 
BRANCH  34  35
ATOM     35  C   UNL     1       0.193   3.085   5.258  0.00  0.00    +0.156 C 
ATOM     36  C   UNL     1      -0.499   2.954   6.638  0.00  0.00    +0.037 C 
ATOM     37  C   UNL     1      -0.318   1.436   6.915  0.00  0.00    +0.031 C 
ATOM     38  C   UNL     1      -0.418   0.829   5.499  0.00  0.00    +0.160 C 
ATOM     39  O   UNL     1      -0.125   1.870   4.560  0.00  0.00    -0.373 OA
ENDBRANCH  34  35
ENDBRANCH  33  34
ENDBRANCH  31  33
ENDBRANCH   3  31
TORSDOF 8
