REMARK  Name = ZINC35300129
REMARK  4 active torsions:
REMARK  status: ('A' for Active; 'I' for Inactive)
REMARK    1  A    between atoms: C_6  and  C_12
REMARK    2  A    between atoms: C_7  and  C_10
REMARK    3  A    between atoms: C_12  and  N_13
REMARK    4  A    between atoms: C_16  and  C_19
REMARK                            x       y       z     vdW  Elec       q    Type
REMARK                         _______ _______ _______ _____ _____    ______ ____
ROOT
ATOM      1  C   UNL     1      -0.016   1.359   0.009  0.00  0.00    +0.003 A 
ATOM      2  C   UNL     1       1.196   2.067   0.002  0.00  0.00    +0.018 A 
ATOM      3  C   UNL     1       2.372   1.405  -0.013  0.00  0.00    +0.091 A 
ATOM      4  N   UNL     1       2.406   0.038  -0.021  0.00  0.00    -0.322 N 
ATOM      5  C   UNL     1       3.455  -0.842  -0.035  0.00  0.00    +0.094 A 
ATOM      6  C   UNL     1       2.986  -2.103  -0.038  0.00  0.00    -0.028 A 
ATOM      7  C   UNL     1       1.571  -2.039  -0.024  0.00  0.00    +0.078 A 
ATOM      8  C   UNL     1       1.235  -0.674  -0.013  0.00  0.00    +0.064 A 
ATOM      9  C   UNL     1       0.002  -0.004   0.002  0.00  0.00    +0.027 A 
ENDROOT
BRANCH   7  10
ATOM     10  C   UNL     1       0.662  -3.146  -0.022  0.00  0.00    +0.101 C 
ATOM     11  N   UNL     1      -0.059  -4.024  -0.020  0.00  0.00    -0.191 NA
ENDBRANCH   7  10
BRANCH   6  12
ATOM     12  C   UNL     1       3.817  -3.360  -0.053  0.00  0.00    -0.040 C 
BRANCH  12  13
ATOM     13  N   UNL     1       3.874  -3.893  -1.421  0.00  0.00    +0.382 N 
ATOM     14  C   UNL     1       4.579  -2.941  -2.287  0.00  0.00    -0.078 C 
ATOM     15  C   UNL     1       4.570  -3.453  -3.728  0.00  0.00    -0.004 C 
ATOM     16  C   UNL     1       5.272  -4.813  -3.785  0.00  0.00    +0.099 C 
ATOM     17  C   UNL     1       4.574  -5.777  -2.822  0.00  0.00    -0.004 C 
ATOM     18  C   UNL     1       4.582  -5.179  -1.414  0.00  0.00    -0.078 C 
ATOM     19  H   UNL     1       2.936  -4.029  -1.767  0.00  0.00    -0.081 HD
BRANCH  16  20
ATOM     20  C   UNL     1       5.198  -5.360  -5.188  0.00  0.00    +0.359 C 
ATOM     21  O   UNL     1       6.161  -5.931  -5.671  0.00  0.00    -0.246 OA
ATOM     22  O   UNL     1       4.176  -5.232  -5.839  0.00  0.00    -0.246 OA
ENDBRANCH  16  20
ENDBRANCH  12  13
ENDBRANCH   6  12
TORSDOF 4
