REMARK  Name = ZINC05662037
REMARK  9 active torsions:
REMARK  status: ('A' for Active; 'I' for Inactive)
REMARK    1  A    between atoms: C_1  and  O_2
REMARK    2  A    between atoms: O_2  and  C_3
REMARK    3  A    between atoms: C_7  and  C_10
REMARK    4  A    between atoms: C_8  and  O_9
REMARK    5  A    between atoms: N_11  and  N_12
REMARK    6  A    between atoms: N_15  and  C_16
REMARK    7  A    between atoms: C_17  and  C_25
REMARK    8  A    between atoms: C_25  and  O_27
REMARK    9  A    between atoms: O_27  and  C_28
REMARK                            x       y       z     vdW  Elec       q    Type
REMARK                         _______ _______ _______ _____ _____    ______ ____
ROOT
ATOM      1  N   UNL     1      -1.169   3.504   0.027  0.00  0.00    -0.191 N 
ATOM      2  C   UNL     1      -2.346   4.162   0.036  0.00  0.00    +0.324 C 
ATOM      3  O   UNL     1      -2.362   5.378   0.043  0.00  0.00    -0.251 OA
ATOM      4  N   UNL     1      -3.504   3.473   0.037  0.00  0.00    -0.262 N 
ATOM      5  H   UNL     1      -0.336   4.001   0.025  0.00  0.00    +0.179 HD
ATOM      6  H   UNL     1      -3.490   2.503   0.032  0.00  0.00    +0.157 HD
ENDROOT
BRANCH   4   7
ATOM      7  C   UNL     1      -4.713   4.149   0.047  0.00  0.00    +0.088 A 
ATOM      8  C   UNL     1      -5.997   3.621   0.044  0.00  0.00    +0.091 A 
ATOM      9  C   UNL     1      -7.108   4.558   0.060  0.00  0.00    -0.021 A 
ATOM     10  C   UNL     1      -6.760   5.863   0.065  0.00  0.00    -0.004 A 
ATOM     11  S   UNL     1      -4.990   5.859   0.057  0.00  0.00    -0.077 S 
ATOM     12  C   UNL     1      -7.681   7.043   0.074  0.00  0.00    +0.043 C 
ATOM     13  C   UNL     1      -9.090   6.561  -0.301  0.00  0.00    +0.005 C 
ATOM     14  C   UNL     1      -9.424   5.319   0.530  0.00  0.00    +0.005 C 
ATOM     15  C   UNL     1      -8.573   4.136   0.064  0.00  0.00    +0.037 C 
BRANCH   8  16
ATOM     16  C   UNL     1      -6.224   2.174   0.031  0.00  0.00    +0.342 C 
ATOM     17  O   UNL     1      -6.316   1.564   1.079  0.00  0.00    -0.245 OA
BRANCH  16  18
ATOM     18  O   UNL     1      -6.330   1.519  -1.143  0.00  0.00    -0.464 OA
ATOM     19  C   UNL     1      -6.554   0.086  -1.080  0.00  0.00    +0.280 C 
ENDBRANCH  16  18
ENDBRANCH   8  16
ENDBRANCH   4   7
BRANCH   1  21
ATOM     20  C   UNL     1      -0.018   1.470   0.010  0.00  0.00    +0.142 C 
ATOM     21  N   UNL     1      -1.150   2.103   0.019  0.00  0.00    -0.186 NA
BRANCH  20  26
ATOM     22  C   UNL     1      -1.168  -2.113   0.002  0.00  0.00    +0.162 A 
ATOM     23  C   UNL     1       0.047  -2.780  -0.013  0.00  0.00    +0.049 A 
ATOM     24  C   UNL     1       1.234  -2.069  -0.021  0.00  0.00    +0.004 A 
ATOM     25  C   UNL     1       1.220  -0.690  -0.013  0.00  0.00    +0.013 A 
ATOM     26  C   UNL     1       0.002  -0.004   0.002  0.00  0.00    +0.040 A 
ATOM     27  C   UNL     1      -1.199  -0.724   0.015  0.00  0.00    +0.167 A 
BRANCH  22  29
ATOM     28  C   UNL     1      -2.225  -4.244   0.000  0.00  0.00    +0.277 C 
ATOM     29  O   UNL     1      -2.331  -2.818   0.009  0.00  0.00    -0.491 OA
ENDBRANCH  22  29
BRANCH  27  30
ATOM     30  O   UNL     1      -2.388  -0.067   0.036  0.00  0.00    -0.503 OA
ATOM     31  H   UNL     1      -2.745   0.128  -0.841  0.00  0.00    +0.292 HD
ENDBRANCH  27  30
ENDBRANCH  20  26
ENDBRANCH   1  21
TORSDOF 7
