REMARK  Name = ZINC39684356
REMARK  10 active torsions:
REMARK  status: ('A' for Active; 'I' for Inactive)
REMARK    1  A    between atoms: C_1  and  C_2
REMARK    2  A    between atoms: C_2  and  C_4
REMARK    3  A    between atoms: C_2  and  N_8
REMARK    4  A    between atoms: C_4  and  C_5
REMARK    5  A    between atoms: C_4  and  C_6
REMARK    6  A    between atoms: C_4  and  C_7
REMARK    7  A    between atoms: C_9  and  C_11
REMARK    8  A    between atoms: C_22  and  C_24
REMARK    9  A    between atoms: C_29  and  O_30
REMARK   10  A    between atoms: O_30  and  C_31
REMARK                            x       y       z     vdW  Elec       q    Type
REMARK                         _______ _______ _______ _____ _____    ______ ____
ROOT
ATOM      1  C   UNL     1       2.776  -1.093   2.396  0.00  0.00    +0.100 C 
ATOM      2  C   UNL     1       2.679  -0.061   3.542  0.00  0.00    +0.121 C 
ATOM      3  N   UNL     1       3.999  -0.120   4.212  0.00  0.00    -0.296 N 
ATOM      4  C   UNL     1       4.970  -0.266   3.102  0.00  0.00    +0.115 C 
ATOM      5  C   UNL     1       4.281  -1.224   2.109  0.00  0.00    -0.004 C 
ATOM      6  C   UNL     1       4.585  -0.804   0.674  0.00  0.00    -0.010 C 
ATOM      7  C   UNL     1       6.078  -0.999   0.395  0.00  0.00    -0.082 C 
ATOM      8  N   UNL     1       6.436  -2.407   0.600  0.00  0.00    +0.379 N 
ATOM      9  C   UNL     1       6.229  -2.777   2.006  0.00  0.00    -0.082 C 
ATOM     10  C   UNL     1       4.742  -2.658   2.353  0.00  0.00    -0.010 C 
ATOM     11  C   UNL     1       4.258  -0.057   5.533  0.00  0.00    +0.250 C 
ATOM     12  O   UNL     1       3.341  -0.035   6.332  0.00  0.00    -0.270 OA
ATOM     13  H   UNL     1       5.859  -2.989   0.012  0.00  0.00    -0.086 HD
ATOM     14  H   UNL     1       7.406  -2.545   0.357  0.00  0.00    -0.086 HD
ENDROOT
BRANCH  11  15
ATOM     15  C   UNL     1       5.653  -0.012   6.010  0.00  0.00    +0.078 A 
ATOM     16  C   UNL     1       6.627   0.664   5.271  0.00  0.00    +0.017 A 
ATOM     17  C   UNL     1       7.929   0.702   5.722  0.00  0.00    +0.001 A 
ATOM     18  C   UNL     1       8.277   0.072   6.906  0.00  0.00    +0.004 A 
ATOM     19  C   UNL     1       7.324  -0.600   7.646  0.00  0.00    +0.046 A 
ATOM     20  C   UNL     1       6.008  -0.643   7.210  0.00  0.00    +0.132 A 
BRANCH  20  21
ATOM     21  O   UNL     1       5.070  -1.298   7.939  0.00  0.00    -0.494 OA
ATOM     22  C   UNL     1       5.506  -1.918   9.151  0.00  0.00    +0.277 C 
ENDBRANCH  20  21
ENDBRANCH  11  15
BRANCH   1  24
ATOM     23  N   UNL     1       1.648  -1.458   0.225  0.00  0.00    -0.312 N 
ATOM     24  C   UNL     1       2.051  -0.590   1.174  0.00  0.00    +0.218 C 
ATOM     25  O   UNL     1       1.831   0.596   1.044  0.00  0.00    -0.275 OA
ATOM     26  H   UNL     1       1.824  -2.406   0.328  0.00  0.00    +0.149 HD
BRANCH  23  28
ATOM     27  C   UNL     1      -0.550  -0.840  -0.654  0.00  0.00    +0.028 C 
ATOM     28  C   UNL     1       0.943  -0.969  -0.963  0.00  0.00    +0.075 C 
BRANCH  28  29
ATOM     29  C   UNL     1       1.142  -1.955  -2.116  0.00  0.00    -0.020 C 
ATOM     30  C   UNL     1       0.406  -1.444  -3.356  0.00  0.00    +0.012 C 
ATOM     31  C   UNL     1       2.635  -2.084  -2.425  0.00  0.00    +0.012 C 
ATOM     32  C   UNL     1       0.583  -3.323  -1.718  0.00  0.00    +0.012 C 
ENDBRANCH  28  29
ENDBRANCH  23  28
ENDBRANCH   1  24
TORSDOF 5
