REMARK  Name = ZINC32655188
REMARK  6 active torsions:
REMARK  status: ('A' for Active; 'I' for Inactive)
REMARK    1  A    between atoms: C_1  and  C_2
REMARK    2  A    between atoms: C_2  and  C_36
REMARK    3  A    between atoms: C_6  and  C_26
REMARK    4  A    between atoms: C_13  and  S_17
REMARK    5  A    between atoms: S_17  and  C_18
REMARK    6  A    between atoms: C_18  and  C_19
REMARK                            x       y       z     vdW  Elec       q    Type
REMARK                         _______ _______ _______ _____ _____    ______ ____
ROOT
ATOM      1  C   UNL     1      -4.683   3.297   3.163  0.00  0.00    +0.011 C 
ATOM      2  C   UNL     1      -5.545   3.567   1.928  0.00  0.00    -0.023 C 
ATOM      3  C   UNL     1      -4.709   4.279   0.863  0.00  0.00    +0.058 C 
ATOM      4  C   UNL     1      -3.554   3.398   0.450  0.00  0.00    +0.017 C 
ATOM      5  C   UNL     1      -3.668   2.053   0.465  0.00  0.00    +0.024 C 
ATOM      6  C   UNL     1      -2.530   1.168   0.025  0.00  0.00    +0.092 C 
ATOM      7  C   UNL     1      -1.228   1.913   0.018  0.00  0.00    +0.069 A 
ATOM      8  C   UNL     1      -0.015   1.217   0.009  0.00  0.00    +0.258 A 
ATOM      9  O   UNL     1       0.002  -0.004   0.002  0.00  0.00    -0.267 OA
ATOM     10  N   UNL     1       1.138   1.920   0.002  0.00  0.00    -0.302 N 
ATOM     11  H   UNL     1       2.103   1.393  -0.011  0.00  0.00    +0.171 HD
ATOM     12  C   UNL     1       1.107   3.282   0.010  0.00  0.00    +0.171 A 
ATOM     13  N   UNL     1      -0.033   3.942   0.026  0.00  0.00    -0.208 NA
ATOM     14  C   UNL     1      -1.204   3.297   0.035  0.00  0.00    +0.135 A 
ATOM     15  N   UNL     1      -2.392   4.002   0.056  0.00  0.00    -0.302 N 
ATOM     16  C   UNL     1      -4.857   1.433   0.887  0.00  0.00    +0.162 C 
ATOM     17  O   UNL     1      -4.929   0.220   0.882  0.00  0.00    -0.292 OA
ATOM     18  C   UNL     1      -6.041   2.239   1.346  0.00  0.00    +0.086 C 
ATOM     19  C   UNL     1      -6.739   4.441   2.315  0.00  0.00    +0.011 C 
ATOM     20  H   UNL     1      -2.396   5.059  -0.248  0.00  0.00    +0.153 HD
ENDROOT
BRANCH   6  21
ATOM     21  C   UNL     1      -2.809   0.661  -1.367  0.00  0.00    -0.035 A 
ATOM     22  C   UNL     1      -2.972   1.555  -2.409  0.00  0.00    +0.006 A 
ATOM     23  C   UNL     1      -3.222   1.090  -3.686  0.00  0.00    +0.020 A 
ATOM     24  C   UNL     1      -3.321  -0.270  -3.920  0.00  0.00    +0.041 A 
ATOM     25  C   UNL     1      -3.163  -1.164  -2.876  0.00  0.00    +0.020 A 
ATOM     26  C   UNL     1      -2.907  -0.698  -1.600  0.00  0.00    +0.006 A 
ATOM     27 CL   UNL     1      -3.642  -0.855  -5.522  0.00  0.00    -0.084 Cl
ENDBRANCH   6  21
BRANCH  12  28
ATOM     28  S   UNL     1       2.624   4.179  -0.001  0.00  0.00    -0.083 S 
BRANCH  28  29
ATOM     29  C   UNL     1       1.987   5.873   0.016  0.00  0.00    +0.114 C 
BRANCH  29  30
ATOM     30  C   UNL     1       3.140   6.843   0.009  0.00  0.00    -0.019 A 
ATOM     31  C   UNL     1       3.678   7.285   1.204  0.00  0.00    +0.006 A 
ATOM     32  C   UNL     1       4.739   8.172   1.198  0.00  0.00    +0.000 A 
ATOM     33  C   UNL     1       5.256   8.624  -0.002  0.00  0.00    +0.001 A 
ATOM     34  C   UNL     1       4.715   8.187  -1.196  0.00  0.00    +0.020 A 
ATOM     35  C   UNL     1       3.657   7.296  -1.191  0.00  0.00    +0.045 A 
ATOM     36 CL   UNL     1       2.977   6.746  -2.691  0.00  0.00    -0.083 Cl
ENDBRANCH  29  30
ENDBRANCH  28  29
ENDBRANCH  12  28
TORSDOF 4
