REMARK  Name = ZINC39955422
REMARK  5 active torsions:
REMARK  status: ('A' for Active; 'I' for Inactive)
REMARK    1  A    between atoms: C_1  and  C_2
REMARK    2  A    between atoms: C_4  and  N_9
REMARK    3  A    between atoms: C_10  and  N_24
REMARK    4  A    between atoms: C_11  and  C_22
REMARK    5  A    between atoms: C_12  and  C_14
REMARK                            x       y       z     vdW  Elec       q    Type
REMARK                         _______ _______ _______ _____ _____    ______ ____
ROOT
ATOM      1  N   UNL     1       0.028  -2.771  -2.422  0.00  0.00    -0.217 N 
ATOM      2  C   UNL     1       0.675  -3.941  -2.653  0.00  0.00    +0.138 A 
ATOM      3  C   UNL     1       0.430  -4.299  -3.975  0.00  0.00    +0.119 A 
ATOM      4  C   UNL     1      -0.423  -3.245  -4.536  0.00  0.00    +0.115 A 
ATOM      5  N   UNL     1      -0.638  -2.369  -3.583  0.00  0.00    -0.163 NA
ENDROOT
BRANCH   1   9
ATOM      6  C   UNL     1      -0.018   1.503   0.010  0.00  0.00    +0.044 C 
ATOM      7  C   UNL     1       0.002  -0.004   0.002  0.00  0.00    -0.047 A 
ATOM      8  C   UNL     1       0.006  -0.687  -1.199  0.00  0.00    +0.031 A 
ATOM      9  C   UNL     1       0.025  -2.076  -1.206  0.00  0.00    +0.069 A 
ATOM     10  C   UNL     1       0.041  -2.774  -0.006  0.00  0.00    +0.047 A 
ATOM     11  C   UNL     1       0.037  -2.085   1.192  0.00  0.00    +0.043 A 
ATOM     12  C   UNL     1       0.023  -0.701   1.196  0.00  0.00    +0.023 A 
ATOM     13 CL   UNL     1       0.056  -2.956   2.694  0.00  0.00    -0.083 Cl
ENDBRANCH   1   9
BRANCH   4  14
ATOM     14  C   UNL     1      -0.949  -3.185  -5.920  0.00  0.00    +0.039 A 
ATOM     15  C   UNL     1      -0.646  -4.198  -6.829  0.00  0.00    +0.016 A 
ATOM     16  C   UNL     1      -1.138  -4.138  -8.116  0.00  0.00    +0.039 A 
ATOM     17  C   UNL     1      -1.932  -3.072  -8.509  0.00  0.00    +0.126 A 
ATOM     18  C   UNL     1      -2.237  -2.062  -7.612  0.00  0.00    +0.077 A 
ATOM     19  C   UNL     1      -1.754  -2.116  -6.317  0.00  0.00    +0.135 A 
ATOM     20  F   UNL     1      -2.057  -1.133  -5.441  0.00  0.00    -0.205 F 
ATOM     21  F   UNL     1      -2.410  -3.017  -9.771  0.00  0.00    -0.205 F 
ENDBRANCH   4  14
BRANCH   2  22
ATOM     22  N   UNL     1       1.436  -4.648  -1.742  0.00  0.00    -0.342 N 
ATOM     23  H   UNL     1       1.546  -4.313  -0.839  0.00  0.00    +0.144 HD
ATOM     24  H   UNL     1       1.860  -5.479  -2.006  0.00  0.00    +0.144 HD
ENDBRANCH   2  22
BRANCH   3  25
ATOM     25  C   UNL     1       0.915  -5.464  -4.654  0.00  0.00    +0.105 C 
ATOM     26  N   UNL     1       1.299  -6.387  -5.192  0.00  0.00    -0.191 NA
ENDBRANCH   3  25
TORSDOF 4
