REMARK  Name = ZINC05271990
REMARK  7 active torsions:
REMARK  status: ('A' for Active; 'I' for Inactive)
REMARK    1  A    between atoms: C_1  and  C_2
REMARK    2  A    between atoms: C_2  and  N_3
REMARK    3  A    between atoms: C_12  and  C_14
REMARK    4  A    between atoms: N_16  and  N_17
REMARK    5  A    between atoms: C_18  and  C_20
REMARK    6  A    between atoms: C_23  and  C_27
REMARK    7  A    between atoms: C_25  and  C_26
REMARK                            x       y       z     vdW  Elec       q    Type
REMARK                         _______ _______ _______ _____ _____    ______ ____
ROOT
ATOM      1  C   UNL     1      -4.724   1.707   0.980  0.00  0.00    +0.281 C 
ATOM      2  O   UNL     1      -4.780   0.495   0.899  0.00  0.00    -0.267 OA
ATOM      3  N   UNL     1      -3.541   2.338   0.845  0.00  0.00    -0.229 N 
ATOM      4  H   UNL     1      -3.497   3.305   0.909  0.00  0.00    +0.173 HD
ENDROOT
BRANCH   1  14
ATOM      5  N   UNL     1      -6.918   4.543   1.524  0.00  0.00    -0.229 N 
ATOM      6  C   UNL     1      -8.172   4.070   1.680  0.00  0.00    +0.275 A 
ATOM      7  O   UNL     1      -9.103   4.828   1.879  0.00  0.00    -0.266 OA
ATOM      8  C   UNL     1      -8.386   2.618   1.607  0.00  0.00    +0.050 A 
ATOM      9  C   UNL     1      -9.639   2.031   1.755  0.00  0.00    +0.014 A 
ATOM     10  C   UNL     1      -9.755   0.659   1.672  0.00  0.00    +0.001 A 
ATOM     11  C   UNL     1      -8.640  -0.136   1.443  0.00  0.00    +0.001 A 
ATOM     12  C   UNL     1      -7.391   0.427   1.293  0.00  0.00    +0.011 A 
ATOM     13  C   UNL     1      -7.251   1.809   1.368  0.00  0.00    +0.020 A 
ATOM     14  C   UNL     1      -5.953   2.488   1.225  0.00  0.00    +0.155 A 
ATOM     15  N   UNL     1      -5.902   3.795   1.313  0.00  0.00    -0.163 NA
BRANCH   5  17
ATOM     16  C   UNL     1      -6.419   6.391   3.046  0.00  0.00    +0.029 C 
ATOM     17  C   UNL     1      -6.710   5.991   1.598  0.00  0.00    +0.144 C 
ENDBRANCH   5  17
ENDBRANCH   1  14
BRANCH   3  18
ATOM     18  N   UNL     1      -2.375   1.597   0.612  0.00  0.00    -0.230 N 
ATOM     19  C   UNL     1      -1.192   2.227   0.477  0.00  0.00    +0.260 C 
ATOM     20  O   UNL     1      -1.136   3.439   0.557  0.00  0.00    -0.269 OA
ATOM     21  H   UNL     1      -2.420   0.630   0.548  0.00  0.00    +0.173 HD
BRANCH  19  22
ATOM     22  C   UNL     1       0.039   1.445   0.231  0.00  0.00    +0.041 A 
ATOM     23  C   UNL     1       0.002   0.050   0.268  0.00  0.00    +0.013 A 
ATOM     24  C   UNL     1       1.152  -0.673   0.032  0.00  0.00    +0.004 A 
ATOM     25  C   UNL     1       2.341  -0.020  -0.241  0.00  0.00    -0.050 A 
ATOM     26  C   UNL     1       2.384   1.363  -0.279  0.00  0.00    +0.007 A 
ATOM     27  C   UNL     1       1.241   2.099  -0.044  0.00  0.00    -0.038 A 
ATOM     28  C   UNL     1       1.290   3.604  -0.086  0.00  0.00    +0.044 C 
ATOM     29  C   UNL     1       3.594  -0.817  -0.498  0.00  0.00    +0.044 C 
ENDBRANCH  19  22
ENDBRANCH   3  18
TORSDOF 4
