REMARK  Name = ZINC36277512
REMARK  7 active torsions:
REMARK  status: ('A' for Active; 'I' for Inactive)
REMARK    1  A    between atoms: C_1  and  C_2
REMARK    2  A    between atoms: C_4  and  C_9
REMARK    3  A    between atoms: C_10  and  C_19
REMARK    4  A    between atoms: C_13  and  N_18
REMARK    5  A    between atoms: C_19  and  N_20
REMARK    6  A    between atoms: C_22  and  C_29
REMARK    7  A    between atoms: C_25  and  C_28
REMARK                            x       y       z     vdW  Elec       q    Type
REMARK                         _______ _______ _______ _____ _____    ______ ____
ROOT
ATOM      1  C   UNL     1      -0.016  -2.853  -2.473  0.00  0.00    +0.094 A 
ATOM      2  C   UNL     1       0.749  -3.942  -2.764  0.00  0.00    +0.065 A 
ATOM      3  N   UNL     1       0.510  -4.263  -4.071  0.00  0.00    -0.300 N 
ATOM      4  C   UNL     1       0.997  -5.252  -4.880  0.00  0.00    +0.115 A 
ATOM      5  C   UNL     1       0.589  -5.352  -6.168  0.00  0.00    +0.041 A 
ATOM      6  C   UNL     1      -0.345  -4.433  -6.688  0.00  0.00    +0.028 A 
ATOM      7  C   UNL     1      -0.834  -3.447  -5.890  0.00  0.00    +0.048 A 
ATOM      8  C   UNL     1      -0.399  -3.357  -4.552  0.00  0.00    +0.139 A 
ATOM      9  N   UNL     1      -0.708  -2.518  -3.573  0.00  0.00    -0.227 NA
ENDROOT
BRANCH   1  13
ATOM     10  C   UNL     1      -2.681  -0.654   1.131  0.00  0.00    +0.045 C 
ATOM     11  C   UNL     1      -1.355  -1.101   0.572  0.00  0.00    -0.032 A 
ATOM     12  C   UNL     1      -1.303  -1.746  -0.647  0.00  0.00    +0.015 A 
ATOM     13  C   UNL     1      -0.076  -2.158  -1.163  0.00  0.00    +0.003 A 
ATOM     14  C   UNL     1       1.093  -1.917  -0.445  0.00  0.00    +0.011 A 
ATOM     15  C   UNL     1       1.031  -1.272   0.773  0.00  0.00    +0.021 A 
ATOM     16  C   UNL     1      -0.190  -0.859   1.279  0.00  0.00    +0.044 A 
ATOM     17 CL   UNL     1      -0.260  -0.041   2.809  0.00  0.00    -0.083 Cl
ENDBRANCH   1  13
BRANCH   5  18
ATOM     18  N   UNL     1       1.096  -6.371  -6.986  0.00  0.00    -0.357 N 
ATOM     19  H   UNL     1       1.739  -7.003  -6.630  0.00  0.00    +0.142 HD
ATOM     20  H   UNL     1       0.804  -6.443  -7.908  0.00  0.00    +0.142 HD
ENDBRANCH   5  18
BRANCH   2  21
ATOM     21  C   UNL     1       1.682  -4.659  -1.823  0.00  0.00    +0.140 C 
BRANCH  21  22
ATOM     22  N   UNL     1       3.009  -4.031  -1.876  0.00  0.00    -0.292 NA
ATOM     23  C   UNL     1       3.632  -4.227  -3.193  0.00  0.00    +0.116 C 
ATOM     24  C   UNL     1       4.983  -3.508  -3.225  0.00  0.00    +0.130 C 
ATOM     25  O   UNL     1       5.803  -3.997  -2.159  0.00  0.00    -0.371 OA
ATOM     26  C   UNL     1       5.226  -3.821  -0.863  0.00  0.00    +0.130 C 
ATOM     27  C   UNL     1       3.878  -4.543  -0.807  0.00  0.00    +0.116 C 
ATOM     28  C   UNL     1       6.164  -4.404   0.197  0.00  0.00    +0.039 C 
ATOM     29  C   UNL     1       5.673  -3.774  -4.564  0.00  0.00    +0.039 C 
ENDBRANCH  21  22
ENDBRANCH   2  21
TORSDOF 4
