REMARK  Name = ZINC35031474
REMARK  14 active torsions:
REMARK  status: ('A' for Active; 'I' for Inactive)
REMARK    1  A    between atoms: C_1  and  C_2
REMARK    2  A    between atoms: C_5  and  O_12
REMARK    3  A    between atoms: C_8  and  C_10
REMARK    4  A    between atoms: C_8  and  C_11
REMARK    5  A    between atoms: O_12  and  C_13
REMARK    6  A    between atoms: C_13  and  C_14
REMARK    7  A    between atoms: C_14  and  C_16
REMARK    8  A    between atoms: C_14  and  O_28
REMARK    9  A    between atoms: C_16  and  N_17
REMARK   10  A    between atoms: C_18  and  C_26
REMARK   11  A    between atoms: C_18  and  C_27
REMARK   12  A    between atoms: C_20  and  O_25
REMARK   13  A    between atoms: C_22  and  C_23
REMARK   14  A    between atoms: C_22  and  C_24
REMARK                            x       y       z     vdW  Elec       q    Type
REMARK                         _______ _______ _______ _____ _____    ______ ____
ROOT
ATOM      1  C   UNL     1       1.990  -1.840  -6.077  0.00  0.00    +0.124 C 
ENDROOT
BRANCH   1   2
ATOM      2  O   UNL     1       3.239  -1.759  -6.767  0.00  0.00    -0.391 OA
ATOM      3  H   UNL     1       3.185  -1.320  -7.627  0.00  0.00    +0.210 HD
ENDBRANCH   1   2
BRANCH   1   4
ATOM      4  C   UNL     1       1.452  -0.429  -5.830  0.00  0.00    +0.189 C 
BRANCH   4   5
ATOM      5  O   UNL     1       2.329   0.268  -4.943  0.00  0.00    -0.374 OA
BRANCH   5   9
ATOM      6  C   UNL     1       2.687   4.956  -6.374  0.00  0.00    +0.007 C 
ATOM      7  C   UNL     1       2.080   3.994  -5.351  0.00  0.00    -0.011 C 
ATOM      8  C   UNL     1       2.523   2.565  -5.669  0.00  0.00    +0.035 C 
ATOM      9  C   UNL     1       1.916   1.603  -4.646  0.00  0.00    +0.119 C 
ATOM     10  C   UNL     1       2.392   1.984  -3.243  0.00  0.00    +0.038 C 
ATOM     11  C   UNL     1       1.948   3.413  -2.924  0.00  0.00    -0.032 C 
ATOM     12  C   UNL     1       2.556   4.375  -3.947  0.00  0.00    +0.009 C 
ATOM     13  C   UNL     1       0.422   3.500  -2.986  0.00  0.00    +0.011 C 
ATOM     14  C   UNL     1       2.424   3.794  -1.521  0.00  0.00    +0.011 C 
ENDBRANCH   5   9
ENDBRANCH   4   5
ENDBRANCH   1   4
BRANCH   1  15
ATOM     15  C   UNL     1       0.989  -2.627  -6.924  0.00  0.00    -0.043 C 
BRANCH  15  16
ATOM     16  N   UNL     1       1.676  -3.767  -7.567  0.00  0.00    +0.388 N 
ATOM     17  C   UNL     1       2.027  -4.739  -6.543  0.00  0.00    -0.068 C 
ATOM     18  C   UNL     1       2.491  -6.071  -7.125  0.00  0.00    +0.019 C 
ATOM     19  C   UNL     1       1.455  -6.597  -8.121  0.00  0.00    +0.112 C 
ATOM     20  C   UNL     1       1.317  -5.572  -9.247  0.00  0.00    +0.019 C 
ATOM     21  C   UNL     1       0.876  -4.222  -8.693  0.00  0.00    -0.068 C 
ATOM     22  C   UNL     1      -0.613  -4.269  -8.336  0.00  0.00    -0.010 C 
ATOM     23  C   UNL     1       1.035  -3.183  -9.828  0.00  0.00    -0.010 C 
ATOM     24  C   UNL     1       3.205  -4.157  -5.729  0.00  0.00    -0.010 C 
ATOM     25  C   UNL     1       0.872  -4.968  -5.565  0.00  0.00    -0.010 C 
ATOM     26  H   UNL     1       2.555  -3.391  -7.947  0.00  0.00    -0.080 HD
BRANCH  19  27
ATOM     27  O   UNL     1       1.915  -7.838  -8.667  0.00  0.00    -0.392 OA
ATOM     28  H   UNL     1       1.309  -8.234  -9.309  0.00  0.00    +0.210 HD
ENDBRANCH  19  27
ENDBRANCH  15  16
ENDBRANCH   1  15
TORSDOF 7
