REMARK  Name = ZINC25093028
REMARK  6 active torsions:
REMARK  status: ('A' for Active; 'I' for Inactive)
REMARK    1  A    between atoms: C_1  and  C_2
REMARK    2  A    between atoms: C_2  and  C_3
REMARK    3  A    between atoms: C_2  and  C_4
REMARK    4  A    between atoms: C_2  and  C_5
REMARK    5  A    between atoms: C_11  and  N_13
REMARK    6  A    between atoms: C_14  and  C_16
REMARK                            x       y       z     vdW  Elec       q    Type
REMARK                         _______ _______ _______ _____ _____    ______ ____
ROOT
ATOM      1  N   UNL     1       1.072   1.855   0.104  0.00  0.00    -0.308 N 
ATOM      2  C   UNL     1       1.854   1.093  -0.686  0.00  0.00    +0.250 C 
ATOM      3  O   UNL     1       1.357   0.226  -1.379  0.00  0.00    -0.270 OA
ATOM      4  H   UNL     1       1.509   2.695   0.664  0.00  0.00    +0.149 HD
ENDROOT
BRANCH   2   5
ATOM      5  C   UNL     1       3.310   1.310  -0.710  0.00  0.00    +0.102 A 
ATOM      6  C   UNL     1       4.119   0.616  -1.599  0.00  0.00    +0.031 A 
ATOM      7  C   UNL     1       5.510   0.861  -1.587  0.00  0.00    +0.037 A 
ATOM      8  C   UNL     1       6.059   1.775  -0.705  0.00  0.00    +0.030 A 
ATOM      9  N   UNL     1       5.274   2.443   0.165  0.00  0.00    -0.325 N 
ATOM     10  H   UNL     1       5.720   3.164   0.866  0.00  0.00    +0.169 HD
ATOM     11  C   UNL     1       3.945   2.259   0.209  0.00  0.00    +0.261 A 
ATOM     12  O   UNL     1       3.268   2.879   1.009  0.00  0.00    -0.267 OA
ATOM     13  C   UNL     1       7.539   2.059  -0.688  0.00  0.00    +0.054 C 
ATOM     14  C   UNL     1       8.334   0.895  -1.272  0.00  0.00    +0.014 C 
ATOM     15  C   UNL     1       7.807   0.578  -2.678  0.00  0.00    +0.080 C 
ATOM     16  C   UNL     1       6.371   0.122  -2.526  0.00  0.00    +0.165 C 
ATOM     17  O   UNL     1       5.944  -0.822  -3.158  0.00  0.00    -0.292 OA
ENDBRANCH   2   5
BRANCH   1  23
ATOM     18  C   UNL     1      -0.819   1.814   1.654  0.00  0.00    +0.015 C 
ATOM     19  C   UNL     1      -2.314   1.512   1.772  0.00  0.00    +0.006 C 
ATOM     20  C   UNL     1      -3.095   2.422   0.822  0.00  0.00    +0.000 C 
ATOM     21  C   UNL     1      -2.635   2.174  -0.616  0.00  0.00    +0.002 C 
ATOM     22  C   UNL     1      -1.140   2.476  -0.733  0.00  0.00    +0.022 C 
ATOM     23  C   UNL     1      -0.359   1.565   0.216  0.00  0.00    +0.077 C 
BRANCH  18  25
ATOM     24  C   UNL     1       1.435   1.316   2.610  0.00  0.00    +0.011 C 
ATOM     25  C   UNL     1      -0.038   0.904   2.604  0.00  0.00    -0.033 C 
ATOM     26  C   UNL     1      -0.610   1.031   4.018  0.00  0.00    +0.011 C 
ATOM     27  C   UNL     1      -0.159  -0.547   2.134  0.00  0.00    +0.011 C 
ENDBRANCH  18  25
ENDBRANCH   1  23
TORSDOF 3
