REMARK  Name = ZINC22784487
REMARK  6 active torsions:
REMARK  status: ('A' for Active; 'I' for Inactive)
REMARK    1  A    between atoms: C_1  and  C_2
REMARK    2  A    between atoms: C_2  and  C_4
REMARK    3  A    between atoms: C_2  and  N_20
REMARK    4  A    between atoms: N_9  and  C_10
REMARK    5  A    between atoms: N_23  and  C_26
REMARK    6  A    between atoms: C_26  and  C_27
REMARK                            x       y       z     vdW  Elec       q    Type
REMARK                         _______ _______ _______ _____ _____    ______ ____
ROOT
ATOM      1  C   UNL     1       0.731  -0.503   1.223  0.00  0.00    +0.237 C 
ATOM      2  O   UNL     1       0.159  -1.212   2.023  0.00  0.00    -0.274 OA
ATOM      3  N   UNL     1       2.019  -0.161   1.426  0.00  0.00    -0.239 N 
ATOM      4  C   UNL     1       2.671  -0.608   2.518  0.00  0.00    +0.306 C 
ATOM      5  O   UNL     1       2.097  -1.319   3.319  0.00  0.00    -0.252 OA
ATOM      6  N   UNL     1       3.958  -0.266   2.720  0.00  0.00    -0.294 N 
ATOM      7  H   UNL     1       2.476   0.406   0.786  0.00  0.00    +0.159 HD
ATOM      8  H   UNL     1       4.416   0.302   2.081  0.00  0.00    +0.151 HD
ENDROOT
BRANCH   6   9
ATOM      9  C   UNL     1       4.667  -0.751   3.907  0.00  0.00    +0.037 C 
ATOM     10  C   UNL     1       3.951  -0.258   5.166  0.00  0.00    +0.029 C 
ATOM     11  C   UNL     1       4.691  -0.764   6.406  0.00  0.00    -0.008 C 
ATOM     12  C   UNL     1       6.126  -0.235   6.395  0.00  0.00    +0.007 C 
ATOM     13  C   UNL     1       6.842  -0.728   5.136  0.00  0.00    -0.008 C 
ATOM     14  C   UNL     1       6.102  -0.222   3.897  0.00  0.00    +0.029 C 
ATOM     15  C   UNL     1       6.863  -2.258   5.128  0.00  0.00    +0.007 C 
ATOM     16  C   UNL     1       5.428  -2.788   5.138  0.00  0.00    -0.008 C 
ATOM     17  C   UNL     1       4.712  -2.294   6.397  0.00  0.00    +0.007 C 
ATOM     18  C   UNL     1       4.688  -2.281   3.899  0.00  0.00    +0.029 C 
ENDBRANCH   6   9
BRANCH   1  20
ATOM     19  C   UNL     1      -0.019   1.526   0.010  0.00  0.00    +0.034 C 
ATOM     20  C   UNL     1       0.002  -0.004   0.002  0.00  0.00    +0.140 C 
BRANCH  20  21
ATOM     21  N   UNL     1      -1.376  -0.512   0.012  0.00  0.00    -0.295 NA
ATOM     22  C   UNL     1      -2.141   0.061   1.129  0.00  0.00    +0.066 C 
ATOM     23  C   UNL     1      -3.549  -0.537   1.139  0.00  0.00    -0.063 C 
ATOM     24  N   UNL     1      -4.216  -0.243  -0.136  0.00  0.00    +0.384 N 
ATOM     25  C   UNL     1      -3.454  -0.844  -1.239  0.00  0.00    -0.063 C 
ATOM     26  C   UNL     1      -2.045  -0.248  -1.269  0.00  0.00    +0.066 C 
ATOM     27  H   UNL     1      -4.266   0.756  -0.267  0.00  0.00    -0.081 HD
BRANCH  24  28
ATOM     28  C   UNL     1      -5.574  -0.803  -0.118  0.00  0.00    -0.036 C 
BRANCH  28  29
ATOM     29  C   UNL     1      -6.301  -0.397  -1.374  0.00  0.00    -0.027 A 
ATOM     30  C   UNL     1      -6.366  -1.038  -2.567  0.00  0.00    +0.009 A 
ATOM     31  C   UNL     1      -7.103  -0.473  -3.592  0.00  0.00    +0.008 A 
ATOM     32  C   UNL     1      -7.737   0.705  -3.373  0.00  0.00    +0.045 A 
ATOM     33  S   UNL     1      -7.306   1.047  -1.675  0.00  0.00    -0.103 S 
ENDBRANCH  28  29
ENDBRANCH  24  28
ENDBRANCH  20  21
ENDBRANCH   1  20
TORSDOF 5
