REMARK  Name = ZINC39327455
REMARK  6 active torsions:
REMARK  status: ('A' for Active; 'I' for Inactive)
REMARK    1  A    between atoms: C_1  and  C_2
REMARK    2  A    between atoms: C_2  and  C_4
REMARK    3  A    between atoms: C_16  and  C_29
REMARK    4  A    between atoms: C_29  and  C_31
REMARK    5  A    between atoms: C_34  and  O_37
REMARK    6  A    between atoms: O_37  and  C_38
REMARK                            x       y       z     vdW  Elec       q    Type
REMARK                         _______ _______ _______ _____ _____    ______ ____
ROOT
ATOM      1  C   UNL     1      -0.221  -0.912  -1.224  0.00  0.00    +0.160 C 
ATOM      2  C   UNL     1       1.162  -0.944  -1.891  0.00  0.00    +0.111 C 
ATOM      3  C   UNL     1       1.083  -0.951  -3.376  0.00  0.00    -0.008 A 
ATOM      4  C   UNL     1       0.477  -1.811  -4.267  0.00  0.00    +0.006 A 
ATOM      5  C   UNL     1       0.603  -1.514  -5.619  0.00  0.00    +0.000 A 
ATOM      6  C   UNL     1       1.304  -0.406  -6.050  0.00  0.00    +0.002 A 
ATOM      7  C   UNL     1       1.917   0.465  -5.162  0.00  0.00    +0.023 A 
ATOM      8  C   UNL     1       1.799   0.178  -3.801  0.00  0.00    +0.038 A 
ATOM      9  N   UNL     1       2.304   0.867  -2.711  0.00  0.00    -0.284 N 
ATOM     10  C   UNL     1       1.976   0.273  -1.541  0.00  0.00    +0.231 C 
ATOM     11  O   UNL     1       2.278   0.647  -0.428  0.00  0.00    -0.274 OA
ATOM     12  C   UNL     1       1.803  -2.229  -1.330  0.00  0.00    +0.106 C 
ATOM     13  C   UNL     1       0.591  -3.175  -1.242  0.00  0.00    +0.109 C 
ATOM     14  N   UNL     1      -0.595  -2.314  -1.021  0.00  0.00    -0.311 N 
ATOM     15  C   UNL     1      -1.810  -2.850  -0.609  0.00  0.00    +0.038 A 
ATOM     16  C   UNL     1      -3.038  -2.334  -0.959  0.00  0.00    +0.024 A 
ATOM     17  C   UNL     1      -4.192  -2.953  -0.509  0.00  0.00    +0.002 A 
ATOM     18  C   UNL     1      -4.115  -4.084   0.285  0.00  0.00    +0.001 A 
ATOM     19  C   UNL     1      -2.890  -4.609   0.649  0.00  0.00    +0.010 A 
ATOM     20  C   UNL     1      -1.723  -3.994   0.212  0.00  0.00    -0.004 A 
ATOM     21  C   UNL     1      -0.387  -4.486   0.600  0.00  0.00    +0.007 C 
ATOM     22  C   UNL     1       0.714  -4.120  -0.077  0.00  0.00    -0.003 C 
ATOM     23  H   UNL     1       2.830   1.679  -2.779  0.00  0.00    +0.155 HD
ENDROOT
BRANCH   1  25
ATOM     24  C   UNL     1      -0.116   1.309   0.143  0.00  0.00    +0.088 C 
ATOM     25  C   UNL     1      -0.144  -0.197   0.101  0.00  0.00    +0.152 C 
ATOM     26  O   UNL     1      -0.106  -0.831   1.128  0.00  0.00    -0.296 OA
ENDBRANCH   1  25
BRANCH  12  27
ATOM     27  C   UNL     1       2.396  -1.984   0.033  0.00  0.00    +0.170 C 
ATOM     28  O   UNL     1       1.909  -1.148   0.765  0.00  0.00    -0.292 OA
BRANCH  27  29
ATOM     29  C   UNL     1       3.564  -2.757   0.475  0.00  0.00    +0.018 A 
ATOM     30  C   UNL     1       4.131  -3.719  -0.370  0.00  0.00    +0.015 A 
ATOM     31  C   UNL     1       5.221  -4.437   0.048  0.00  0.00    +0.046 A 
ATOM     32  C   UNL     1       5.764  -4.213   1.308  0.00  0.00    +0.120 A 
ATOM     33  C   UNL     1       5.204  -3.260   2.152  0.00  0.00    +0.046 A 
ATOM     34  C   UNL     1       4.117  -2.531   1.742  0.00  0.00    +0.015 A 
BRANCH  32  35
ATOM     35  O   UNL     1       6.843  -4.928   1.717  0.00  0.00    -0.495 OA
ATOM     36  C   UNL     1       7.349  -4.647   3.023  0.00  0.00    +0.277 C 
ENDBRANCH  32  35
ENDBRANCH  27  29
ENDBRANCH  12  27
TORSDOF 4
