REMARK  Name = ZINC19799832
REMARK  12 active torsions:
REMARK  status: ('A' for Active; 'I' for Inactive)
REMARK    1  A    between atoms: C_1  and  C_2
REMARK    2  A    between atoms: C_3  and  C_9
REMARK    3  A    between atoms: C_4  and  O_8
REMARK    4  A    between atoms: C_9  and  C_10
REMARK    5  A    between atoms: C_9  and  C_29
REMARK    6  A    between atoms: C_13  and  O_18
REMARK    7  A    between atoms: C_14  and  O_16
REMARK    8  A    between atoms: O_16  and  C_17
REMARK    9  A    between atoms: O_18  and  C_19
REMARK   10  A    between atoms: C_19  and  C_21
REMARK   11  A    between atoms: C_30  and  C_36
REMARK   12  A    between atoms: C_34  and  O_35
REMARK                            x       y       z     vdW  Elec       q    Type
REMARK                         _______ _______ _______ _____ _____    ______ ____
ROOT
ATOM      1  C   UNL     1      -0.011  -0.335  -2.556  0.00  0.00    +0.093 C 
ENDROOT
BRANCH   1   4
ATOM      2  C   UNL     1      -0.459   2.064  -0.536  0.00  0.00    +0.068 C 
ATOM      3  C   UNL     1      -0.420   0.601  -0.176  0.00  0.00    +0.068 A 
ATOM      4  C   UNL     1      -0.222  -0.457  -1.068  0.00  0.00    +0.048 A 
ATOM      5  C   UNL     1      -0.254  -1.614  -0.356  0.00  0.00    +0.213 A 
ATOM      6  N   UNL     1      -0.465  -1.291   0.939  0.00  0.00    -0.247 N 
ATOM      7  H   UNL     1      -0.535  -1.915   1.679  0.00  0.00    +0.192 HD
ATOM      8  N   UNL     1      -0.560   0.104   1.026  0.00  0.00    -0.176 NA
BRANCH   5   9
ATOM      9  O   UNL     1      -0.102  -2.867  -0.855  0.00  0.00    -0.492 OA
ATOM     10  H   UNL     1       0.802  -3.205  -0.800  0.00  0.00    +0.294 HD
ENDBRANCH   5   9
ENDBRANCH   1   4
BRANCH   1  11
ATOM     11  C   UNL     1       1.243  -1.073  -2.947  0.00  0.00    +0.048 A 
ATOM     12  C   UNL     1       2.380  -1.154  -2.218  0.00  0.00    +0.041 A 
ATOM     13  N   UNL     1       3.264  -1.901  -2.912  0.00  0.00    -0.278 N 
ATOM     14  N   UNL     1       2.652  -2.296  -4.109  0.00  0.00    -0.136 NA
ATOM     15  H   UNL     1       4.165  -2.126  -2.631  0.00  0.00    +0.189 HD
ATOM     16  C   UNL     1       1.437  -1.804  -4.129  0.00  0.00    +0.236 A 
ATOM     17  C   UNL     1       2.618  -0.520  -0.871  0.00  0.00    +0.065 C 
BRANCH  16  18
ATOM     18  O   UNL     1       0.525  -1.971  -5.123  0.00  0.00    -0.491 OA
ATOM     19  H   UNL     1       0.613  -1.337  -5.848  0.00  0.00    +0.294 HD
ENDBRANCH  16  18
ENDBRANCH   1  11
BRANCH   1  20
ATOM     20  C   UNL     1      -1.191  -0.930  -3.280  0.00  0.00    -0.031 A 
ATOM     21  C   UNL     1      -1.403  -2.296  -3.248  0.00  0.00    +0.008 A 
ATOM     22  C   UNL     1      -2.483  -2.847  -3.911  0.00  0.00    +0.050 A 
ATOM     23  C   UNL     1      -3.357  -2.030  -4.610  0.00  0.00    +0.173 A 
ATOM     24  C   UNL     1      -3.144  -0.655  -4.643  0.00  0.00    +0.163 A 
ATOM     25  C   UNL     1      -2.061  -0.109  -3.972  0.00  0.00    +0.054 A 
BRANCH  24  26
ATOM     26  O   UNL     1      -3.998   0.151  -5.328  0.00  0.00    -0.491 OA
ATOM     27  C   UNL     1      -3.717   1.552  -5.318  0.00  0.00    +0.277 C 
ENDBRANCH  24  26
BRANCH  23  28
ATOM     28  O   UNL     1      -4.421  -2.570  -5.263  0.00  0.00    -0.419 OA
BRANCH  28  29
ATOM     29  C   UNL     1      -4.273  -2.878  -6.566  0.00  0.00    +0.346 C 
ATOM     30  O   UNL     1      -3.188  -2.758  -7.099  0.00  0.00    -0.244 OA
BRANCH  29  31
ATOM     31  C   UNL     1      -5.429  -3.361  -7.346  0.00  0.00    +0.078 A 
ATOM     32  C   UNL     1      -6.680  -3.495  -6.737  0.00  0.00    +0.018 A 
ATOM     33  C   UNL     1      -7.755  -3.946  -7.471  0.00  0.00    +0.021 A 
ATOM     34  C   UNL     1      -7.600  -4.268  -8.810  0.00  0.00    +0.042 A 
ATOM     35  C   UNL     1      -6.364  -4.139  -9.420  0.00  0.00    +0.040 A 
ATOM     36  C   UNL     1      -5.279  -3.682  -8.698  0.00  0.00    +0.056 A 
ATOM     37 CL   UNL     1      -3.732  -3.512  -9.466  0.00  0.00    -0.083 Cl
ATOM     38 CL   UNL     1      -8.961  -4.836  -9.726  0.00  0.00    -0.083 Cl
ENDBRANCH  29  31
ENDBRANCH  28  29
ENDBRANCH  23  28
ENDBRANCH   1  20
TORSDOF 9
