REMARK  Name = ZINC35166925
REMARK  7 active torsions:
REMARK  status: ('A' for Active; 'I' for Inactive)
REMARK    1  A    between atoms: C_1  and  C_2
REMARK    2  A    between atoms: C_3  and  C_16
REMARK    3  A    between atoms: C_4  and  C_10
REMARK    4  A    between atoms: N_18  and  N_19
REMARK    5  A    between atoms: C_20  and  C_21
REMARK    6  A    between atoms: C_26  and  O_27
REMARK    7  A    between atoms: O_27  and  C_28
REMARK                            x       y       z     vdW  Elec       q    Type
REMARK                         _______ _______ _______ _____ _____    ______ ____
ROOT
ATOM      1  C   UNL     1       0.658   1.365   0.079  0.00  0.00    +0.061 C 
ATOM      2  C   UNL     1       0.361  -0.112   0.044  0.00  0.00    +0.017 C 
ATOM      3  C   UNL     1      -0.921  -0.529  -0.025  0.00  0.00    +0.057 C 
ATOM      4  C   UNL     1      -1.175  -2.023  -0.058  0.00  0.00    +0.139 C 
ATOM      5  N   UNL     1       0.005  -2.902  -0.013  0.00  0.00    -0.315 N 
ATOM      6  C   UNL     1       1.225  -2.334   0.055  0.00  0.00    +0.135 C 
ATOM      7  S   UNL     1       2.607  -3.344   0.108  0.00  0.00    -0.019 S 
ATOM      8  N   UNL     1       1.393  -1.006   0.076  0.00  0.00    -0.300 N 
ATOM      9  H   UNL     1      -0.093  -3.867  -0.030  0.00  0.00    +0.149 HD
ATOM     10  H   UNL     1       2.297  -0.659   0.121  0.00  0.00    +0.154 HD
ENDROOT
BRANCH   4  11
ATOM     11  C   UNL     1      -1.939  -2.336  -1.319  0.00  0.00    -0.023 A 
ATOM     12  C   UNL     1      -1.292  -2.320  -2.541  0.00  0.00    +0.006 A 
ATOM     13  C   UNL     1      -1.992  -2.608  -3.697  0.00  0.00    +0.000 A 
ATOM     14  C   UNL     1      -3.338  -2.912  -3.633  0.00  0.00    +0.000 A 
ATOM     15  C   UNL     1      -3.985  -2.928  -2.411  0.00  0.00    +0.000 A 
ATOM     16  C   UNL     1      -3.284  -2.645  -1.254  0.00  0.00    +0.006 A 
ENDBRANCH   4  11
BRANCH   3  17
ATOM     17  C   UNL     1      -1.992   0.397  -0.064  0.00  0.00    +0.263 C 
ATOM     18  O   UNL     1      -2.657   0.602   0.936  0.00  0.00    -0.269 OA
ATOM     19  N   UNL     1      -2.276   1.051  -1.208  0.00  0.00    -0.203 N 
ATOM     20  H   UNL     1      -1.795   0.835  -2.022  0.00  0.00    +0.178 HD
BRANCH  19  21
ATOM     21  N   UNL     1      -3.264   2.044  -1.220  0.00  0.00    -0.187 NA
ATOM     22  C   UNL     1      -3.537   2.674  -2.321  0.00  0.00    +0.142 C 
BRANCH  22  23
ATOM     23  C   UNL     1      -4.577   3.719  -2.334  0.00  0.00    +0.036 A 
ATOM     24  C   UNL     1      -4.877   4.396  -3.518  0.00  0.00    +0.013 A 
ATOM     25  C   UNL     1      -5.852   5.372  -3.524  0.00  0.00    +0.001 A 
ATOM     26  C   UNL     1      -6.533   5.684  -2.360  0.00  0.00    +0.004 A 
ATOM     27  C   UNL     1      -6.245   5.021  -1.182  0.00  0.00    +0.046 A 
ATOM     28  C   UNL     1      -5.273   4.035  -1.160  0.00  0.00    +0.129 A 
BRANCH  28  29
ATOM     29  O   UNL     1      -4.993   3.379  -0.004  0.00  0.00    -0.494 OA
ATOM     30  C   UNL     1      -5.743   3.755   1.153  0.00  0.00    +0.277 C 
ENDBRANCH  28  29
ENDBRANCH  22  23
ENDBRANCH  19  21
ENDBRANCH   3  17
TORSDOF 5
