REMARK  Name = ZINC23259840
REMARK  15 active torsions:
REMARK  status: ('A' for Active; 'I' for Inactive)
REMARK    1  A    between atoms: C_1  and  C_2
REMARK    2  A    between atoms: C_2  and  C_4
REMARK    3  A    between atoms: C_2  and  N_14
REMARK    4  A    between atoms: C_7  and  C_10
REMARK    5  A    between atoms: C_10  and  C_11
REMARK    6  A    between atoms: C_11  and  C_12
REMARK    7  A    between atoms: C_11  and  C_13
REMARK    8  A    between atoms: C_15  and  C_17
REMARK    9  A    between atoms: C_17  and  N_18
REMARK   10  A    between atoms: N_18  and  C_19
REMARK   11  A    between atoms: N_18  and  C_20
REMARK   12  A    between atoms: C_20  and  C_22
REMARK   13  A    between atoms: C_20  and  C_23
REMARK   14  A    between atoms: C_26  and  S_29
REMARK   15  A    between atoms: S_29  and  N_32
REMARK                            x       y       z     vdW  Elec       q    Type
REMARK                         _______ _______ _______ _____ _____    ______ ____
ROOT
ATOM      1  C   UNL     1      -3.465  -1.164  -1.134  0.00  0.00    +0.019 C 
ENDROOT
BRANCH   1   3
ATOM      2  N   UNL     1      -1.372  -0.511   0.012  0.00  0.00    -0.310 N 
ATOM      3  C   UNL     1      -2.051  -0.643  -1.145  0.00  0.00    +0.197 C 
ATOM      4  O   UNL     1      -1.524  -0.341  -2.194  0.00  0.00    -0.278 OA
ATOM      5  H   UNL     1      -1.794  -0.752   0.852  0.00  0.00    +0.149 HD
BRANCH   2   7
ATOM      6  C   UNL     1      -0.019   1.526   0.010  0.00  0.00    +0.033 C 
ATOM      7  C   UNL     1       0.002  -0.004   0.002  0.00  0.00    +0.100 C 
BRANCH   7   8
ATOM      8  C   UNL     1       0.731  -0.503   1.223  0.00  0.00    -0.027 A 
ATOM      9  C   UNL     1       0.081  -0.558   2.442  0.00  0.00    +0.006 A 
ATOM     10  C   UNL     1       0.749  -1.016   3.562  0.00  0.00    +0.004 A 
ATOM     11  C   UNL     1       2.068  -1.420   3.463  0.00  0.00    -0.047 A 
ATOM     12  C   UNL     1       2.718  -1.365   2.244  0.00  0.00    +0.004 A 
ATOM     13  C   UNL     1       2.048  -0.911   1.123  0.00  0.00    +0.006 A 
BRANCH  11  14
ATOM     14  C   UNL     1       2.797  -1.918   4.684  0.00  0.00    +0.038 C 
BRANCH  14  15
ATOM     15  C   UNL     1       2.611  -3.432   4.807  0.00  0.00    -0.013 C 
ATOM     16  C   UNL     1       3.284  -4.126   3.622  0.00  0.00    +0.007 C 
ATOM     17  C   UNL     1       3.245  -3.919   6.111  0.00  0.00    +0.007 C 
ENDBRANCH  14  15
ENDBRANCH  11  14
ENDBRANCH   7   8
ENDBRANCH   2   7
ENDBRANCH   1   3
BRANCH   1  18
ATOM     18  N   UNL     1      -3.979  -1.213  -2.509  0.00  0.00    +0.388 N 
ATOM     19  C   UNL     1      -4.072   0.151  -3.046  0.00  0.00    -0.095 C 
ATOM     20  H   UNL     1      -3.353  -1.758  -3.083  0.00  0.00    -0.081 HD
BRANCH  18  21
ATOM     21  C   UNL     1      -5.311  -1.833  -2.512  0.00  0.00    -0.041 C 
ATOM     22  C   UNL     1      -5.847  -1.883  -3.944  0.00  0.00    -0.008 C 
BRANCH  21  23
ATOM     23  C   UNL     1      -5.215  -3.232  -1.961  0.00  0.00    -0.061 A 
ATOM     24  C   UNL     1      -4.139  -4.033  -2.293  0.00  0.00    +0.004 A 
ATOM     25  C   UNL     1      -4.051  -5.317  -1.788  0.00  0.00    +0.029 A 
ATOM     26  C   UNL     1      -5.040  -5.800  -0.951  0.00  0.00    +0.105 A 
ATOM     27  C   UNL     1      -6.116  -4.998  -0.619  0.00  0.00    +0.029 A 
ATOM     28  C   UNL     1      -6.201  -3.713  -1.120  0.00  0.00    +0.004 A 
BRANCH  26  29
ATOM     29  S   UNL     1      -4.929  -7.436  -0.308  0.00  0.00    +0.056 S 
ATOM     30  O   UNL     1      -6.254  -7.838   0.012  0.00  0.00    -0.153 OA
ATOM     31  O   UNL     1      -4.106  -8.170  -1.205  0.00  0.00    -0.153 OA
BRANCH  29  32
ATOM     32  N   UNL     1      -4.103  -7.345   1.124  0.00  0.00    -0.204 NA
ATOM     33  H   UNL     1      -4.287  -7.982   1.832  0.00  0.00    +0.144 HD
ATOM     34  H   UNL     1      -3.434  -6.654   1.255  0.00  0.00    +0.144 HD
ENDBRANCH  29  32
ENDBRANCH  26  29
ENDBRANCH  21  23
ENDBRANCH  18  21
ENDBRANCH   1  18
TORSDOF 10
