REMARK  Name = ZINC64317425
REMARK  5 active torsions:
REMARK  status: ('A' for Active; 'I' for Inactive)
REMARK    1  A    between atoms: C_1  and  C_2
REMARK    2  A    between atoms: C_5  and  C_24
REMARK    3  A    between atoms: C_6  and  S_8
REMARK    4  A    between atoms: S_8  and  N_11
REMARK    5  A    between atoms: C_19  and  C_21
REMARK                            x       y       z     vdW  Elec       q    Type
REMARK                         _______ _______ _______ _____ _____    ______ ____
ROOT
ATOM      1  N   UNL     1      -0.958  -3.473   3.289  0.00  0.00    -0.191 N 
ATOM      2  C   UNL     1      -1.871  -2.469   3.616  0.00  0.00    +0.055 A 
ATOM      3  C   UNL     1      -1.633  -1.146   3.997  0.00  0.00    +0.025 A 
ATOM      4  C   UNL     1      -2.686  -0.304   4.281  0.00  0.00    +0.002 A 
ATOM      5  C   UNL     1      -3.988  -0.763   4.191  0.00  0.00    +0.000 A 
ATOM      6  C   UNL     1      -4.232  -2.071   3.815  0.00  0.00    +0.005 A 
ATOM      7  C   UNL     1      -3.179  -2.918   3.529  0.00  0.00    -0.022 A 
ATOM      8  C   UNL     1      -3.161  -4.369   3.102  0.00  0.00    +0.070 C 
ATOM      9  C   UNL     1      -1.669  -4.707   2.945  0.00  0.00    +0.187 C 
ENDROOT
BRANCH   9  10
ATOM     10  C   UNL     1      -1.367  -5.104   1.523  0.00  0.00    +0.233 C 
ATOM     11  O   UNL     1      -1.089  -4.256   0.702  0.00  0.00    -0.274 OA
ATOM     12  N   UNL     1      -1.407  -6.402   1.163  0.00  0.00    -0.328 N 
ATOM     13  H   UNL     1      -1.629  -7.081   1.820  0.00  0.00    +0.145 HD
ATOM     14  H   UNL     1      -1.212  -6.658   0.248  0.00  0.00    +0.145 HD
ENDBRANCH   9  10
BRANCH   1  15
ATOM     15  S   UNL     1       0.688  -3.294   3.285  0.00  0.00    +0.076 S 
ATOM     16  O   UNL     1       1.239  -4.603   3.235  0.00  0.00    -0.150 OA
ATOM     17  O   UNL     1       1.000  -2.376   4.324  0.00  0.00    -0.150 OA
BRANCH  15  23
ATOM     18  C   UNL     1      -0.578  -0.635  -1.033  0.00  0.00    +0.044 C 
ATOM     19  C   UNL     1       0.487  -1.290  -0.192  0.00  0.00    -0.049 A 
ATOM     20  C   UNL     1       1.805  -1.273  -0.608  0.00  0.00    +0.004 A 
ATOM     21  C   UNL     1       2.781  -1.873   0.164  0.00  0.00    +0.005 A 
ATOM     22  C   UNL     1       2.441  -2.490   1.353  0.00  0.00    -0.024 A 
ATOM     23  C   UNL     1       1.123  -2.507   1.770  0.00  0.00    +0.112 A 
ATOM     24  C   UNL     1       0.146  -1.903   1.000  0.00  0.00    +0.032 A 
ATOM     25  C   UNL     1       3.505  -3.146   2.194  0.00  0.00    +0.046 C 
ENDBRANCH  15  23
ENDBRANCH   1  15
TORSDOF 3
