REMARK  Name = ZINC03438913
REMARK  7 active torsions:
REMARK  status: ('A' for Active; 'I' for Inactive)
REMARK    1  A    between atoms: C_1  and  C_2
REMARK    2  A    between atoms: C_2  and  C_4
REMARK    3  A    between atoms: C_2  and  O_14
REMARK    4  A    between atoms: N_6  and  C_7
REMARK    5  A    between atoms: O_14  and  C_15
REMARK    6  A    between atoms: C_15  and  C_17
REMARK    7  A    between atoms: C_26  and  O_27
REMARK                            x       y       z     vdW  Elec       q    Type
REMARK                         _______ _______ _______ _____ _____    ______ ____
ROOT
ATOM      1  O   UNL     1       2.243   8.104  -0.003  0.00  0.00    -0.449 OA
ENDROOT
BRANCH   1   3
ATOM      2  C   UNL     1       2.140  10.049   1.458  0.00  0.00    +0.062 C 
ATOM      3  C   UNL     1       2.164   9.553   0.011  0.00  0.00    +0.259 C 
BRANCH   3   4
ATOM      4  C   UNL     1       3.364  10.128  -0.697  0.00  0.00    +0.258 C 
ATOM      5  O   UNL     1       4.202   9.389  -1.168  0.00  0.00    -0.271 OA
ATOM      6  N   UNL     1       3.504  11.464  -0.808  0.00  0.00    -0.280 N 
ATOM      7  H   UNL     1       2.803  12.054  -0.490  0.00  0.00    +0.155 HD
BRANCH   6   8
ATOM      8  C   UNL     1       4.663  12.001  -1.383  0.00  0.00    +0.069 A 
ATOM      9  C   UNL     1       5.296  11.335  -2.424  0.00  0.00    +0.026 A 
ATOM     10  C   UNL     1       6.435  11.869  -2.993  0.00  0.00    +0.002 A 
ATOM     11  C   UNL     1       6.954  13.061  -2.520  0.00  0.00    +0.003 A 
ATOM     12  C   UNL     1       6.330  13.725  -1.480  0.00  0.00    +0.040 A 
ATOM     13  C   UNL     1       5.186  13.199  -0.909  0.00  0.00    +0.144 A 
ATOM     14  F   UNL     1       4.577  13.847   0.108  0.00  0.00    -0.204 F 
ENDBRANCH   6   8
ENDBRANCH   3   4
ENDBRANCH   1   3
BRANCH   1  15
ATOM     15  C   UNL     1       1.077   7.428  -0.006  0.00  0.00    +0.343 C 
ATOM     16  O   UNL     1       0.023   8.033   0.003  0.00  0.00    -0.245 OA
BRANCH  15  17
ATOM     17  C   UNL     1       1.079   5.956  -0.020  0.00  0.00    +0.101 A 
ATOM     18  C   UNL     1       2.302   5.258  -0.029  0.00  0.00    +0.019 A 
ATOM     19  C   UNL     1       2.331   3.903  -0.042  0.00  0.00    +0.009 A 
ATOM     20  C   UNL     1       1.129   3.168  -0.045  0.00  0.00    -0.014 A 
ATOM     21  C   UNL     1       1.140   1.764  -0.059  0.00  0.00    +0.008 A 
ATOM     22  C   UNL     1      -0.037   1.079  -0.062  0.00  0.00    +0.001 A 
ATOM     23  C   UNL     1      -1.257   1.751  -0.058  0.00  0.00    +0.001 A 
ATOM     24  C   UNL     1      -1.306   3.112  -0.040  0.00  0.00    +0.012 A 
ATOM     25  C   UNL     1      -0.112   3.851  -0.036  0.00  0.00    +0.024 A 
ATOM     26  C   UNL     1      -0.128   5.261  -0.023  0.00  0.00    +0.138 A 
BRANCH  26  27
ATOM     27  O   UNL     1      -1.305   5.932  -0.014  0.00  0.00    -0.505 OA
ATOM     28  H   UNL     1      -1.644   6.119   0.872  0.00  0.00    +0.292 HD
ENDBRANCH  26  27
ENDBRANCH  15  17
ENDBRANCH   1  15
TORSDOF 6
