REMARK  Name = ZINC28869549
REMARK  14 active torsions:
REMARK  status: ('A' for Active; 'I' for Inactive)
REMARK    1  A    between atoms: C_1  and  C_2
REMARK    2  A    between atoms: C_2  and  C_3
REMARK    3  A    between atoms: C_3  and  N_4
REMARK    4  A    between atoms: N_4  and  C_5
REMARK    5  A    between atoms: C_6  and  C_33
REMARK    6  A    between atoms: C_8  and  C_24
REMARK    7  A    between atoms: N_10  and  C_13
REMARK    8  A    between atoms: C_13  and  C_15
REMARK    9  A    between atoms: C_13  and  C_16
REMARK   10  A    between atoms: C_19  and  O_22
REMARK   11  A    between atoms: O_22  and  C_23
REMARK   12  A    between atoms: C_27  and  C_30
REMARK   13  A    between atoms: C_34  and  C_36
REMARK   14  A    between atoms: C_36  and  C_37
REMARK                            x       y       z     vdW  Elec       q    Type
REMARK                         _______ _______ _______ _____ _____    ______ ____
ROOT
ATOM      1  C   UNL     1      -1.895   1.482  -1.296  0.00  0.00    +0.098 C 
ATOM      2  C   UNL     1      -0.567   1.536  -1.174  0.00  0.00    -0.044 C 
ATOM      3  C   UNL     1       0.087   1.189   0.137  0.00  0.00    +0.059 C 
ATOM      4  C   UNL     1      -0.811   1.608   1.299  0.00  0.00    +0.111 C 
ATOM      5  N   UNL     1      -2.168   1.107   1.101  0.00  0.00    -0.282 N 
ATOM      6  C   UNL     1      -2.718   1.105  -0.129  0.00  0.00    +0.262 C 
ATOM      7  O   UNL     1      -3.884   0.795  -0.278  0.00  0.00    -0.269 OA
ATOM      8  C   UNL     1       0.280   1.946  -2.352  0.00  0.00    +0.041 C 
ENDROOT
BRANCH   4   9
ATOM      9  C   UNL     1      -0.843   3.112   1.388  0.00  0.00    -0.027 A 
ATOM     10  C   UNL     1      -1.654   3.836   0.533  0.00  0.00    +0.006 A 
ATOM     11  C   UNL     1      -1.691   5.213   0.613  0.00  0.00    +0.011 A 
ATOM     12  C   UNL     1      -0.900   5.875   1.551  0.00  0.00    +0.012 A 
ATOM     13  C   UNL     1      -0.079   5.140   2.407  0.00  0.00    +0.011 A 
ATOM     14  C   UNL     1      -0.055   3.764   2.320  0.00  0.00    +0.006 A 
BRANCH  12  15
ATOM     15  C   UNL     1      -0.931   7.354   1.639  0.00  0.00    +0.094 C 
ATOM     16  N   UNL     1      -0.191   7.969   2.517  0.00  0.00    -0.387 N 
ATOM     17  N   UNL     1      -1.742   8.077   0.793  0.00  0.00    -0.345 N 
ATOM     18  H   UNL     1      -0.214   9.067   2.582  0.00  0.00    +0.157 HD
ATOM     19  H   UNL     1      -1.765   9.175   0.858  0.00  0.00    +0.144 HD
ATOM     20  H   UNL     1      -2.367   7.557   0.051  0.00  0.00    +0.144 HD
ATOM     21  H   UNL     1       0.457   7.392   3.192  0.00  0.00    +0.157 HD
ENDBRANCH  12  15
ENDBRANCH   4   9
BRANCH   1  22
ATOM     22  N   UNL     1      -2.504   1.780  -2.522  0.00  0.00    -0.267 N 
ATOM     23  C   UNL     1      -2.309   0.976  -3.585  0.00  0.00    +0.231 C 
ATOM     24  O   UNL     1      -1.682  -0.055  -3.458  0.00  0.00    -0.275 OA
BRANCH  22  25
ATOM     25  C   UNL     1      -3.354   2.967  -2.647  0.00  0.00    +0.113 C 
BRANCH  25  27
ATOM     26  C   UNL     1      -3.402   5.383  -3.282  0.00  0.00    +0.005 C 
ATOM     27  C   UNL     1      -2.515   4.144  -3.150  0.00  0.00    +0.016 C 
ENDBRANCH  25  27
ENDBRANCH  22  25
BRANCH  23  28
ATOM     28  C   UNL     1      -2.869   1.357  -4.931  0.00  0.00    +0.221 C 
BRANCH  28  29
ATOM     29  C   UNL     1      -2.513   0.297  -5.942  0.00  0.00    +0.365 C 
ATOM     30  O   UNL     1      -1.870  -0.669  -5.603  0.00  0.00    -0.246 OA
ATOM     31  O   UNL     1      -2.909   0.426  -7.217  0.00  0.00    -0.246 OA
ENDBRANCH  28  29
ENDBRANCH  23  28
ENDBRANCH   1  22
BRANCH   5  32
ATOM     32  C   UNL     1      -2.936   0.605   2.243  0.00  0.00    +0.104 C 
ATOM     33  C   UNL     1      -4.159   1.496   2.467  0.00  0.00    +0.033 C 
BRANCH  32  34
ATOM     34  C   UNL     1      -3.387  -0.806   1.964  0.00  0.00    -0.027 A 
ATOM     35  C   UNL     1      -4.574  -1.270   2.500  0.00  0.00    +0.009 A 
ATOM     36  C   UNL     1      -4.992  -2.561   2.241  0.00  0.00    +0.046 A 
ATOM     37  C   UNL     1      -4.215  -3.396   1.452  0.00  0.00    +0.120 A 
ATOM     38  C   UNL     1      -3.022  -2.929   0.919  0.00  0.00    +0.046 A 
ATOM     39  C   UNL     1      -2.611  -1.636   1.176  0.00  0.00    +0.009 A 
BRANCH  37  40
ATOM     40  O   UNL     1      -4.621  -4.668   1.201  0.00  0.00    -0.495 OA
ATOM     41  C   UNL     1      -5.860  -5.080   1.782  0.00  0.00    +0.277 C 
ENDBRANCH  37  40
ENDBRANCH  32  34
ENDBRANCH   5  32
TORSDOF 10
