REMARK  Name = ZINC39712359
REMARK  9 active torsions:
REMARK  status: ('A' for Active; 'I' for Inactive)
REMARK    1  A    between atoms: C_1  and  C_2
REMARK    2  A    between atoms: C_7  and  N_8
REMARK    3  A    between atoms: C_9  and  S_20
REMARK    4  A    between atoms: C_13  and  C_14
REMARK    5  A    between atoms: S_20  and  C_21
REMARK    6  A    between atoms: C_21  and  C_23
REMARK    7  A    between atoms: C_21  and  C_24
REMARK    8  A    between atoms: C_29  and  C_36
REMARK    9  A    between atoms: C_30  and  C_35
REMARK                            x       y       z     vdW  Elec       q    Type
REMARK                         _______ _______ _______ _____ _____    ______ ____
ROOT
ATOM      1  N   UNL     1      -0.211  -0.092   2.278  0.00  0.00    -0.254 N 
ATOM      2  C   UNL     1      -1.390   0.168   3.122  0.00  0.00    +0.242 C 
ATOM      3  N   UNL     1      -0.847   0.908   4.274  0.00  0.00    -0.237 N 
ATOM      4  N   UNL     1       0.529   1.030   4.050  0.00  0.00    -0.168 NA
ATOM      5  C   UNL     1       0.881   0.467   2.941  0.00  0.00    +0.153 C 
ATOM      6  H   UNL     1      -1.345   1.244   5.036  0.00  0.00    +0.171 HD
ENDROOT
BRANCH   1  13
ATOM      7  C   UNL     1       0.113  -2.918   2.318  0.00  0.00    +0.045 C 
ATOM      8  C   UNL     1      -0.034  -2.150   1.030  0.00  0.00    -0.029 A 
ATOM      9  C   UNL     1      -0.020  -2.818  -0.179  0.00  0.00    +0.005 A 
ATOM     10  C   UNL     1      -0.155  -2.114  -1.361  0.00  0.00    +0.000 A 
ATOM     11  C   UNL     1      -0.305  -0.739  -1.338  0.00  0.00    +0.002 A 
ATOM     12  C   UNL     1      -0.320  -0.065  -0.133  0.00  0.00    +0.024 A 
ATOM     13  C   UNL     1      -0.191  -0.770   1.057  0.00  0.00    +0.041 A 
ENDBRANCH   1  13
BRANCH   5  14
ATOM     14  C   UNL     1       2.269   0.424   2.436  0.00  0.00    +0.020 A 
ATOM     15  C   UNL     1       2.573  -0.197   1.218  0.00  0.00    +0.029 A 
ATOM     16  C   UNL     1       3.882  -0.213   0.784  0.00  0.00    +0.083 A 
ATOM     17  N   UNL     1       4.840   0.345   1.500  0.00  0.00    -0.367 N 
ATOM     18  C   UNL     1       4.597   0.941   2.652  0.00  0.00    +0.083 A 
ATOM     19  C   UNL     1       3.317   1.009   3.158  0.00  0.00    +0.029 A 
ATOM     20  H   UNL     1       5.751   0.317   1.168  0.00  0.00    +0.165 HD
ENDBRANCH   5  14
BRANCH   2  21
ATOM     21  S   UNL     1      -2.603   1.177   2.227  0.00  0.00    -0.107 S 
BRANCH  21  22
ATOM     22  C   UNL     1      -1.674   2.660   1.751  0.00  0.00    +0.112 C 
ATOM     23  C   UNL     1      -1.428   3.526   2.989  0.00  0.00    +0.027 C 
BRANCH  22  24
ATOM     24  C   UNL     1      -2.466   3.446   0.738  0.00  0.00    +0.136 C 
ATOM     25  N   UNL     1      -3.590   2.934   0.297  0.00  0.00    -0.160 NA
ATOM     26  C   UNL     1      -4.364   3.553  -0.602  0.00  0.00    +0.271 C 
ATOM     27  O   UNL     1      -5.403   3.048  -0.991  0.00  0.00    -0.268 OA
ATOM     28  C   UNL     1      -3.911   4.885  -1.115  0.00  0.00    +0.071 C 
ATOM     29  C   UNL     1      -4.517   5.682  -2.008  0.00  0.00    -0.045 C 
ATOM     30  C   UNL     1      -3.843   6.989  -2.356  0.00  0.00    +0.076 C 
ATOM     31  S   UNL     1      -2.337   6.924  -1.304  0.00  0.00    -0.098 S 
ATOM     32  C   UNL     1      -2.631   5.349  -0.538  0.00  0.00    +0.111 C 
ATOM     33  N   UNL     1      -1.994   4.618   0.345  0.00  0.00    -0.226 NA
ATOM     34  C   UNL     1      -3.474   7.038  -3.840  0.00  0.00    +0.024 C 
ATOM     35  C   UNL     1      -5.824   5.285  -2.644  0.00  0.00    +0.041 C 
ENDBRANCH  22  24
ENDBRANCH  21  22
ENDBRANCH   2  21
TORSDOF 5
