REMARK  Name = ZINC48488388
REMARK  11 active torsions:
REMARK  status: ('A' for Active; 'I' for Inactive)
REMARK    1  A    between atoms: C_1  and  C_2
REMARK    2  A    between atoms: C_2  and  C_28
REMARK    3  A    between atoms: C_4  and  C_10
REMARK    4  A    between atoms: C_6  and  C_8
REMARK    5  A    between atoms: C_6  and  C_9
REMARK    6  A    between atoms: C_10  and  C_11
REMARK    7  A    between atoms: C_16  and  N_19
REMARK    8  A    between atoms: C_21  and  C_24
REMARK    9  A    between atoms: C_24  and  C_25
REMARK   10  A    between atoms: C_24  and  C_26
REMARK   11  A    between atoms: C_24  and  O_27
REMARK                            x       y       z     vdW  Elec       q    Type
REMARK                         _______ _______ _______ _____ _____    ______ ____
ROOT
ATOM      1  C   UNL     1       4.111  -0.533  -2.777  0.00  0.00    +0.216 C 
ATOM      2  O   UNL     1       4.666   0.060  -1.876  0.00  0.00    -0.276 OA
ATOM      3  N   UNL     1       4.811  -0.915  -3.863  0.00  0.00    -0.301 N 
ATOM      4  C   UNL     1       4.152  -1.629  -4.966  0.00  0.00    +0.110 C 
ATOM      5  C   UNL     1       4.920  -2.924  -5.245  0.00  0.00    +0.046 C 
ATOM      6  C   UNL     1       6.393  -2.593  -5.502  0.00  0.00    +0.112 C 
ATOM      7  C   UNL     1       6.993  -1.934  -4.258  0.00  0.00    +0.046 C 
ATOM      8  C   UNL     1       6.247  -0.622  -3.970  0.00  0.00    +0.110 C 
ENDROOT
BRANCH   6   9
ATOM      9  N   UNL     1       7.125  -3.826  -5.801  0.00  0.00    -0.248 N 
ATOM     10  C   UNL     1       7.650  -4.678  -4.891  0.00  0.00    +0.136 A 
ATOM     11  C   UNL     1       8.233  -5.674  -5.598  0.00  0.00    +0.114 A 
ATOM     12  N   UNL     1       8.038  -5.387  -6.890  0.00  0.00    -0.132 NA
ATOM     13  N   UNL     1       7.373  -4.289  -6.977  0.00  0.00    -0.065 NA
BRANCH  11  14
ATOM     14  C   UNL     1       8.959  -6.871  -5.040  0.00  0.00    +0.105 C 
ATOM     15  C   UNL     1       9.461  -7.745  -6.191  0.00  0.00    +0.048 C 
ATOM     16  C   UNL     1      10.149  -6.400  -4.201  0.00  0.00    +0.048 C 
BRANCH  14  17
ATOM     17  O   UNL     1       8.068  -7.629  -4.220  0.00  0.00    -0.383 OA
ATOM     18  H   UNL     1       8.469  -8.416  -3.826  0.00  0.00    +0.211 HD
ENDBRANCH  14  17
ENDBRANCH  11  14
ENDBRANCH   6   9
BRANCH   1  19
ATOM     19  C   UNL     1       2.639  -0.841  -2.682  0.00  0.00    +0.099 C 
BRANCH  19  23
ATOM     20  C   UNL     1      -0.019   1.528   0.010  0.00  0.00    -0.010 C 
ATOM     21  C   UNL     1       0.002  -0.004   0.002  0.00  0.00    -0.073 C 
ATOM     22  C   UNL     1       0.573  -0.505  -1.321  0.00  0.00    -0.009 C 
ATOM     23  C   UNL     1       2.088  -0.301  -1.357  0.00  0.00    -0.005 C 
ATOM     24  C   UNL     1       2.703  -1.086  -0.198  0.00  0.00    -0.009 C 
ATOM     25  C   UNL     1       2.147  -0.590   1.133  0.00  0.00    -0.073 C 
ATOM     26  N   UNL     1       0.697  -0.529   1.164  0.00  0.00    +0.386 N 
ATOM     27  C   UNL     1       2.770   0.766   1.481  0.00  0.00    -0.010 C 
ATOM     28  C   UNL     1       2.600  -1.589   2.223  0.00  0.00    -0.010 C 
ATOM     29  C   UNL     1      -1.468  -0.478   0.079  0.00  0.00    -0.010 C 
ATOM     30  H   UNL     1       0.416   0.021   1.982  0.00  0.00    -0.084 HD
ATOM     31  H   UNL     1       0.341  -1.472   1.351  0.00  0.00    -0.084 HD
ENDBRANCH  19  23
ENDBRANCH   1  19
TORSDOF 5
