REMARK  Name = ZINC06858945
REMARK  9 active torsions:
REMARK  status: ('A' for Active; 'I' for Inactive)
REMARK    1  A    between atoms: C_1  and  C_2
REMARK    2  A    between atoms: C_2  and  C_3
REMARK    3  A    between atoms: C_2  and  O_4
REMARK    4  A    between atoms: O_4  and  C_5
REMARK    5  A    between atoms: C_5  and  C_7
REMARK    6  A    between atoms: C_8  and  N_24
REMARK    7  A    between atoms: C_12  and  C_16
REMARK    8  A    between atoms: C_19  and  O_22
REMARK    9  A    between atoms: O_22  and  C_23
REMARK                            x       y       z     vdW  Elec       q    Type
REMARK                         _______ _______ _______ _____ _____    ______ ____
ROOT
ATOM      1  C   UNL     1       5.811  -2.533  -0.064  0.00  0.00    +0.119 A 
ATOM      2  C   UNL     1       6.039  -1.173  -0.059  0.00  0.00    +0.055 A 
ATOM      3  C   UNL     1       4.891  -0.281  -0.044  0.00  0.00    +0.029 A 
ATOM      4  C   UNL     1       4.874   1.138  -0.038  0.00  0.00    +0.014 A 
ATOM      5  C   UNL     1       3.679   1.790  -0.028  0.00  0.00    +0.029 A 
ATOM      6  C   UNL     1       2.480   1.070  -0.015  0.00  0.00    +0.072 A 
ATOM      7  N   UNL     1       2.498  -0.258  -0.021  0.00  0.00    -0.239 NA
ATOM      8  C   UNL     1       3.631  -0.923  -0.035  0.00  0.00    +0.111 A 
ATOM      9  S   UNL     1       4.033  -2.653  -0.047  0.00  0.00    -0.060 S 
ENDROOT
BRANCH   6  10
ATOM     10  C   UNL     1       1.185   1.790   0.000  0.00  0.00    +0.001 A 
ATOM     11  C   UNL     1      -0.013   1.076   0.008  0.00  0.00    +0.013 A 
ATOM     12  C   UNL     1      -1.215   1.750   0.017  0.00  0.00    +0.046 A 
ATOM     13  C   UNL     1      -1.235   3.138   0.030  0.00  0.00    +0.120 A 
ATOM     14  C   UNL     1      -0.044   3.853   0.022  0.00  0.00    +0.046 A 
ATOM     15  C   UNL     1       1.162   3.185   0.008  0.00  0.00    +0.013 A 
BRANCH  13  16
ATOM     16  O   UNL     1      -2.421   3.799   0.044  0.00  0.00    -0.495 OA
ATOM     17  C   UNL     1      -3.608   3.002   0.051  0.00  0.00    +0.277 C 
ENDBRANCH  13  16
ENDBRANCH   6  10
BRANCH   2  18
ATOM     18  N   UNL     1       7.331  -0.668  -0.070  0.00  0.00    -0.356 N 
ATOM     19  H   UNL     1       7.478   0.291  -0.067  0.00  0.00    +0.142 HD
ATOM     20  H   UNL     1       8.088  -1.274  -0.080  0.00  0.00    +0.142 HD
ENDBRANCH   2  18
BRANCH   1  21
ATOM     21  C   UNL     1       6.761  -3.581  -0.077  0.00  0.00    +0.348 C 
ATOM     22  O   UNL     1       7.950  -3.324  -0.088  0.00  0.00    -0.244 OA
BRANCH  21  23
ATOM     23  O   UNL     1       6.347  -4.866  -0.080  0.00  0.00    -0.458 OA
BRANCH  23  25
ATOM     24  C   UNL     1       6.849  -7.122   0.626  0.00  0.00    +0.052 C 
ATOM     25  C   UNL     1       7.361  -5.873  -0.094  0.00  0.00    +0.171 C 
ATOM     26  C   UNL     1       7.709  -6.226  -1.542  0.00  0.00    +0.052 C 
ENDBRANCH  23  25
ENDBRANCH  21  23
ENDBRANCH   1  21
TORSDOF 6
