REMARK  Name = ZINC24269820
REMARK  12 active torsions:
REMARK  status: ('A' for Active; 'I' for Inactive)
REMARK    1  A    between atoms: C_1  and  C_2
REMARK    2  A    between atoms: C_2  and  C_4
REMARK    3  A    between atoms: C_2  and  S_18
REMARK    4  A    between atoms: C_4  and  C_6
REMARK    5  A    between atoms: C_6  and  C_16
REMARK    6  A    between atoms: S_18  and  C_19
REMARK    7  A    between atoms: C_22  and  S_24
REMARK    8  A    between atoms: S_24  and  C_25
REMARK    9  A    between atoms: C_25  and  C_26
REMARK   10  A    between atoms: C_29  and  C_32
REMARK   11  A    between atoms: C_32  and  C_33
REMARK   12  A    between atoms: C_32  and  C_34
REMARK                            x       y       z     vdW  Elec       q    Type
REMARK                         _______ _______ _______ _____ _____    ______ ____
ROOT
ATOM      1  C   UNL     1      -0.019   1.526   0.010  0.00  0.00    +0.028 C 
ATOM      2  C   UNL     1       0.002  -0.004   0.002  0.00  0.00    +0.122 C 
ENDROOT
BRANCH   2   3
ATOM      3  C   UNL     1       0.707  -0.490  -1.238  0.00  0.00    +0.189 C 
ATOM      4  O   UNL     1       1.891  -0.763  -1.196  0.00  0.00    -0.290 OA
BRANCH   3   5
ATOM      5  C   UNL     1      -0.003  -0.627  -2.442  0.00  0.00    +0.131 C 
ATOM      6  C   UNL     1       0.655  -1.081  -3.599  0.00  0.00    +0.114 C 
ATOM      7  N   UNL     1       1.968  -1.421  -3.675  0.00  0.00    -0.300 N 
ATOM      8  C   UNL     1       2.241  -1.818  -4.979  0.00  0.00    +0.054 A 
ATOM      9  C   UNL     1       3.394  -2.260  -5.614  0.00  0.00    +0.025 A 
ATOM     10  C   UNL     1       3.357  -2.589  -6.954  0.00  0.00    +0.002 A 
ATOM     11  C   UNL     1       2.176  -2.481  -7.668  0.00  0.00    +0.002 A 
ATOM     12  C   UNL     1       1.024  -2.042  -7.047  0.00  0.00    +0.025 A 
ATOM     13  C   UNL     1       1.050  -1.708  -5.700  0.00  0.00    +0.054 A 
ATOM     14  N   UNL     1       0.077  -1.253  -4.816  0.00  0.00    -0.300 N 
ATOM     15  H   UNL     1       2.605  -1.393  -2.945  0.00  0.00    +0.153 HD
ATOM     16  H   UNL     1      -0.853  -1.085  -5.033  0.00  0.00    +0.153 HD
BRANCH   5  17
ATOM     17  C   UNL     1      -1.398  -0.305  -2.491  0.00  0.00    +0.106 C 
ATOM     18  N   UNL     1      -2.504  -0.050  -2.531  0.00  0.00    -0.191 NA
ENDBRANCH   5  17
ENDBRANCH   3   5
ENDBRANCH   2   3
BRANCH   2  19
ATOM     19  S   UNL     1       0.879  -0.605   1.472  0.00  0.00    -0.086 S 
BRANCH  19  20
ATOM     20  C   UNL     1      -0.136  -0.087   2.816  0.00  0.00    +0.160 A 
ATOM     21  N   UNL     1      -1.275   0.577   2.795  0.00  0.00    -0.134 NA
ATOM     22  N   UNL     1      -1.911   0.882   3.976  0.00  0.00    -0.134 NA
ATOM     23  C   UNL     1      -1.378   0.510   5.124  0.00  0.00    +0.160 A 
ATOM     24  S   UNL     1       0.100  -0.327   4.570  0.00  0.00    -0.033 S 
BRANCH  23  25
ATOM     25  S   UNL     1      -1.969   0.764   6.764  0.00  0.00    -0.092 S 
BRANCH  25  26
ATOM     26  C   UNL     1      -3.519   1.677   6.535  0.00  0.00    +0.111 C 
BRANCH  26  27
ATOM     27  C   UNL     1      -4.137   1.963   7.880  0.00  0.00    -0.037 A 
ATOM     28  C   UNL     1      -5.017   1.058   8.443  0.00  0.00    +0.005 A 
ATOM     29  C   UNL     1      -5.583   1.320   9.676  0.00  0.00    +0.004 A 
ATOM     30  C   UNL     1      -5.270   2.487  10.347  0.00  0.00    -0.045 A 
ATOM     31  C   UNL     1      -4.389   3.393   9.784  0.00  0.00    +0.004 A 
ATOM     32  C   UNL     1      -3.820   3.128   8.553  0.00  0.00    +0.005 A 
BRANCH  30  33
ATOM     33  C   UNL     1      -5.888   2.774  11.691  0.00  0.00    +0.013 C 
ATOM     34  C   UNL     1      -4.784   2.916  12.740  0.00  0.00    +0.012 C 
ATOM     35  C   UNL     1      -6.691   4.074  11.616  0.00  0.00    +0.012 C 
ENDBRANCH  30  33
ENDBRANCH  26  27
ENDBRANCH  25  26
ENDBRANCH  23  25
ENDBRANCH  19  20
ENDBRANCH   2  19
TORSDOF 9
