REMARK  Name = ZINC27597022
REMARK  15 active torsions:
REMARK  status: ('A' for Active; 'I' for Inactive)
REMARK    1  A    between atoms: C_1  and  C_2
REMARK    2  A    between atoms: C_2  and  C_3
REMARK    3  A    between atoms: C_6  and  C_9
REMARK    4  A    between atoms: C_9  and  C_11
REMARK    5  A    between atoms: C_9  and  N_33
REMARK    6  A    between atoms: C_11  and  N_12
REMARK    7  A    between atoms: C_13  and  C_15
REMARK    8  A    between atoms: C_15  and  C_16
REMARK    9  A    between atoms: C_16  and  N_17
REMARK   10  A    between atoms: C_18  and  C_24
REMARK   11  A    between atoms: C_27  and  O_30
REMARK   12  A    between atoms: O_30  and  C_31
REMARK   13  A    between atoms: C_31  and  C_32
REMARK   14  A    between atoms: N_33  and  C_34
REMARK   15  A    between atoms: N_33  and  C_35
REMARK                            x       y       z     vdW  Elec       q    Type
REMARK                         _______ _______ _______ _____ _____    ______ ____
ROOT
ATOM      1  N   UNL     1       4.580   5.071   3.572  0.00  0.00    -0.316 N 
ATOM      2  C   UNL     1       4.429   4.503   2.359  0.00  0.00    +0.215 C 
ATOM      3  O   UNL     1       4.408   5.195   1.364  0.00  0.00    -0.276 OA
ATOM      4  H   UNL     1       4.599   4.443   4.475  0.00  0.00    +0.149 HD
ENDROOT
BRANCH   1   5
ATOM      5  C   UNL     1       4.720   6.525   3.688  0.00  0.00    +0.093 C 
BRANCH   5   6
ATOM      6  C   UNL     1       4.876   6.907   5.161  0.00  0.00    -0.021 C 
BRANCH   6  10
ATOM      7  C   UNL     1       5.630  11.100   5.472  0.00  0.00    -0.048 A 
ATOM      8  C   UNL     1       5.996  10.415   4.329  0.00  0.00    +0.004 A 
ATOM      9  C   UNL     1       5.752   9.058   4.228  0.00  0.00    +0.002 A 
ATOM     10  C   UNL     1       5.142   8.386   5.271  0.00  0.00    -0.059 A 
ATOM     11  C   UNL     1       4.771   9.072   6.412  0.00  0.00    +0.002 A 
ATOM     12  C   UNL     1       5.020  10.428   6.515  0.00  0.00    +0.004 A 
BRANCH   7  14
ATOM     13  C   UNL     1       4.692  13.354   5.041  0.00  0.00    +0.009 C 
ATOM     14  C   UNL     1       5.895  12.579   5.582  0.00  0.00    +0.032 C 
ENDBRANCH   7  14
ENDBRANCH   6  10
BRANCH   6  15
ATOM     15  N   UNL     1       6.001   6.162   5.743  0.00  0.00    +0.382 N 
ATOM     16  C   UNL     1       7.276   6.585   5.148  0.00  0.00    -0.096 C 
ATOM     17  C   UNL     1       6.029   6.307   7.204  0.00  0.00    -0.096 C 
ATOM     18  H   UNL     1       5.857   5.096   5.511  0.00  0.00    -0.082 HD
ENDBRANCH   6  15
ENDBRANCH   5   6
ENDBRANCH   1   5
BRANCH   2  19
ATOM     19  C   UNL     1       4.285   3.007   2.240  0.00  0.00    +0.117 C 
BRANCH  19  20
ATOM     20  C   UNL     1       4.129   2.626   0.767  0.00  0.00    +0.135 C 
BRANCH  20  21
ATOM     21  N   UNL     1       3.989   1.172   0.651  0.00  0.00    -0.303 N 
ATOM     22  C   UNL     1       2.798   0.474   0.604  0.00  0.00    +0.163 A 
ATOM     23  N   UNL     1       3.067  -0.797   0.495  0.00  0.00    -0.153 NA
ATOM     24  N   UNL     1       4.460  -0.946   0.475  0.00  0.00    -0.254 N 
ATOM     25  H   UNL     1       4.904  -1.949   0.389  0.00  0.00    +0.191 HD
ATOM     26  C   UNL     1       5.002   0.285   0.577  0.00  0.00    +0.176 A 
ATOM     27  S   UNL     1       6.673   0.655   0.599  0.00  0.00    -0.011 S 
BRANCH  22  28
ATOM     28  C   UNL     1       1.446   1.070   0.660  0.00  0.00    +0.019 A 
ATOM     29  C   UNL     1       1.260   2.332   1.227  0.00  0.00    +0.015 A 
ATOM     30  C   UNL     1      -0.003   2.882   1.282  0.00  0.00    +0.046 A 
ATOM     31  C   UNL     1      -1.088   2.187   0.765  0.00  0.00    +0.121 A 
ATOM     32  C   UNL     1      -0.907   0.931   0.200  0.00  0.00    +0.046 A 
ATOM     33  C   UNL     1       0.352   0.373   0.146  0.00  0.00    +0.015 A 
BRANCH  31  34
ATOM     34  O   UNL     1      -2.330   2.734   0.817  0.00  0.00    -0.492 OA
BRANCH  34  35
ATOM     35  C   UNL     1      -2.445   4.029   1.411  0.00  0.00    +0.225 C 
ATOM     36  C   UNL     1      -3.907   4.477   1.379  0.00  0.00    +0.048 C 
ENDBRANCH  34  35
ENDBRANCH  31  34
ENDBRANCH  22  28
ENDBRANCH  20  21
ENDBRANCH  19  20
ENDBRANCH   2  19
TORSDOF 11
