REMARK  Name = ZINC37377520
REMARK  6 active torsions:
REMARK  status: ('A' for Active; 'I' for Inactive)
REMARK    1  A    between atoms: C_4  and  C_7
REMARK    2  A    between atoms: C_7  and  N_8
REMARK    3  A    between atoms: C_9  and  N_33
REMARK    4  A    between atoms: C_11  and  C_25
REMARK    5  A    between atoms: N_17  and  C_18
REMARK    6  A    between atoms: C_18  and  C_19
REMARK                            x       y       z     vdW  Elec       q    Type
REMARK                         _______ _______ _______ _____ _____    ______ ____
ROOT
ATOM      1  N   UNL     1       4.672  -1.221   1.221  0.00  0.00    -0.244 N 
ATOM      2  C   UNL     1       5.157  -0.243   2.006  0.00  0.00    +0.126 A 
ATOM      3  C   UNL     1       5.005  -0.651   3.326  0.00  0.00    +0.086 A 
ATOM      4  C   UNL     1       5.301  -0.105   4.595  0.00  0.00    +0.091 A 
ATOM      5  N   UNL     1       4.997  -0.818   5.672  0.00  0.00    -0.214 NA
ATOM      6  C   UNL     1       4.428  -2.017   5.590  0.00  0.00    +0.218 A 
ATOM      7  N   UNL     1       4.119  -2.600   4.450  0.00  0.00    -0.193 NA
ATOM      8  C   UNL     1       4.374  -1.983   3.280  0.00  0.00    +0.188 A 
ATOM      9  N   UNL     1       4.192  -2.273   2.010  0.00  0.00    -0.149 NA
ATOM     10  N   UNL     1       4.146  -2.689   6.766  0.00  0.00    -0.311 N 
ATOM     11  H   UNL     1       4.363  -2.284   7.620  0.00  0.00    +0.149 HD
ENDROOT
BRANCH   4  12
ATOM     12  C   UNL     1       5.934   1.227   4.719  0.00  0.00    +0.039 A 
ATOM     13  C   UNL     1       5.331   2.346   4.142  0.00  0.00    +0.051 A 
ATOM     14  C   UNL     1       5.927   3.586   4.262  0.00  0.00    +0.124 A 
ATOM     15  C   UNL     1       7.121   3.721   4.954  0.00  0.00    +0.041 A 
ATOM     16  C   UNL     1       7.723   2.617   5.528  0.00  0.00    +0.042 A 
ATOM     17  C   UNL     1       7.134   1.371   5.420  0.00  0.00    +0.133 A 
ATOM     18  F   UNL     1       7.720   0.293   5.987  0.00  0.00    -0.205 F 
ATOM     19  F   UNL     1       5.346   4.670   3.703  0.00  0.00    -0.205 F 
ENDBRANCH   4  12
BRANCH   2  20
ATOM     20  N   UNL     1       5.708   0.950   1.578  0.00  0.00    -0.343 N 
ATOM     21  H   UNL     1       5.667   1.195   0.640  0.00  0.00    +0.144 HD
ATOM     22  H   UNL     1       6.137   1.543   2.215  0.00  0.00    +0.144 HD
ENDBRANCH   2  20
BRANCH   1  23
ATOM     23  C   UNL     1       4.643  -1.188  -0.243  0.00  0.00    +0.180 C 
BRANCH  23  27
ATOM     24  C   UNL     1       0.984   0.581  -1.558  0.00  0.00    +0.000 A 
ATOM     25  C   UNL     1       2.092   1.374  -1.330  0.00  0.00    +0.000 A 
ATOM     26  C   UNL     1       3.277   0.802  -0.904  0.00  0.00    +0.005 A 
ATOM     27  C   UNL     1       3.352  -0.564  -0.706  0.00  0.00    -0.026 A 
ATOM     28  C   UNL     1       2.244  -1.358  -0.934  0.00  0.00    +0.005 A 
ATOM     29  C   UNL     1       1.060  -0.786  -1.361  0.00  0.00    +0.000 A 
ENDBRANCH  23  27
ENDBRANCH   1  23
BRANCH  10  30
ATOM     30  C   UNL     1       3.520  -4.013   6.721  0.00  0.00    +0.136 C 
BRANCH  30  31
ATOM     31  C   UNL     1       3.319  -4.530   8.146  0.00  0.00    +0.135 C 
ATOM     32  C   UNL     1       2.689  -5.946   8.121  0.00  0.00    +0.035 C 
ATOM     33  C   UNL     1       3.164  -6.505   9.489  0.00  0.00    +0.031 C 
ATOM     34  C   UNL     1       4.554  -5.852   9.645  0.00  0.00    +0.160 C 
ATOM     35  O   UNL     1       4.587  -4.694   8.801  0.00  0.00    -0.375 OA
ENDBRANCH  30  31
ENDBRANCH  10  30
TORSDOF 6
