REMARK  Name = ZINC61803404
REMARK  3 active torsions:
REMARK  status: ('A' for Active; 'I' for Inactive)
REMARK    1  A    between atoms: C_1  and  C_2
REMARK    2  A    between atoms: C_2  and  C_22
REMARK    3  A    between atoms: C_8  and  C_10
REMARK                            x       y       z     vdW  Elec       q    Type
REMARK                         _______ _______ _______ _____ _____    ______ ____
ROOT
ATOM      1  C   UNL     1      -2.474  -3.885   1.865  0.00  0.00    +0.153 A 
ATOM      2  C   UNL     1      -3.043  -4.784   2.882  0.00  0.00    +0.020 A 
ATOM      3  C   UNL     1      -2.304  -5.272   3.954  0.00  0.00    +0.011 A 
ATOM      4  C   UNL     1      -2.908  -6.111   4.867  0.00  0.00    +0.001 A 
ATOM      5  C   UNL     1      -4.242  -6.471   4.727  0.00  0.00    +0.001 A 
ATOM      6  C   UNL     1      -4.993  -5.998   3.672  0.00  0.00    +0.014 A 
ATOM      7  C   UNL     1      -4.402  -5.150   2.740  0.00  0.00    +0.050 A 
ATOM      8  C   UNL     1      -5.128  -4.601   1.587  0.00  0.00    +0.272 A 
ATOM      9  O   UNL     1      -6.300  -4.873   1.402  0.00  0.00    -0.266 OA
ATOM     10  N   UNL     1      -4.465  -3.788   0.739  0.00  0.00    -0.242 N 
ATOM     11  H   UNL     1      -4.948  -3.426  -0.022  0.00  0.00    +0.192 HD
ATOM     12  N   UNL     1      -3.237  -3.463   0.886  0.00  0.00    -0.166 NA
ENDROOT
BRANCH   1  20
ATOM     13  C   UNL     1      -0.155   1.913   2.020  0.00  0.00    +0.011 C 
ATOM     14  C   UNL     1      -0.189   0.515   1.400  0.00  0.00    -0.032 C 
ATOM     15  C   UNL     1      -1.624  -0.016   1.419  0.00  0.00    +0.025 C 
ATOM     16  C   UNL     1      -1.660  -1.402   0.766  0.00  0.00    +0.108 C 
ATOM     17  N   UNL     1      -0.686  -2.269   1.444  0.00  0.00    -0.296 N 
ATOM     18  C   UNL     1       0.705  -1.812   1.562  0.00  0.00    +0.108 C 
ATOM     19  C   UNL     1       0.714  -0.422   2.206  0.00  0.00    +0.025 C 
ATOM     20  C   UNL     1      -1.063  -3.461   1.948  0.00  0.00    +0.267 C 
ATOM     21  O   UNL     1      -0.240  -4.187   2.472  0.00  0.00    -0.268 OA
ATOM     22  C   UNL     1       0.309   0.586  -0.045  0.00  0.00    +0.011 C 
ENDBRANCH   1  20
TORSDOF 1
