REMARK  Name = ZINC14996429
REMARK  7 active torsions:
REMARK  status: ('A' for Active; 'I' for Inactive)
REMARK    1  A    between atoms: C_5  and  C_7
REMARK    2  A    between atoms: C_7  and  N_8
REMARK    3  A    between atoms: C_9  and  C_11
REMARK    4  A    between atoms: C_14  and  N_17
REMARK    5  A    between atoms: C_20  and  N_64
REMARK    6  A    between atoms: C_23  and  C_24
REMARK    7  A    between atoms: C_23  and  N_64
REMARK                            x       y       z     vdW  Elec       q    Type
REMARK                         _______ _______ _______ _____ _____    ______ ____
ROOT
ATOM      1  N   UNL     1      -6.837  -4.737   1.265  0.00  0.00    -0.330 N 
ATOM      2  C   UNL     1      -5.719  -5.207   0.435  0.00  0.00    +0.103 C 
ATOM      3  C   UNL     1      -4.473  -4.371   0.736  0.00  0.00    +0.003 C 
ATOM      4  C   UNL     1      -4.769  -2.898   0.441  0.00  0.00    -0.069 C 
ATOM      5  C   UNL     1      -5.967  -2.448   1.281  0.00  0.00    +0.003 C 
ATOM      6  C   UNL     1      -7.170  -3.339   0.965  0.00  0.00    +0.103 C 
ENDROOT
BRANCH   1  10
ATOM      7  C   UNL     1     -10.165  -7.194   0.811  0.00  0.00    +0.037 A 
ATOM      8  C   UNL     1     -10.220  -6.092   1.669  0.00  0.00    +0.015 A 
ATOM      9  C   UNL     1      -9.117  -5.282   1.817  0.00  0.00    +0.024 A 
ATOM     10  C   UNL     1      -7.949  -5.558   1.113  0.00  0.00    +0.030 A 
ATOM     11  C   UNL     1      -7.893  -6.651   0.253  0.00  0.00    +0.024 A 
ATOM     12  C   UNL     1      -8.991  -7.468   0.104  0.00  0.00    +0.015 A 
BRANCH   7  14
ATOM     13  N   UNL     1     -11.291  -9.127  -0.178  0.00  0.00    -0.307 N 
ATOM     14  C   UNL     1     -11.345  -8.065   0.650  0.00  0.00    +0.244 C 
ATOM     15  O   UNL     1     -12.366  -7.825   1.266  0.00  0.00    -0.270 OA
ATOM     16  H   UNL     1     -10.476  -9.318  -0.668  0.00  0.00    +0.149 HD
BRANCH  13  17
ATOM     17  C   UNL     1     -12.463  -9.992  -0.337  0.00  0.00    +0.142 C 
BRANCH  17  22
ATOM     18  C   UNL     1     -12.272 -12.018  -3.517  0.00  0.00    +0.000 A 
ATOM     19  C   UNL     1     -11.555 -13.124  -3.098  0.00  0.00    +0.003 A 
ATOM     20  C   UNL     1     -11.132 -13.218  -1.786  0.00  0.00    +0.038 A 
ATOM     21  C   UNL     1     -11.425 -12.204  -0.891  0.00  0.00    +0.128 A 
ATOM     22  C   UNL     1     -12.143 -11.097  -1.311  0.00  0.00    +0.005 A 
ATOM     23  C   UNL     1     -12.570 -11.008  -2.622  0.00  0.00    +0.008 A 
ATOM     24  F   UNL     1     -11.012 -12.295   0.393  0.00  0.00    -0.205 F 
ENDBRANCH  17  22
ENDBRANCH  13  17
ENDBRANCH   7  14
ENDBRANCH   1  10
BRANCH   4  25
ATOM     25  N   UNL     1      -3.587  -2.087   0.790  0.00  0.00    +0.383 N 
ATOM     26  H   UNL     1      -2.736  -2.621   0.583  0.00  0.00    -0.085 HD
ATOM     27  H   UNL     1      -3.615  -1.861   1.791  0.00  0.00    -0.085 HD
BRANCH  25  28
ATOM     28  C   UNL     1      -3.577  -0.835   0.010  0.00  0.00    -0.034 C 
BRANCH  28  29
ATOM     29  C   UNL     1      -2.343  -0.015   0.393  0.00  0.00    +0.194 C 
ATOM     30  C   UNL     1      -2.368   1.333  -0.341  0.00  0.00    +0.271 C 
ATOM     31  O   UNL     1      -1.195   2.066   0.030  0.00  0.00    -0.485 OA
ATOM     32  C   UNL     1      -0.017   1.385   0.010  0.00  0.00    +0.162 A 
ATOM     33  C   UNL     1       1.177   2.091   0.002  0.00  0.00    +0.049 A 
ATOM     34  C   UNL     1       2.382   1.414  -0.009  0.00  0.00    +0.004 A 
ATOM     35  C   UNL     1       2.401   0.032  -0.015  0.00  0.00    +0.004 A 
ATOM     36  C   UNL     1       1.215  -0.677  -0.009  0.00  0.00    +0.049 A 
ATOM     37  C   UNL     1       0.002  -0.004   0.002  0.00  0.00    +0.162 A 
ATOM     38  O   UNL     1      -1.158  -0.716   0.002  0.00  0.00    -0.484 OA
ENDBRANCH  28  29
ENDBRANCH  25  28
ENDBRANCH   4  25
TORSDOF 7
