REMARK  Name = ZINC25610352
REMARK  5 active torsions:
REMARK  status: ('A' for Active; 'I' for Inactive)
REMARK    1  A    between atoms: C_1  and  C_2
REMARK    2  A    between atoms: C_5  and  C_8
REMARK    3  A    between atoms: C_8  and  C_10
REMARK    4  A    between atoms: C_8  and  N_15
REMARK    5  A    between atoms: C_16  and  C_18
REMARK                            x       y       z     vdW  Elec       q    Type
REMARK                         _______ _______ _______ _____ _____    ______ ____
ROOT
ATOM      1  N   UNL     1      -1.301   5.982   0.046  0.00  0.00    -0.300 N 
ATOM      2  C   UNL     1      -0.114   5.343   0.031  0.00  0.00    +0.247 C 
ATOM      3  O   UNL     1       0.920   5.983   0.025  0.00  0.00    -0.270 OA
ATOM      4  H   UNL     1      -2.236   5.403   0.052  0.00  0.00    +0.150 HD
ENDROOT
BRANCH   2   5
ATOM      5  C   UNL     1      -0.069   3.869   0.023  0.00  0.00    +0.062 A 
ATOM      6  C   UNL     1      -1.250   3.132   0.031  0.00  0.00    +0.015 A 
ATOM      7  C   UNL     1      -1.214   1.748   0.017  0.00  0.00    +0.001 A 
ATOM      8  C   UNL     1      -0.013   1.076   0.008  0.00  0.00    +0.011 A 
ATOM      9  C   UNL     1       1.189   1.792   0.000  0.00  0.00    +0.020 A 
ATOM     10  C   UNL     1       1.167   3.199   0.008  0.00  0.00    +0.078 A 
ATOM     11  N   UNL     1       2.467   3.615  -0.003  0.00  0.00    -0.276 N 
ATOM     12  H   UNL     1       2.700   4.690   0.000  0.00  0.00    +0.189 HD
ATOM     13  N   UNL     1       3.307   2.497  -0.017  0.00  0.00    -0.181 NA
ATOM     14  C   UNL     1       2.597   1.405  -0.015  0.00  0.00    +0.142 A 
ENDBRANCH   2   5
BRANCH   1  15
ATOM     15  C   UNL     1      -1.345   7.446   0.054  0.00  0.00    +0.140 C 
BRANCH  15  20
ATOM     16  C   UNL     1      -6.361   9.232  -2.192  0.00  0.00    +0.044 C 
ATOM     17  C   UNL     1      -5.053   8.767  -1.606  0.00  0.00    -0.050 A 
ATOM     18  C   UNL     1      -3.883   9.439  -1.906  0.00  0.00    +0.004 A 
ATOM     19  C   UNL     1      -2.683   9.011  -1.369  0.00  0.00    +0.006 A 
ATOM     20  C   UNL     1      -2.654   7.912  -0.531  0.00  0.00    -0.022 A 
ATOM     21  C   UNL     1      -3.823   7.237  -0.235  0.00  0.00    +0.006 A 
ATOM     22  C   UNL     1      -5.023   7.667  -0.769  0.00  0.00    +0.004 A 
ENDBRANCH  15  20
BRANCH  15  23
ATOM     23  C   UNL     1      -1.224   7.944   1.471  0.00  0.00    +0.014 A 
ATOM     24  C   UNL     1      -0.526   9.005   1.946  0.00  0.00    +0.013 A 
ATOM     25  C   UNL     1      -0.562   9.279   3.300  0.00  0.00    +0.008 A 
ATOM     26  C   UNL     1      -1.286   8.473   4.115  0.00  0.00    +0.045 A 
ATOM     27  S   UNL     1      -1.954   7.286   2.961  0.00  0.00    -0.099 S 
ENDBRANCH  15  23
ENDBRANCH   1  15
TORSDOF 4
