REMARK  Name = ZINC02422947
REMARK  5 active torsions:
REMARK  status: ('A' for Active; 'I' for Inactive)
REMARK    1  A    between atoms: C_1  and  N_41
REMARK    2  A    between atoms: C_9  and  N_22
REMARK    3  A    between atoms: C_11  and  S_13
REMARK    4  A    between atoms: S_13  and  C_14
REMARK    5  A    between atoms: C_14  and  C_15
REMARK                            x       y       z     vdW  Elec       q    Type
REMARK                         _______ _______ _______ _____ _____    ______ ____
ROOT
ATOM      1  C   UNL     1       4.705  -2.266   1.582  0.00  0.00    -0.096 C 
ATOM      2  C   UNL     1       4.359   0.131   1.600  0.00  0.00    -0.074 C 
ATOM      3  C   UNL     1       3.770   1.283   0.782  0.00  0.00    +0.018 C 
ATOM      4  C   UNL     1       2.258   1.087   0.703  0.00  0.00    -0.028 A 
ATOM      5  C   UNL     1       1.721  -0.120   0.978  0.00  0.00    -0.021 A 
ATOM      6  S   UNL     1      -0.025   0.094   0.774  0.00  0.00    -0.075 S 
ATOM      7  C   UNL     1      -0.033   1.809   0.318  0.00  0.00    +0.115 A 
ATOM      8  C   UNL     1       1.333   2.160   0.340  0.00  0.00    +0.051 A 
ATOM      9  C   UNL     1       1.623   3.512   0.005  0.00  0.00    +0.129 A 
ATOM     10  N   UNL     1       0.630   4.332  -0.296  0.00  0.00    -0.207 NA
ATOM     11  C   UNL     1      -0.637   3.935  -0.297  0.00  0.00    +0.191 A 
ATOM     12  N   UNL     1      -0.967   2.687   0.011  0.00  0.00    -0.215 NA
ATOM     13  C   UNL     1       2.465  -1.360   1.368  0.00  0.00    -0.036 C 
ATOM     14  N   UNL     1       3.896  -1.155   1.038  0.00  0.00    +0.381 N 
ATOM     15  H   UNL     1       4.003  -1.132   0.017  0.00  0.00    -0.082 HD
ENDROOT
BRANCH   9  16
ATOM     16  N   UNL     1       2.930   3.965  -0.006  0.00  0.00    -0.343 N 
ATOM     17  H   UNL     1       3.662   3.332   0.056  0.00  0.00    +0.144 HD
ATOM     18  H   UNL     1       3.114   4.914  -0.076  0.00  0.00    +0.144 HD
ENDBRANCH   9  16
BRANCH  11  19
ATOM     19  S   UNL     1      -1.905   5.088  -0.708  0.00  0.00    -0.081 S 
BRANCH  19  20
ATOM     20  C   UNL     1      -0.900   6.562  -1.015  0.00  0.00    +0.112 C 
BRANCH  20  21
ATOM     21  C   UNL     1      -1.798   7.711  -1.394  0.00  0.00    -0.037 A 
ATOM     22  C   UNL     1      -2.109   7.936  -2.723  0.00  0.00    +0.007 A 
ATOM     23  C   UNL     1      -2.936   8.986  -3.072  0.00  0.00    +0.038 A 
ATOM     24  C   UNL     1      -3.446   9.821  -2.091  0.00  0.00    +0.123 A 
ATOM     25  C   UNL     1      -3.130   9.598  -0.761  0.00  0.00    +0.038 A 
ATOM     26  C   UNL     1      -2.307   8.544  -0.414  0.00  0.00    +0.007 A 
ATOM     27  F   UNL     1      -4.250  10.851  -2.431  0.00  0.00    -0.205 F 
ENDBRANCH  20  21
ENDBRANCH  19  20
ENDBRANCH  11  19
TORSDOF 4
