REMARK  Name = ZINC38892945
REMARK  12 active torsions:
REMARK  status: ('A' for Active; 'I' for Inactive)
REMARK    1  A    between atoms: C_1  and  O_2
REMARK    2  A    between atoms: O_2  and  C_3
REMARK    3  A    between atoms: C_6  and  C_9
REMARK    4  A    between atoms: C_11  and  C_14
REMARK    5  A    between atoms: C_14  and  N_15
REMARK    6  A    between atoms: C_19  and  C_22
REMARK    7  A    between atoms: N_24  and  C_25
REMARK    8  A    between atoms: C_25  and  C_26
REMARK    9  A    between atoms: C_26  and  C_27
REMARK   10  A    between atoms: C_27  and  S_28
REMARK   11  A    between atoms: S_28  and  C_29
REMARK   12  A    between atoms: C_29  and  C_30
REMARK                            x       y       z     vdW  Elec       q    Type
REMARK                         _______ _______ _______ _____ _____    ______ ____
ROOT
ATOM      1  N   UNL     1       2.457  -5.873  -7.086  0.00  0.00    +0.386 N 
ATOM      2  C   UNL     1       2.363  -4.984  -8.251  0.00  0.00    -0.078 C 
ATOM      3  C   UNL     1       1.168  -5.394  -9.115  0.00  0.00    -0.018 C 
ATOM      4  C   UNL     1       1.358  -6.838  -9.587  0.00  0.00    +0.009 C 
ATOM      5  C   UNL     1       1.530  -7.746  -8.365  0.00  0.00    +0.058 C 
ATOM      6  C   UNL     1       2.711  -7.249  -7.529  0.00  0.00    -0.065 C 
ATOM      7  H   UNL     1       1.590  -5.841  -6.571  0.00  0.00    -0.081 HD
ENDROOT
BRANCH   5   8
ATOM      8  C   UNL     1       1.793  -9.158  -8.821  0.00  0.00    +0.214 C 
ATOM      9  O   UNL     1       2.823  -9.715  -8.505  0.00  0.00    -0.276 OA
ATOM     10  N   UNL     1       0.884  -9.802  -9.579  0.00  0.00    -0.315 N 
ATOM     11  H   UNL     1       0.060  -9.357  -9.832  0.00  0.00    +0.149 HD
BRANCH  10  12
ATOM     12  C   UNL     1       1.140 -11.175 -10.022  0.00  0.00    +0.105 C 
BRANCH  12  13
ATOM     13  C   UNL     1      -0.039 -11.669 -10.862  0.00  0.00    +0.029 C 
BRANCH  13  14
ATOM     14  C   UNL     1       0.228 -13.102 -11.325  0.00  0.00    +0.071 C 
BRANCH  14  15
ATOM     15  S   UNL     1      -1.171 -13.687 -12.320  0.00  0.00    -0.156 S 
BRANCH  15  16
ATOM     16  C   UNL     1      -0.703 -15.378 -12.784  0.00  0.00    +0.107 C 
BRANCH  16  17
ATOM     17  C   UNL     1      -1.794 -15.988 -13.626  0.00  0.00    -0.002 A 
ATOM     18  C   UNL     1      -2.826 -16.681 -13.023  0.00  0.00    +0.007 A 
ATOM     19  C   UNL     1      -3.827 -17.241 -13.794  0.00  0.00    +0.000 A 
ATOM     20  C   UNL     1      -3.796 -17.108 -15.170  0.00  0.00    +0.003 A 
ATOM     21  C   UNL     1      -2.765 -16.416 -15.775  0.00  0.00    +0.038 A 
ATOM     22  C   UNL     1      -1.765 -15.850 -15.003  0.00  0.00    +0.127 A 
ATOM     23  F   UNL     1      -0.758 -15.169 -15.593  0.00  0.00    -0.205 F 
ENDBRANCH  16  17
ENDBRANCH  15  16
ENDBRANCH  14  15
ENDBRANCH  13  14
ENDBRANCH  12  13
ENDBRANCH  10  12
ENDBRANCH   5   8
BRANCH   1  24
ATOM     24  C   UNL     1       3.557  -5.428  -6.220  0.00  0.00    +0.022 C 
BRANCH  24  27
ATOM     25  C   UNL     1       2.496  -2.494  -4.365  0.00  0.00    +0.202 A 
ATOM     26  N   UNL     1       2.605  -3.822  -4.554  0.00  0.00    -0.193 NA
ATOM     27  C   UNL     1       3.239  -4.063  -5.666  0.00  0.00    +0.211 A 
ATOM     28  O   UNL     1       3.562  -2.894  -6.234  0.00  0.00    -0.340 OA
ATOM     29  N   UNL     1       3.064  -1.879  -5.374  0.00  0.00    -0.056 NA
BRANCH  25  33
ATOM     30  C   UNL     1       0.606  -0.607  -1.055  0.00  0.00    +0.120 A 
ATOM     31  C   UNL     1       1.172   0.164  -2.061  0.00  0.00    +0.046 A 
ATOM     32  C   UNL     1       1.786  -0.445  -3.135  0.00  0.00    +0.015 A 
ATOM     33  C   UNL     1       1.837  -1.836  -3.211  0.00  0.00    +0.023 A 
ATOM     34  C   UNL     1       1.267  -2.607  -2.199  0.00  0.00    +0.015 A 
ATOM     35  C   UNL     1       0.659  -1.993  -1.125  0.00  0.00    +0.046 A 
BRANCH  30  37
ATOM     36  C   UNL     1      -0.017   1.425   0.010  0.00  0.00    +0.277 C 
ATOM     37  O   UNL     1       0.002  -0.004   0.002  0.00  0.00    -0.495 OA
ENDBRANCH  30  37
ENDBRANCH  25  33
ENDBRANCH  24  27
ENDBRANCH   1  24
TORSDOF 11
