REMARK  Name = ZINC24929202
REMARK  7 active torsions:
REMARK  status: ('A' for Active; 'I' for Inactive)
REMARK    1  A    between atoms: C_5  and  C_7
REMARK    2  A    between atoms: C_7  and  C_9
REMARK    3  A    between atoms: C_7  and  N_29
REMARK    4  A    between atoms: C_9  and  N_10
REMARK    5  A    between atoms: C_11  and  C_13
REMARK    6  A    between atoms: C_13  and  N_14
REMARK    7  A    between atoms: C_21  and  C_24
REMARK                            x       y       z     vdW  Elec       q    Type
REMARK                         _______ _______ _______ _____ _____    ______ ____
ROOT
ATOM      1  N   UNL     1       2.182   1.769   1.054  0.00  0.00    -0.315 N 
ATOM      2  C   UNL     1       3.443   2.242   1.085  0.00  0.00    +0.233 C 
ATOM      3  O   UNL     1       3.929   2.740   0.092  0.00  0.00    -0.274 OA
ATOM      4  H   UNL     1       1.742   1.318   1.956  0.00  0.00    +0.149 HD
ENDROOT
BRANCH   1   5
ATOM      5  C   UNL     1       1.397   1.857  -0.179  0.00  0.00    +0.093 C 
BRANCH   5   6
ATOM      6  C   UNL     1      -0.041   1.413   0.098  0.00  0.00    -0.019 C 
BRANCH   6  11
ATOM      7  C   UNL     1      -2.254   2.506  -2.758  0.00  0.00    +0.000 A 
ATOM      8  C   UNL     1      -2.252   1.377  -3.557  0.00  0.00    +0.001 A 
ATOM      9  C   UNL     1      -1.536   0.260  -3.174  0.00  0.00    +0.020 A 
ATOM     10  C   UNL     1      -0.819   0.271  -1.990  0.00  0.00    +0.043 A 
ATOM     11  C   UNL     1      -0.821   1.400  -1.191  0.00  0.00    -0.041 A 
ATOM     12  C   UNL     1      -1.542   2.515  -1.573  0.00  0.00    +0.003 A 
ATOM     13 CL   UNL     1       0.082  -1.133  -1.507  0.00  0.00    -0.083 Cl
ENDBRANCH   6  11
BRANCH   6  14
ATOM     14  N   UNL     1      -0.669   2.348   1.041  0.00  0.00    +0.385 N 
ATOM     15  C   UNL     1      -2.122   2.072   1.176  0.00  0.00    -0.078 C 
ATOM     16  C   UNL     1      -2.486   2.741   2.525  0.00  0.00    -0.020 C 
ATOM     17  C   UNL     1      -1.242   2.460   3.398  0.00  0.00    -0.020 C 
ATOM     18  C   UNL     1      -0.101   2.193   2.398  0.00  0.00    -0.078 C 
ATOM     19  H   UNL     1      -0.479   3.353   0.637  0.00  0.00    -0.081 HD
ENDBRANCH   6  14
ENDBRANCH   5   6
ENDBRANCH   1   5
BRANCH   2  20
ATOM     20  C   UNL     1       4.251   2.152   2.354  0.00  0.00    +0.221 C 
BRANCH  20  21
ATOM     21  N   UNL     1       5.579   2.730   2.131  0.00  0.00    -0.290 N 
ATOM     22  C   UNL     1       5.776   4.053   2.362  0.00  0.00    +0.203 A 
ATOM     23  N   UNL     1       6.945   4.605   2.174  0.00  0.00    -0.230 NA
ATOM     24  C   UNL     1       7.981   3.886   1.750  0.00  0.00    +0.116 A 
ATOM     25  C   UNL     1       7.872   2.511   1.484  0.00  0.00    +0.080 A 
ATOM     26  C   UNL     1       6.580   1.938   1.705  0.00  0.00    +0.263 A 
ATOM     27  O   UNL     1       6.387   0.751   1.506  0.00  0.00    -0.267 OA
ATOM     28  C   UNL     1       9.100   1.870   1.026  0.00  0.00    +0.010 A 
ATOM     29  C   UNL     1      10.219   2.626   0.895  0.00  0.00    +0.057 A 
ATOM     30  S   UNL     1       9.678   4.253   1.385  0.00  0.00    -0.076 S 
BRANCH  28  31
ATOM     31  C   UNL     1       9.124   0.427   0.711  0.00  0.00    +0.021 A 
ATOM     32  C   UNL     1       9.594  -0.204  -0.410  0.00  0.00    +0.016 A 
ATOM     33  C   UNL     1       9.514  -1.579  -0.480  0.00  0.00    +0.008 A 
ATOM     34  C   UNL     1       8.964  -2.262   0.556  0.00  0.00    +0.046 A 
ATOM     35  S   UNL     1       8.542  -0.949   1.689  0.00  0.00    -0.097 S 
ENDBRANCH  28  31
ENDBRANCH  20  21
ENDBRANCH   2  20
TORSDOF 7
