REMARK  Name = ZINC13071559
REMARK  6 active torsions:
REMARK  status: ('A' for Active; 'I' for Inactive)
REMARK    1  A    between atoms: C_1  and  C_2
REMARK    2  A    between atoms: C_2  and  C_3
REMARK    3  A    between atoms: C_6  and  N_9
REMARK    4  A    between atoms: N_21  and  C_24
REMARK    5  A    between atoms: C_24  and  N_59
REMARK    6  A    between atoms: C_29  and  C_31
REMARK                            x       y       z     vdW  Elec       q    Type
REMARK                         _______ _______ _______ _____ _____    ______ ____
ROOT
ATOM      1  N   UNL     1       3.451  -0.396   0.237  0.00  0.00    -0.245 N 
ATOM      2  C   UNL     1       3.421  -1.733   0.411  0.00  0.00    +0.268 A 
ATOM      3  O   UNL     1       2.361  -2.315   0.539  0.00  0.00    -0.267 OA
ATOM      4  C   UNL     1       4.693  -2.477   0.446  0.00  0.00    +0.064 A 
ATOM      5  C   UNL     1       4.716  -3.859   0.623  0.00  0.00    +0.015 A 
ATOM      6  C   UNL     1       5.925  -4.522   0.649  0.00  0.00    +0.001 A 
ATOM      7  C   UNL     1       7.112  -3.822   0.501  0.00  0.00    +0.002 A 
ATOM      8  C   UNL     1       7.102  -2.453   0.325  0.00  0.00    +0.027 A 
ATOM      9  C   UNL     1       5.896  -1.769   0.295  0.00  0.00    +0.064 A 
ATOM     10  N   UNL     1       5.859  -0.388   0.118  0.00  0.00    -0.256 N 
ATOM     11  C   UNL     1       4.655   0.280   0.085  0.00  0.00    +0.243 A 
ATOM     12  N   UNL     1       4.894   1.552  -0.086  0.00  0.00    -0.133 NA
ATOM     13  N   UNL     1       6.281   1.728  -0.176  0.00  0.00    -0.255 N 
ATOM     14  C   UNL     1       6.851   0.513  -0.046  0.00  0.00    +0.182 A 
ATOM     15  S   UNL     1       8.528   0.174  -0.085  0.00  0.00    -0.011 S 
ENDROOT
BRANCH   1  19
ATOM     16  C   UNL     1      -0.126   1.739   0.135  0.00  0.00    -0.047 A 
ATOM     17  C   UNL     1       0.182   0.859  -0.886  0.00  0.00    +0.005 A 
ATOM     18  C   UNL     1       1.366   0.149  -0.856  0.00  0.00    +0.026 A 
ATOM     19  C   UNL     1       2.249   0.321   0.203  0.00  0.00    +0.053 A 
ATOM     20  C   UNL     1       1.937   1.205   1.227  0.00  0.00    +0.026 A 
ATOM     21  C   UNL     1       0.751   1.911   1.190  0.00  0.00    +0.005 A 
BRANCH  16  23
ATOM     22  C   UNL     1      -1.210   3.835  -0.627  0.00  0.00    +0.009 C 
ATOM     23  C   UNL     1      -1.423   2.506   0.101  0.00  0.00    +0.032 C 
ENDBRANCH  16  23
ENDBRANCH   1  19
BRANCH  13  24
ATOM     24  C   UNL     1       6.983   2.998  -0.374  0.00  0.00    +0.073 C 
BRANCH  24  30
ATOM     25  C   UNL     1       5.873   3.108  -2.523  0.00  0.00    -0.075 C 
ATOM     26  C   UNL     1       6.111   3.228  -4.030  0.00  0.00    -0.019 C 
ATOM     27  C   UNL     1       6.742   4.588  -4.336  0.00  0.00    -0.003 C 
ATOM     28  C   UNL     1       8.047   4.726  -3.546  0.00  0.00    -0.006 C 
ATOM     29  C   UNL     1       7.753   4.563  -2.053  0.00  0.00    +0.022 C 
ATOM     30  N   UNL     1       7.170   3.224  -1.822  0.00  0.00    +0.400 N 
ATOM     31  H   UNL     1       7.813   2.513  -2.191  0.00  0.00    -0.078 HD
BRANCH  29  32
ATOM     32  C   UNL     1       9.038   4.678  -1.274  0.00  0.00    +0.197 C 
ATOM     33  O   UNL     1       9.689   3.684  -1.027  0.00  0.00    -0.278 OA
ATOM     34  N   UNL     1       9.463   5.885  -0.850  0.00  0.00    -0.331 N 
ATOM     35  H   UNL     1       8.943   6.679  -1.047  0.00  0.00    +0.145 HD
ATOM     36  H   UNL     1      10.290   5.958  -0.348  0.00  0.00    +0.145 HD
ENDBRANCH  29  32
ENDBRANCH  24  30
ENDBRANCH  13  24
TORSDOF 5
