REMARK  Name = ZINC36028871
REMARK  12 active torsions:
REMARK  status: ('A' for Active; 'I' for Inactive)
REMARK    1  A    between atoms: C_1  and  C_2
REMARK    2  A    between atoms: C_2  and  C_3
REMARK    3  A    between atoms: C_3  and  C_5
REMARK    4  A    between atoms: C_3  and  C_6
REMARK    5  A    between atoms: N_10  and  C_25
REMARK    6  A    between atoms: N_20  and  C_21
REMARK    7  A    between atoms: C_21  and  C_22
REMARK    8  A    between atoms: C_21  and  C_23
REMARK    9  A    between atoms: C_21  and  C_24
REMARK   10  A    between atoms: C_25  and  C_27
REMARK   11  A    between atoms: C_25  and  C_28
REMARK   12  A    between atoms: C_28  and  C_29
REMARK                            x       y       z     vdW  Elec       q    Type
REMARK                         _______ _______ _______ _____ _____    ______ ____
ROOT
ATOM      1  C   UNL     1       0.796  -2.041  -1.353  0.00  0.00    +0.022 C 
ATOM      2  C   UNL     1       1.693  -2.395  -0.187  0.00  0.00    +0.201 C 
ATOM      3  O   UNL     1       1.390  -2.328   0.986  0.00  0.00    -0.277 OA
ATOM      4  N   UNL     1       2.886  -2.798  -0.671  0.00  0.00    -0.311 N 
ATOM      5  C   UNL     1       2.866  -2.736  -2.135  0.00  0.00    +0.006 C 
ATOM      6  N   UNL     1       1.441  -2.667  -2.533  0.00  0.00    +0.401 N 
ATOM      7  C   UNL     1       3.507  -3.990  -2.727  0.00  0.00    +0.025 C 
ATOM      8  C   UNL     1       4.970  -4.072  -2.279  0.00  0.00    +0.109 C 
ATOM      9  N   UNL     1       5.644  -2.815  -2.632  0.00  0.00    -0.286 N 
ATOM     10  C   UNL     1       5.061  -1.547  -2.172  0.00  0.00    +0.109 C 
ATOM     11  C   UNL     1       3.598  -1.486  -2.621  0.00  0.00    +0.025 C 
ATOM     12  C   UNL     1       6.775  -2.826  -3.364  0.00  0.00    +0.303 C 
ATOM     13  O   UNL     1       7.194  -3.871  -3.821  0.00  0.00    -0.253 OA
ATOM     14  N   UNL     1       7.443  -1.676  -3.589  0.00  0.00    -0.294 N 
ATOM     15  H   UNL     1       1.070  -3.592  -2.693  0.00  0.00    -0.082 HD
ATOM     16  H   UNL     1       7.072  -0.833  -3.285  0.00  0.00    +0.151 HD
ATOM     17  H   UNL     1       1.325  -2.088  -3.351  0.00  0.00    -0.082 HD
ENDROOT
BRANCH  14  18
ATOM     18  C   UNL     1       8.727  -1.701  -4.293  0.00  0.00    +0.028 C 
ATOM     19  C   UNL     1       8.532  -2.295  -5.689  0.00  0.00    +0.031 C 
ATOM     20  C   UNL     1       9.269  -0.276  -4.416  0.00  0.00    +0.031 C 
ATOM     21  C   UNL     1       9.722  -2.559  -3.508  0.00  0.00    +0.031 C 
ENDBRANCH  14  18
BRANCH   1  22
ATOM     22  C   UNL     1       0.724  -0.523  -1.529  0.00  0.00    -0.020 C 
ATOM     23  C   UNL     1       0.004  -0.195  -2.839  0.00  0.00    +0.006 C 
BRANCH  22  25
ATOM     24  C   UNL     1      -0.011   1.616  -0.466  0.00  0.00    +0.004 C 
ATOM     25  C   UNL     1      -0.045   0.090  -0.357  0.00  0.00    -0.001 C 
ENDBRANCH  22  25
ENDBRANCH   1  22
BRANCH   4  26
ATOM     26  C   UNL     1       4.026  -3.231   0.141  0.00  0.00    +0.071 C 
ATOM     27  C   UNL     1       4.233  -2.247   1.294  0.00  0.00    +0.028 C 
BRANCH  26  28
ATOM     28  C   UNL     1       3.750  -4.626   0.704  0.00  0.00    +0.019 C 
ATOM     29  C   UNL     1       3.666  -5.633  -0.445  0.00  0.00    +0.005 C 
ENDBRANCH  26  28
ENDBRANCH   4  26
TORSDOF 5
