REMARK  Name = ZINC40108869
REMARK  8 active torsions:
REMARK  status: ('A' for Active; 'I' for Inactive)
REMARK    1  A    between atoms: C_1  and  C_2
REMARK    2  A    between atoms: N_7  and  C_9
REMARK    3  A    between atoms: C_9  and  C_11
REMARK    4  A    between atoms: C_9  and  C_12
REMARK    5  A    between atoms: C_12  and  N_13
REMARK    6  A    between atoms: C_14  and  C_16
REMARK    7  A    between atoms: C_19  and  S_22
REMARK    8  A    between atoms: S_22  and  N_25
REMARK                            x       y       z     vdW  Elec       q    Type
REMARK                         _______ _______ _______ _____ _____    ______ ____
ROOT
ATOM      1  C   UNL     1       4.317   1.517   1.885  0.00  0.00    +0.037 A 
ATOM      2  C   UNL     1       3.167   2.284   2.075  0.00  0.00    +0.015 A 
ATOM      3  C   UNL     1       3.241   3.660   2.018  0.00  0.00    +0.029 A 
ATOM      4  C   UNL     1       4.453   4.281   1.772  0.00  0.00    +0.106 A 
ATOM      5  C   UNL     1       5.598   3.527   1.582  0.00  0.00    +0.029 A 
ATOM      6  C   UNL     1       5.538   2.150   1.643  0.00  0.00    +0.015 A 
ENDROOT
BRANCH   1   8
ATOM      7  N   UNL     1       3.065  -0.566   2.179  0.00  0.00    -0.313 N 
ATOM      8  C   UNL     1       4.245   0.042   1.946  0.00  0.00    +0.244 C 
ATOM      9  O   UNL     1       5.250  -0.623   1.785  0.00  0.00    -0.270 OA
ATOM     10  H   UNL     1       2.263  -0.035   2.308  0.00  0.00    +0.149 HD
BRANCH   7  11
ATOM     11  C   UNL     1       2.993  -2.028   2.239  0.00  0.00    +0.089 C 
BRANCH  11  12
ATOM     12  C   UNL     1       1.532  -2.462   2.378  0.00  0.00    -0.054 C 
ATOM     13  C   UNL     1       1.446  -3.988   2.322  0.00  0.00    -0.012 C 
BRANCH  12  19
ATOM     14  C   UNL     1      -2.991  -1.831   0.615  0.00  0.00    +0.005 C 
ATOM     15  C   UNL     1      -1.510  -1.518   0.393  0.00  0.00    -0.031 C 
ATOM     16  C   UNL     1      -1.072  -2.058  -0.971  0.00  0.00    -0.001 C 
ATOM     17  C   UNL     1       0.429  -1.810  -1.150  0.00  0.00    -0.018 C 
ATOM     18  C   UNL     1       1.190  -2.464   0.005  0.00  0.00    -0.078 C 
ATOM     19  N   UNL     1       0.745  -1.886   1.279  0.00  0.00    +0.383 N 
ATOM     20  C   UNL     1      -0.677  -2.182   1.492  0.00  0.00    -0.075 C 
ATOM     21  H   UNL     1       0.879  -0.887   1.259  0.00  0.00    -0.081 HD
ENDBRANCH  12  19
ENDBRANCH  11  12
ENDBRANCH   7  11
ENDBRANCH   1   8
BRANCH   4  22
ATOM     22  S   UNL     1       4.540   6.039   1.700  0.00  0.00    +0.061 S 
ATOM     23  O   UNL     1       5.682   6.358   0.916  0.00  0.00    -0.153 OA
ATOM     24  O   UNL     1       3.236   6.497   1.367  0.00  0.00    -0.153 OA
BRANCH  22  25
ATOM     25  N   UNL     1       4.853   6.577   3.234  0.00  0.00    -0.166 NA
ATOM     26  C   UNL     1       3.764   6.891   4.174  0.00  0.00    +0.128 C 
ATOM     27  C   UNL     1       3.892   5.960   5.381  0.00  0.00    +0.121 C 
ATOM     28  N   UNL     1       5.269   5.916   5.855  0.00  0.00    -0.313 N 
ATOM     29  C   UNL     1       6.334   6.229   5.117  0.00  0.00    +0.229 C 
ATOM     30  O   UNL     1       7.437   6.077   5.598  0.00  0.00    -0.274 OA
ATOM     31  C   UNL     1       6.231   6.756   3.716  0.00  0.00    +0.205 C 
ATOM     32  H   UNL     1       5.421   5.639   6.772  0.00  0.00    +0.149 HD
ENDBRANCH  22  25
ENDBRANCH   4  22
TORSDOF 6
