REMARK  Name = ZINC36643422
REMARK  12 active torsions:
REMARK  status: ('A' for Active; 'I' for Inactive)
REMARK    1  A    between atoms: C_1  and  C_2
REMARK    2  A    between atoms: C_2  and  C_3
REMARK    3  A    between atoms: N_9  and  S_10
REMARK    4  A    between atoms: S_10  and  C_13
REMARK    5  A    between atoms: C_16  and  C_19
REMARK    6  A    between atoms: N_21  and  C_22
REMARK    7  A    between atoms: C_22  and  C_23
REMARK    8  A    between atoms: C_23  and  C_24
REMARK    9  A    between atoms: C_24  and  N_25
REMARK   10  A    between atoms: N_25  and  C_26
REMARK   11  A    between atoms: N_25  and  C_27
REMARK   12  A    between atoms: C_31  and  C_37
REMARK                            x       y       z     vdW  Elec       q    Type
REMARK                         _______ _______ _______ _____ _____    ______ ____
ROOT
ATOM      1  C   UNL     1       2.023  -2.486  -6.512  0.00  0.00    +0.252 C 
ATOM      2  O   UNL     1       3.194  -2.754  -6.326  0.00  0.00    -0.270 OA
ATOM      3  N   UNL     1       1.282  -3.246  -7.343  0.00  0.00    -0.246 N 
ATOM      4  C   UNL     1      -0.004  -2.857  -7.675  0.00  0.00    +0.168 A 
ATOM      5  N   UNL     1      -0.391  -1.885  -8.468  0.00  0.00    -0.224 NA
ATOM      6  C   UNL     1      -1.694  -1.616  -8.704  0.00  0.00    +0.083 A 
ATOM      7  C   UNL     1      -2.241  -0.606  -9.529  0.00  0.00    -0.024 A 
ATOM      8  C   UNL     1      -3.598  -0.468  -9.659  0.00  0.00    +0.005 A 
ATOM      9  C   UNL     1      -4.480  -1.306  -8.992  0.00  0.00    +0.001 A 
ATOM     10  C   UNL     1      -3.979  -2.304  -8.177  0.00  0.00    +0.017 A 
ATOM     11  C   UNL     1      -2.621  -2.451  -8.040  0.00  0.00    +0.041 A 
ATOM     12  S   UNL     1      -1.560  -3.555  -7.139  0.00  0.00    -0.052 S 
ATOM     13  C   UNL     1      -1.322   0.328 -10.273  0.00  0.00    +0.046 C 
ENDROOT
BRANCH   1  17
ATOM     14  C   UNL     1       0.265   0.842  -4.545  0.00  0.00    +0.106 A 
ATOM     15  C   UNL     1       1.633   0.804  -4.745  0.00  0.00    +0.029 A 
ATOM     16  C   UNL     1       2.211  -0.274  -5.383  0.00  0.00    +0.015 A 
ATOM     17  C   UNL     1       1.411  -1.328  -5.827  0.00  0.00    +0.037 A 
ATOM     18  C   UNL     1       0.031  -1.284  -5.623  0.00  0.00    +0.015 A 
ATOM     19  C   UNL     1      -0.533  -0.202  -4.978  0.00  0.00    +0.029 A 
BRANCH  14  20
ATOM     20  S   UNL     1      -0.465   2.223  -3.729  0.00  0.00    +0.061 S 
ATOM     21  O   UNL     1      -1.752   2.402  -4.305  0.00  0.00    -0.153 OA
ATOM     22  O   UNL     1       0.515   3.253  -3.719  0.00  0.00    -0.153 OA
BRANCH  20  28
ATOM     23  C   UNL     1       0.389   1.859  -1.176  0.00  0.00    +0.080 C 
ATOM     24  C   UNL     1       0.531   0.497  -0.488  0.00  0.00    +0.021 C 
ATOM     25  C   UNL     1      -0.816   0.090   0.112  0.00  0.00    +0.003 C 
ATOM     26  C   UNL     1      -1.855  -0.039  -1.004  0.00  0.00    +0.017 C 
ATOM     27  C   UNL     1      -2.025   1.316  -1.698  0.00  0.00    +0.110 C 
ATOM     28  N   UNL     1      -0.708   1.787  -2.151  0.00  0.00    -0.174 NA
BRANCH  23  30
ATOM     29  C   UNL     1       2.881   1.855  -1.000  0.00  0.00    +0.005 C 
ATOM     30  C   UNL     1       1.693   2.208  -1.896  0.00  0.00    +0.017 C 
ENDBRANCH  23  30
ENDBRANCH  20  28
ENDBRANCH  14  20
ENDBRANCH   1  17
BRANCH   3  31
ATOM     31  C   UNL     1       1.838  -4.484  -7.895  0.00  0.00    +0.114 C 
BRANCH  31  32
ATOM     32  C   UNL     1       1.518  -5.650  -6.957  0.00  0.00    +0.001 C 
BRANCH  32  33
ATOM     33  C   UNL     1       2.099  -6.943  -7.533  0.00  0.00    -0.078 C 
BRANCH  33  34
ATOM     34  N   UNL     1       1.791  -8.062  -6.632  0.00  0.00    +0.376 N 
ATOM     35  C   UNL     1       2.243  -9.319  -7.242  0.00  0.00    -0.097 C 
ATOM     36  C   UNL     1       2.481  -7.863  -5.351  0.00  0.00    -0.097 C 
ATOM     37  H   UNL     1       0.795  -8.103  -6.475  0.00  0.00    -0.083 HD
ENDBRANCH  33  34
ENDBRANCH  32  33
ENDBRANCH  31  32
ENDBRANCH   3  31
TORSDOF 8
