REMARK  Name = ZINC23704140
REMARK  6 active torsions:
REMARK  status: ('A' for Active; 'I' for Inactive)
REMARK    1  A    between atoms: C_1  and  C_2
REMARK    2  A    between atoms: C_2  and  C_3
REMARK    3  A    between atoms: C_6  and  S_9
REMARK    4  A    between atoms: S_9  and  C_12
REMARK    5  A    between atoms: C_21  and  N_22
REMARK    6  A    between atoms: C_25  and  C_28
REMARK                            x       y       z     vdW  Elec       q    Type
REMARK                         _______ _______ _______ _____ _____    ______ ____
ROOT
ATOM      1  C   UNL     1      -1.998   2.418   6.400  0.00  0.00    +0.133 A 
ATOM      2  C   UNL     1      -1.353   3.296   7.260  0.00  0.00    +0.140 A 
ATOM      3  N   UNL     1      -0.619   2.871   8.262  0.00  0.00    -0.253 NA
ATOM      4  C   UNL     1      -0.453   1.566   8.508  0.00  0.00    +0.073 A 
ATOM      5  C   UNL     1       0.336   1.127   9.585  0.00  0.00    +0.028 A 
ATOM      6  C   UNL     1       0.488  -0.207   9.811  0.00  0.00    +0.002 A 
ATOM      7  C   UNL     1      -0.128  -1.149   8.992  0.00  0.00    +0.001 A 
ATOM      8  C   UNL     1      -0.900  -0.760   7.939  0.00  0.00    +0.012 A 
ATOM      9  C   UNL     1      -1.078   0.606   7.677  0.00  0.00    +0.023 A 
ATOM     10  C   UNL     1      -1.877   1.051   6.596  0.00  0.00    +0.066 A 
ENDROOT
BRANCH  10  11
ATOM     11  N   UNL     1      -2.513   0.149   5.758  0.00  0.00    -0.328 N 
ATOM     12  C   UNL     1      -3.496  -0.654   6.498  0.00  0.00    +0.106 C 
ATOM     13  C   UNL     1      -4.279  -1.532   5.520  0.00  0.00    +0.031 C 
ATOM     14  C   UNL     1      -3.305  -2.447   4.771  0.00  0.00    +0.078 C 
ATOM     15  C   UNL     1      -2.264  -1.588   4.048  0.00  0.00    +0.031 C 
ATOM     16  C   UNL     1      -1.539  -0.707   5.069  0.00  0.00    +0.106 C 
BRANCH  14  17
ATOM     17  C   UNL     1      -4.062  -3.273   3.764  0.00  0.00    +0.214 C 
ATOM     18  O   UNL     1      -3.796  -3.185   2.584  0.00  0.00    -0.276 OA
ATOM     19  N   UNL     1      -5.035  -4.111   4.174  0.00  0.00    -0.329 N 
ATOM     20  H   UNL     1      -5.588  -4.714   3.439  0.00  0.00    +0.145 HD
ATOM     21  H   UNL     1      -5.277  -4.191   5.245  0.00  0.00    +0.145 HD
ENDBRANCH  14  17
ENDBRANCH  10  11
BRANCH   1  22
ATOM     22  S   UNL     1      -2.972   3.038   5.069  0.00  0.00    +0.028 S 
ATOM     23  O   UNL     1      -2.881   4.455   5.124  0.00  0.00    -0.164 OA
ATOM     24  O   UNL     1      -4.215   2.352   5.122  0.00  0.00    -0.164 OA
BRANCH  22  28
ATOM     25  C   UNL     1      -0.954   1.760   1.224  0.00  0.00    -0.048 A 
ATOM     26  C   UNL     1      -0.617   2.964   1.815  0.00  0.00    +0.005 A 
ATOM     27  C   UNL     1      -1.237   3.356   2.986  0.00  0.00    +0.027 A 
ATOM     28  C   UNL     1      -2.186   2.540   3.572  0.00  0.00    +0.094 A 
ATOM     29  C   UNL     1      -2.519   1.335   2.984  0.00  0.00    +0.027 A 
ATOM     30  C   UNL     1      -1.903   0.944   1.810  0.00  0.00    +0.005 A 
BRANCH  25  32
ATOM     31  C   UNL     1      -1.089   1.848  -1.251  0.00  0.00    +0.009 C 
ATOM     32  C   UNL     1      -0.282   1.335  -0.056  0.00  0.00    +0.032 C 
ENDBRANCH  25  32
ENDBRANCH  22  28
ENDBRANCH   1  22
TORSDOF 5
