REMARK  Name = ZINC51605189
REMARK  6 active torsions:
REMARK  status: ('A' for Active; 'I' for Inactive)
REMARK    1  A    between atoms: C_1  and  C_2
REMARK    2  A    between atoms: C_2  and  N_3
REMARK    3  A    between atoms: C_7  and  N_10
REMARK    4  A    between atoms: C_11  and  C_24
REMARK    5  A    between atoms: C_13  and  C_21
REMARK    6  A    between atoms: C_15  and  C_20
REMARK                            x       y       z     vdW  Elec       q    Type
REMARK                         _______ _______ _______ _____ _____    ______ ____
ROOT
ATOM      1  N   UNL     1      -3.003  -3.953   0.401  0.00  0.00    -0.297 N 
ATOM      2  C   UNL     1      -3.620  -4.638   1.522  0.00  0.00    +0.087 C 
ATOM      3  C   UNL     1      -3.167  -6.074   1.717  0.00  0.00    +0.125 C 
ATOM      4  C   UNL     1      -1.859  -6.403   1.007  0.00  0.00    +0.010 C 
ATOM      5  C   UNL     1      -1.958  -6.018  -0.471  0.00  0.00    +0.100 C 
ATOM      6  C   UNL     1      -2.294  -4.555  -0.556  0.00  0.00    +0.216 C 
ATOM      7  O   UNL     1      -1.914  -3.917  -1.507  0.00  0.00    -0.276 OA
ATOM      8  C   UNL     1      -0.681  -5.681   1.660  0.00  0.00    +0.009 C 
ATOM      9  C   UNL     1      -3.381  -3.836   2.807  0.00  0.00    +0.029 C 
ENDROOT
BRANCH   1  14
ATOM     10  N   UNL     1      -1.996  -0.360   0.206  0.00  0.00    +0.381 N 
ATOM     11  C   UNL     1      -2.622  -0.027  -1.080  0.00  0.00    -0.079 C 
ATOM     12  C   UNL     1      -4.019  -0.646  -1.146  0.00  0.00    -0.017 C 
ATOM     13  C   UNL     1      -3.905  -2.167  -1.012  0.00  0.00    +0.019 C 
ATOM     14  C   UNL     1      -3.184  -2.501   0.297  0.00  0.00    +0.060 C 
ATOM     15  C   UNL     1      -1.817  -1.813   0.311  0.00  0.00    -0.056 C 
ATOM     16  H   UNL     1      -2.586  -0.040   0.958  0.00  0.00    -0.082 HD
BRANCH  10  18
ATOM     17  C   UNL     1      -0.881   1.818   0.313  0.00  0.00    -0.017 C 
ATOM     18  C   UNL     1      -0.687   0.300   0.297  0.00  0.00    -0.082 C 
ENDBRANCH  10  18
ENDBRANCH   1  14
BRANCH   3  19
ATOM     19  C   UNL     1      -3.012  -6.352   3.197  0.00  0.00    +0.361 C 
ATOM     20  O   UNL     1      -3.742  -7.160   3.746  0.00  0.00    -0.246 OA
ATOM     21  O   UNL     1      -2.156  -5.768   3.840  0.00  0.00    -0.246 OA
ENDBRANCH   3  19
TORSDOF 3
