REMARK  Name = ZINC03670213
REMARK  6 active torsions:
REMARK  status: ('A' for Active; 'I' for Inactive)
REMARK    1  A    between atoms: C_7  and  C_19
REMARK    2  A    between atoms: C_7  and  O_30
REMARK    3  A    between atoms: N_8  and  C_12
REMARK    4  A    between atoms: N_21  and  C_22
REMARK    5  A    between atoms: C_22  and  C_23
REMARK    6  A    between atoms: C_23  and  C_24
REMARK                            x       y       z     vdW  Elec       q    Type
REMARK                         _______ _______ _______ _____ _____    ______ ____
ROOT
ATOM      1  C   UNL     1      -1.180   3.018   0.762  0.00  0.00    +0.001 A 
ATOM      2  C   UNL     1      -1.192   1.704   0.328  0.00  0.00    +0.002 A 
ATOM      3  C   UNL     1      -0.019   1.087  -0.061  0.00  0.00    +0.024 A 
ATOM      4  C   UNL     1       1.177   1.793  -0.029  0.00  0.00    +0.043 A 
ATOM      5  C   UNL     1       1.178   3.115   0.402  0.00  0.00    +0.033 A 
ATOM      6  C   UNL     1       0.009   3.726   0.795  0.00  0.00    +0.010 A 
ATOM      7  C   UNL     1       2.496   3.854   0.424  0.00  0.00    +0.247 C 
ATOM      8  N   UNL     1       3.686   3.107  -0.017  0.00  0.00    -0.214 N 
ATOM      9  C   UNL     1       3.549   1.828  -0.411  0.00  0.00    +0.314 C 
ATOM     10  O   UNL     1       4.540   1.223  -0.772  0.00  0.00    -0.252 OA
ATOM     11  N   UNL     1       2.371   1.190  -0.423  0.00  0.00    -0.269 N 
ATOM     12  H   UNL     1       2.348   0.267  -0.720  0.00  0.00    +0.156 HD
ENDROOT
BRANCH   8  13
ATOM     13  C   UNL     1       4.945   3.720  -0.026  0.00  0.00    +0.041 A 
ATOM     14  C   UNL     1       5.340   4.482  -1.117  0.00  0.00    +0.025 A 
ATOM     15  C   UNL     1       6.580   5.089  -1.122  0.00  0.00    +0.022 A 
ATOM     16  C   UNL     1       7.433   4.930  -0.044  0.00  0.00    +0.041 A 
ATOM     17  C   UNL     1       7.045   4.167   1.043  0.00  0.00    +0.022 A 
ATOM     18  C   UNL     1       5.803   3.562   1.054  0.00  0.00    +0.025 A 
ATOM     19 CL   UNL     1       8.994   5.690  -0.056  0.00  0.00    -0.084 Cl
ENDBRANCH   8  13
BRANCH   7  20
ATOM     20  C   UNL     1       2.740   4.327   1.834  0.00  0.00    +0.269 C 
ATOM     21  O   UNL     1       2.769   5.514   2.079  0.00  0.00    -0.270 OA
ATOM     22  N   UNL     1       2.926   3.430   2.823  0.00  0.00    -0.311 N 
ATOM     23  H   UNL     1       2.903   2.480   2.627  0.00  0.00    +0.149 HD
BRANCH  22  24
ATOM     24  C   UNL     1       3.163   3.890   4.194  0.00  0.00    +0.108 C 
BRANCH  24  25
ATOM     25  C   UNL     1       3.341   2.680   5.114  0.00  0.00    +0.049 C 
BRANCH  25  26
ATOM     26  C   UNL     1       3.585   3.153   6.524  0.00  0.00    -0.072 C 
ATOM     27  C   UNL     1       2.568   3.240   7.319  0.00  0.00    -0.028 C 
ATOM     28  C   UNL     1       2.652   3.698   8.746  0.00  0.00    +0.027 C 
ATOM     29  C   UNL     1       4.102   3.643   9.233  0.00  0.00    +0.004 C 
ATOM     30  C   UNL     1       4.990   4.340   8.195  0.00  0.00    +0.005 C 
ATOM     31  C   UNL     1       4.991   3.499   6.916  0.00  0.00    +0.030 C 
ENDBRANCH  25  26
ENDBRANCH  24  25
ENDBRANCH  22  24
ENDBRANCH   7  20
BRANCH   7  32
ATOM     32  O   UNL     1       2.368   5.009  -0.407  0.00  0.00    -0.360 OA
ATOM     33  H   UNL     1       1.677   5.623  -0.124  0.00  0.00    +0.213 HD
ENDBRANCH   7  32
TORSDOF 6
