REMARK  Name = ZINC12744823
REMARK  9 active torsions:
REMARK  status: ('A' for Active; 'I' for Inactive)
REMARK    1  A    between atoms: C_1  and  C_2
REMARK    2  A    between atoms: C_2  and  C_3
REMARK    3  A    between atoms: C_5  and  C_32
REMARK    4  A    between atoms: C_7  and  C_31
REMARK    5  A    between atoms: C_8  and  C_12
REMARK    6  A    between atoms: C_17  and  C_20
REMARK    7  A    between atoms: C_20  and  N_21
REMARK    8  A    between atoms: C_23  and  C_30
REMARK    9  A    between atoms: C_26  and  C_29
REMARK                            x       y       z     vdW  Elec       q    Type
REMARK                         _______ _______ _______ _____ _____    ______ ____
ROOT
ATOM      1  C   UNL     1       5.293  -1.741  -5.326  0.00  0.00    +0.257 C 
ATOM      2  O   UNL     1       5.044  -1.894  -6.506  0.00  0.00    -0.269 OA
ATOM      3  N   UNL     1       6.556  -1.890  -4.878  0.00  0.00    -0.260 N 
ATOM      4  C   UNL     1       7.572  -2.218  -5.766  0.00  0.00    +0.165 A 
ATOM      5  N   UNL     1       8.850  -2.407  -5.512  0.00  0.00    -0.228 NA
ATOM      6  C   UNL     1       9.698  -2.716  -6.476  0.00  0.00    +0.064 A 
ATOM      7  C   UNL     1       9.193  -2.829  -7.729  0.00  0.00    +0.073 A 
ATOM      8  S   UNL     1       7.469  -2.477  -7.426  0.00  0.00    -0.060 S 
ATOM      9  H   UNL     1       6.755  -1.768  -3.937  0.00  0.00    +0.157 HD
ENDROOT
BRANCH   1  15
ATOM     10  C   UNL     1       0.603  -0.260  -1.359  0.00  0.00    +0.130 A 
ATOM     11  N   UNL     1      -0.031  -0.470  -2.500  0.00  0.00    -0.237 NA
ATOM     12  C   UNL     1       0.598  -0.809  -3.604  0.00  0.00    +0.050 A 
ATOM     13  C   UNL     1       2.008  -0.958  -3.582  0.00  0.00    +0.032 A 
ATOM     14  C   UNL     1       2.881  -1.307  -4.624  0.00  0.00    -0.020 A 
ATOM     15  C   UNL     1       4.218  -1.394  -4.387  0.00  0.00    +0.080 A 
ATOM     16  S   UNL     1       4.344  -0.984  -2.654  0.00  0.00    -0.064 S 
ATOM     17  C   UNL     1       2.621  -0.717  -2.325  0.00  0.00    +0.113 A 
ATOM     18  N   UNL     1       1.914  -0.376  -1.270  0.00  0.00    -0.225 NA
ATOM     19  C   UNL     1       2.340  -1.586  -6.003  0.00  0.00    +0.046 C 
ATOM     20  C   UNL     1      -0.172  -1.038  -4.879  0.00  0.00    +0.066 C 
BRANCH  10  22
ATOM     21  C   UNL     1      -0.310   1.649  -0.067  0.00  0.00    +0.012 C 
ATOM     22  C   UNL     1      -0.188   0.126  -0.136  0.00  0.00    +0.073 C 
ENDBRANCH  10  22
ENDBRANCH   1  15
BRANCH   6  23
ATOM     23  C   UNL     1      11.162  -2.935  -6.195  0.00  0.00    +0.140 C 
BRANCH  23  24
ATOM     24  N   UNL     1      11.860  -1.642  -6.204  0.00  0.00    -0.292 NA
ATOM     25  C   UNL     1      11.853  -1.050  -7.550  0.00  0.00    +0.116 C 
ATOM     26  C   UNL     1      12.537   0.319  -7.502  0.00  0.00    +0.130 C 
ATOM     27  O   UNL     1      13.861   0.168  -6.984  0.00  0.00    -0.371 OA
ATOM     28  C   UNL     1      13.905  -0.406  -5.675  0.00  0.00    +0.130 C 
ATOM     29  C   UNL     1      13.236  -1.782  -5.704  0.00  0.00    +0.116 C 
ATOM     30  C   UNL     1      15.362  -0.555  -5.231  0.00  0.00    +0.039 C 
ATOM     31  C   UNL     1      11.738   1.258  -6.596  0.00  0.00    +0.039 C 
ENDBRANCH  23  24
ENDBRANCH   6  23
TORSDOF 4
