REMARK  Name = ZINC62144895
REMARK  4 active torsions:
REMARK  status: ('A' for Active; 'I' for Inactive)
REMARK    1  A    between atoms: C_6  and  C_7
REMARK    2  A    between atoms: C_7  and  C_8
REMARK    3  A    between atoms: C_8  and  C_10
REMARK    4  A    between atoms: C_13  and  N_15
REMARK                            x       y       z     vdW  Elec       q    Type
REMARK                         _______ _______ _______ _____ _____    ______ ____
ROOT
ATOM      1  C   UNL     1      -1.745  -1.028  -1.429  0.00  0.00    +0.151 C 
ATOM      2 CL   UNL     1      -2.131   0.544  -2.223  0.00  0.00    -0.113 Cl
ENDROOT
BRANCH   1   3
ATOM      3  C   UNL     1      -2.972  -1.903  -1.424  0.00  0.00    +0.126 A 
ATOM      4  C   UNL     1      -3.049  -3.152  -1.916  0.00  0.00    +0.048 A 
ATOM      5  C   UNL     1      -4.375  -3.595  -1.703  0.00  0.00    +0.076 A 
ATOM      6  C   UNL     1      -5.029  -2.589  -1.094  0.00  0.00    +0.280 A 
ATOM      7  O   UNL     1      -4.172  -1.569  -0.922  0.00  0.00    -0.437 OA
BRANCH   6   8
ATOM      8  N   UNL     1      -6.449  -2.607  -0.678  0.00  0.00    +0.093 N 
ATOM      9  O   UNL     1      -7.127  -3.587  -0.880  0.00  0.00    -0.123 OA
ATOM     10  O   UNL     1      -6.932  -1.640  -0.136  0.00  0.00    -0.123 OA
ENDBRANCH   6   8
ENDBRANCH   1   3
BRANCH   1  11
ATOM     11  C   UNL     1      -1.293  -0.775   0.010  0.00  0.00    +0.062 C 
BRANCH  11  17
ATOM     12  C   UNL     1      -0.017   1.378   0.010  0.00  0.00    +0.005 A 
ATOM     13  C   UNL     1       1.171   2.086   0.002  0.00  0.00    +0.015 A 
ATOM     14  C   UNL     1       2.378   1.411  -0.013  0.00  0.00    +0.018 A 
ATOM     15  C   UNL     1       2.396   0.027  -0.021  0.00  0.00    +0.015 A 
ATOM     16  C   UNL     1       1.208  -0.679  -0.013  0.00  0.00    +0.005 A 
ATOM     17  C   UNL     1       0.002  -0.004   0.002  0.00  0.00    -0.045 A 
ATOM     18 BR   UNL     1       4.003   2.378  -0.024  0.00  0.00    -0.050 Br
ENDBRANCH  11  17
ENDBRANCH   1  11
TORSDOF 4
