REMARK  Name = ZINC39665318
REMARK  9 active torsions:
REMARK  status: ('A' for Active; 'I' for Inactive)
REMARK    1  A    between atoms: C_1  and  C_2
REMARK    2  A    between atoms: C_2  and  C_4
REMARK    3  A    between atoms: C_2  and  O_34
REMARK    4  A    between atoms: C_4  and  N_5
REMARK    5  A    between atoms: C_6  and  C_8
REMARK    6  A    between atoms: C_19  and  C_21
REMARK    7  A    between atoms: C_26  and  S_27
REMARK    8  A    between atoms: S_27  and  C_28
REMARK    9  A    between atoms: O_34  and  C_35
REMARK                            x       y       z     vdW  Elec       q    Type
REMARK                         _______ _______ _______ _____ _____    ______ ____
ROOT
ATOM      1  C   UNL     1       1.539  -3.540  -3.315  0.00  0.00    +0.100 C 
ATOM      2  C   UNL     1       0.200  -4.296  -3.466  0.00  0.00    +0.121 C 
ATOM      3  N   UNL     1       0.006  -4.427  -4.929  0.00  0.00    -0.296 N 
ATOM      4  C   UNL     1       1.362  -4.714  -5.456  0.00  0.00    +0.115 C 
ATOM      5  C   UNL     1       2.300  -3.819  -4.622  0.00  0.00    -0.004 C 
ATOM      6  C   UNL     1       2.577  -2.514  -5.361  0.00  0.00    -0.010 C 
ATOM      7  C   UNL     1       3.384  -2.812  -6.628  0.00  0.00    -0.082 C 
ATOM      8  N   UNL     1       4.645  -3.469  -6.264  0.00  0.00    +0.379 N 
ATOM      9  C   UNL     1       4.370  -4.767  -5.636  0.00  0.00    -0.082 C 
ATOM     10  C   UNL     1       3.605  -4.552  -4.327  0.00  0.00    -0.010 C 
ATOM     11  C   UNL     1      -1.143  -4.311  -5.624  0.00  0.00    +0.249 C 
ATOM     12  O   UNL     1      -2.167  -3.984  -5.055  0.00  0.00    -0.270 OA
ATOM     13  H   UNL     1       5.201  -3.609  -7.094  0.00  0.00    -0.086 HD
ATOM     14  H   UNL     1       5.153  -2.885  -5.617  0.00  0.00    -0.086 HD
ENDROOT
BRANCH  11  15
ATOM     15  C   UNL     1      -1.158  -4.579  -7.073  0.00  0.00    +0.069 A 
ATOM     16  C   UNL     1      -0.363  -5.593  -7.619  0.00  0.00    +0.017 A 
ATOM     17  C   UNL     1      -0.413  -5.806  -8.985  0.00  0.00    +0.020 A 
ATOM     18  C   UNL     1      -1.240  -5.018  -9.767  0.00  0.00    +0.112 A 
ATOM     19  N   UNL     1      -1.981  -4.067  -9.235  0.00  0.00    -0.248 NA
ATOM     20  C   UNL     1      -1.975  -3.824  -7.932  0.00  0.00    +0.114 A 
BRANCH  20  21
ATOM     21  S   UNL     1      -2.993  -2.545  -7.275  0.00  0.00    -0.069 S 
BRANCH  21  22
ATOM     22  C   UNL     1      -3.929  -1.990  -8.660  0.00  0.00    +0.014 A 
ATOM     23  C   UNL     1      -5.198  -2.504  -8.895  0.00  0.00    +0.015 A 
ATOM     24  C   UNL     1      -5.929  -2.067  -9.981  0.00  0.00    +0.001 A 
ATOM     25  C   UNL     1      -5.399  -1.117 -10.836  0.00  0.00    +0.000 A 
ATOM     26  C   UNL     1      -4.136  -0.603 -10.606  0.00  0.00    +0.001 A 
ATOM     27  C   UNL     1      -3.402  -1.032  -9.518  0.00  0.00    +0.015 A 
ENDBRANCH  21  22
ENDBRANCH  20  21
ENDBRANCH  11  15
BRANCH   1  29
ATOM     28  N   UNL     1       2.219  -1.282  -2.568  0.00  0.00    -0.312 N 
ATOM     29  C   UNL     1       1.291  -2.062  -3.158  0.00  0.00    +0.218 C 
ATOM     30  O   UNL     1       0.257  -1.574  -3.562  0.00  0.00    -0.275 OA
ATOM     31  H   UNL     1       3.046  -1.672  -2.244  0.00  0.00    +0.149 HD
BRANCH  28  32
ATOM     32  C   UNL     1       1.978   0.155  -2.415  0.00  0.00    +0.148 C 
BRANCH  32  34
ATOM     33  C   UNL     1       2.875   2.277  -1.448  0.00  0.00    +0.053 C 
ATOM     34  C   UNL     1       3.177   0.802  -1.720  0.00  0.00    +0.187 C 
BRANCH  34  35
ATOM     35  O   UNL     1       4.328   0.699  -2.561  0.00  0.00    -0.488 OA
BRANCH  35  36
ATOM     36  C   UNL     1       5.543   0.750  -1.953  0.00  0.00    +0.121 A 
ATOM     37  C   UNL     1       5.625   0.847  -0.572  0.00  0.00    +0.045 A 
ATOM     38  C   UNL     1       6.861   0.898   0.043  0.00  0.00    +0.004 A 
ATOM     39  C   UNL     1       8.015   0.853  -0.717  0.00  0.00    +0.000 A 
ATOM     40  C   UNL     1       7.936   0.757  -2.094  0.00  0.00    +0.004 A 
ATOM     41  C   UNL     1       6.702   0.699  -2.713  0.00  0.00    +0.045 A 
ENDBRANCH  35  36
ENDBRANCH  34  35
ENDBRANCH  32  34
ENDBRANCH  28  32
ENDBRANCH   1  29
TORSDOF 8
