REMARK  Name = ZINC20832726
REMARK  9 active torsions:
REMARK  status: ('A' for Active; 'I' for Inactive)
REMARK    1  A    between atoms: C_1  and  N_2
REMARK    2  A    between atoms: N_2  and  C_3
REMARK    3  A    between atoms: N_2  and  C_4
REMARK    4  A    between atoms: C_7  and  C_10
REMARK    5  A    between atoms: N_11  and  N_12
REMARK    6  A    between atoms: C_15  and  S_18
REMARK    7  A    between atoms: S_18  and  C_19
REMARK    8  A    between atoms: C_19  and  C_20
REMARK    9  A    between atoms: N_22  and  C_23
REMARK                            x       y       z     vdW  Elec       q    Type
REMARK                         _______ _______ _______ _____ _____    ______ ____
ROOT
ATOM      1  N   UNL     1       8.710   8.995  -3.200  0.00  0.00    -0.205 N 
ATOM      2  C   UNL     1       7.863   7.926  -2.945  0.00  0.00    +0.232 A 
ATOM      3  N   UNL     1       7.235   7.663  -1.759  0.00  0.00    -0.186 NA
ATOM      4  C   UNL     1       6.495   6.526  -1.917  0.00  0.00    +0.211 A 
ATOM      5  N   UNL     1       6.661   6.101  -3.146  0.00  0.00    -0.144 NA
ATOM      6  N   UNL     1       7.525   6.991  -3.799  0.00  0.00    -0.245 N 
ATOM      7  H   UNL     1       8.927   9.726  -2.407  0.00  0.00    +0.177 HD
ATOM      8  H   UNL     1       7.920   7.014  -4.825  0.00  0.00    +0.192 HD
ENDROOT
BRANCH   1  10
ATOM      9  C   UNL     1      10.081  10.145  -4.706  0.00  0.00    +0.138 C 
ATOM     10  N   UNL     1       9.288   9.144  -4.467  0.00  0.00    -0.188 NA
BRANCH   9  14
ATOM     11  C   UNL     1      11.835  10.596  -8.546  0.00  0.00    +0.029 A 
ATOM     12  C   UNL     1      12.110  11.521  -7.545  0.00  0.00    +0.024 A 
ATOM     13  C   UNL     1      11.542  11.379  -6.298  0.00  0.00    +0.011 A 
ATOM     14  C   UNL     1      10.689  10.302  -6.039  0.00  0.00    -0.005 A 
ATOM     15  C   UNL     1      10.420   9.371  -7.046  0.00  0.00    +0.011 A 
ATOM     16  C   UNL     1      10.987   9.523  -8.292  0.00  0.00    +0.024 A 
BRANCH  11  18
ATOM     17  C   UNL     1      13.204  11.937 -10.116  0.00  0.00    +0.129 C 
ATOM     18  N   UNL     1      12.412  10.744  -9.808  0.00  0.00    -0.336 N 
ATOM     19  C   UNL     1      12.226   9.705 -10.825  0.00  0.00    +0.129 C 
ENDBRANCH  11  18
ENDBRANCH   9  14
ENDBRANCH   1  10
BRANCH   4  20
ATOM     20  S   UNL     1       5.496   5.761  -0.683  0.00  0.00    -0.075 S 
BRANCH  20  21
ATOM     21  C   UNL     1       4.793   4.315  -1.522  0.00  0.00    +0.173 C 
BRANCH  21  22
ATOM     22  C   UNL     1       3.905   3.561  -0.565  0.00  0.00    +0.224 C 
ATOM     23  O   UNL     1       3.762   3.960   0.571  0.00  0.00    -0.275 OA
ATOM     24  N   UNL     1       3.271   2.444  -0.972  0.00  0.00    -0.308 N 
ATOM     25  H   UNL     1       3.401   2.082  -2.003  0.00  0.00    +0.149 HD
BRANCH  24  26
ATOM     26  C   UNL     1       2.409   1.711  -0.042  0.00  0.00    +0.103 C 
ATOM     27  C   UNL     1       2.324   0.250  -0.479  0.00  0.00    +0.027 C 
ATOM     28  C   UNL     1       1.254  -0.447   0.370  0.00  0.00    +0.007 C 
ATOM     29  C   UNL     1      -0.115   0.091  -0.042  0.00  0.00    +0.035 C 
ATOM     30  C   UNL     1      -0.118   1.598  -0.027  0.00  0.00    -0.042 A 
ATOM     31  C   UNL     1       1.041   2.341  -0.031  0.00  0.00    -0.024 A 
ATOM     32  C   UNL     1       0.968   3.728  -0.022  0.00  0.00    +0.006 A 
ATOM     33  C   UNL     1      -0.255   4.366  -0.005  0.00  0.00    +0.000 A 
ATOM     34  C   UNL     1      -1.418   3.619   0.003  0.00  0.00    +0.000 A 
ATOM     35  C   UNL     1      -1.348   2.242  -0.014  0.00  0.00    +0.004 A 
ENDBRANCH  24  26
ENDBRANCH  21  22
ENDBRANCH  20  21
ENDBRANCH   4  20
TORSDOF 7
