REMARK  Name = ZINC22468280
REMARK  7 active torsions:
REMARK  status: ('A' for Active; 'I' for Inactive)
REMARK    1  A    between atoms: C_4  and  C_7
REMARK    2  A    between atoms: C_14  and  O_28
REMARK    3  A    between atoms: C_15  and  C_18
REMARK    4  A    between atoms: C_18  and  N_19
REMARK    5  A    between atoms: N_22  and  C_25
REMARK    6  A    between atoms: C_25  and  C_26
REMARK    7  A    between atoms: C_26  and  O_27
REMARK                            x       y       z     vdW  Elec       q    Type
REMARK                         _______ _______ _______ _____ _____    ______ ____
ROOT
ATOM      1  C   UNL     1       4.281  -3.585  -0.389  0.00  0.00    +0.058 C 
ATOM      2  C   UNL     1       3.436  -2.525  -0.431  0.00  0.00    +0.176 C 
ATOM      3  C   UNL     1       1.975  -2.582  -0.602  0.00  0.00    +0.231 C 
ATOM      4  O   UNL     1       1.278  -3.573  -0.735  0.00  0.00    -0.283 OA
ATOM      5  C   UNL     1       1.545  -1.173  -0.578  0.00  0.00    +0.068 A 
ATOM      6  C   UNL     1       0.299  -0.553  -0.688  0.00  0.00    +0.019 A 
ATOM      7  C   UNL     1       0.209   0.809  -0.627  0.00  0.00    +0.046 A 
ATOM      8  C   UNL     1       1.356   1.579  -0.455  0.00  0.00    +0.122 A 
ATOM      9  C   UNL     1       2.599   0.977  -0.344  0.00  0.00    +0.020 A 
ATOM     10  C   UNL     1       2.708  -0.406  -0.404  0.00  0.00    +0.144 A 
ATOM     11  O   UNL     1       3.783  -1.221  -0.323  0.00  0.00    -0.451 OA
ENDROOT
BRANCH   1  15
ATOM     12  C   UNL     1       8.473  -2.954  -0.288  0.00  0.00    +0.000 A 
ATOM     13  C   UNL     1       7.619  -1.879  -0.467  0.00  0.00    +0.001 A 
ATOM     14  C   UNL     1       6.255  -2.076  -0.501  0.00  0.00    +0.008 A 
ATOM     15  C   UNL     1       5.734  -3.366  -0.355  0.00  0.00    -0.021 A 
ATOM     16  C   UNL     1       6.604  -4.447  -0.169  0.00  0.00    +0.008 A 
ATOM     17  C   UNL     1       7.965  -4.234  -0.143  0.00  0.00    +0.001 A 
ENDBRANCH   1  15
BRANCH   8  18
ATOM     18  O   UNL     1       1.255   2.931  -0.396  0.00  0.00    -0.506 OA
ATOM     19  H   UNL     1       2.158   3.545  -0.260  0.00  0.00    +0.292 HD
ENDBRANCH   8  18
BRANCH   9  20
ATOM     20  C   UNL     1       3.831   1.824  -0.157  0.00  0.00    -0.035 C 
BRANCH  20  21
ATOM     21  N   UNL     1       4.390   2.171  -1.471  0.00  0.00    +0.384 N 
ATOM     22  C   UNL     1       4.892   0.975  -2.162  0.00  0.00    -0.063 C 
ATOM     23  C   UNL     1       5.392   1.367  -3.555  0.00  0.00    +0.066 C 
ATOM     24  N   UNL     1       6.449   2.380  -3.426  0.00  0.00    -0.304 NA
ATOM     25  C   UNL     1       5.947   3.575  -2.735  0.00  0.00    +0.066 C 
ATOM     26  C   UNL     1       5.447   3.184  -1.342  0.00  0.00    -0.063 C 
ATOM     27  H   UNL     1       3.580   2.600  -2.079  0.00  0.00    -0.081 HD
BRANCH  24  28
ATOM     28  C   UNL     1       7.008   2.727  -4.740  0.00  0.00    +0.112 C 
BRANCH  28  29
ATOM     29  C   UNL     1       8.378   3.382  -4.554  0.00  0.00    +0.171 C 
BRANCH  29  30
ATOM     30  O   UNL     1       9.289   2.432  -3.999  0.00  0.00    -0.394 OA
ATOM     31  H   UNL     1      10.330   2.723  -3.793  0.00  0.00    +0.209 HD
ENDBRANCH  29  30
ENDBRANCH  28  29
ENDBRANCH  24  28
ENDBRANCH  20  21
ENDBRANCH   9  20
TORSDOF 7
