REMARK  Name = ZINC67482835
REMARK  8 active torsions:
REMARK  status: ('A' for Active; 'I' for Inactive)
REMARK    1  A    between atoms: C_1  and  C_2
REMARK    2  A    between atoms: C_2  and  C_4
REMARK    3  A    between atoms: C_2  and  N_13
REMARK    4  A    between atoms: N_13  and  C_14
REMARK    5  A    between atoms: N_17  and  N_18
REMARK    6  A    between atoms: C_19  and  C_21
REMARK    7  A    between atoms: C_26  and  O_27
REMARK    8  A    between atoms: O_27  and  C_28
REMARK                            x       y       z     vdW  Elec       q    Type
REMARK                         _______ _______ _______ _____ _____    ______ ____
ROOT
ATOM      1  N   UNL     1      -1.433  -0.571  -0.032  0.00  0.00    -0.278 N 
ATOM      2  C   UNL     1      -2.522  -0.426   0.938  0.00  0.00    +0.134 C 
ATOM      3  C   UNL     1      -1.619  -1.301  -1.149  0.00  0.00    +0.319 C 
ATOM      4  O   UNL     1      -0.688  -1.502  -1.905  0.00  0.00    -0.251 OA
ATOM      5  N   UNL     1      -2.836  -1.808  -1.429  0.00  0.00    -0.218 N 
ATOM      6  H   UNL     1      -3.594  -1.586  -0.867  0.00  0.00    +0.174 HD
ENDROOT
BRANCH   5   7
ATOM      7  N   UNL     1      -3.004  -2.656  -2.531  0.00  0.00    -0.229 N 
ATOM      8  C   UNL     1      -4.197  -3.244  -2.753  0.00  0.00    +0.264 C 
ATOM      9  O   UNL     1      -5.126  -3.038  -1.996  0.00  0.00    -0.269 OA
ATOM     10  H   UNL     1      -2.263  -2.820  -3.135  0.00  0.00    +0.173 HD
BRANCH   8  11
ATOM     11  C   UNL     1      -4.375  -4.137  -3.913  0.00  0.00    +0.080 A 
ATOM     12  C   UNL     1      -3.308  -4.380  -4.782  0.00  0.00    +0.017 A 
ATOM     13  C   UNL     1      -3.481  -5.216  -5.865  0.00  0.00    +0.001 A 
ATOM     14  C   UNL     1      -4.708  -5.816  -6.096  0.00  0.00    +0.004 A 
ATOM     15  C   UNL     1      -5.770  -5.583  -5.245  0.00  0.00    +0.046 A 
ATOM     16  C   UNL     1      -5.613  -4.750  -4.148  0.00  0.00    +0.132 A 
BRANCH  16  17
ATOM     17  O   UNL     1      -6.654  -4.526  -3.308  0.00  0.00    -0.494 OA
ATOM     18  C   UNL     1      -7.885  -5.185  -3.610  0.00  0.00    +0.277 C 
ENDBRANCH  16  17
ENDBRANCH   8  11
ENDBRANCH   5   7
BRANCH   1  20
ATOM     19  C   UNL     1      -0.346   1.592   0.320  0.00  0.00    +0.036 C 
ATOM     20  C   UNL     1      -0.143   0.079   0.214  0.00  0.00    +0.140 C 
BRANCH  20  21
ATOM     21  C   UNL     1       0.444  -0.441   1.501  0.00  0.00    +0.126 A 
ATOM     22  C   UNL     1       1.740  -0.716   1.696  0.00  0.00    +0.055 A 
ATOM     23  C   UNL     1       1.854  -1.190   3.081  0.00  0.00    +0.020 A 
ATOM     24  C   UNL     1       2.911  -1.625   3.879  0.00  0.00    +0.011 A 
ATOM     25  C   UNL     1       2.672  -2.011   5.169  0.00  0.00    +0.001 A 
ATOM     26  C   UNL     1       1.386  -1.972   5.687  0.00  0.00    +0.004 A 
ATOM     27  C   UNL     1       0.328  -1.545   4.913  0.00  0.00    +0.047 A 
ATOM     28  C   UNL     1       0.549  -1.148   3.600  0.00  0.00    +0.135 A 
ATOM     29  O   UNL     1      -0.257  -0.689   2.621  0.00  0.00    -0.458 OA
ENDBRANCH  20  21
ENDBRANCH   1  20
TORSDOF 5
