REMARK  Name = ZINC13305833
REMARK  9 active torsions:
REMARK  status: ('A' for Active; 'I' for Inactive)
REMARK    1  A    between atoms: C_4  and  N_7
REMARK    2  A    between atoms: N_8  and  C_9
REMARK    3  A    between atoms: C_12  and  N_15
REMARK    4  A    between atoms: N_15  and  C_16
REMARK    5  A    between atoms: C_16  and  N_18
REMARK    6  A    between atoms: N_18  and  C_19
REMARK    7  A    between atoms: C_19  and  C_21
REMARK    8  A    between atoms: C_19  and  N_25
REMARK    9  A    between atoms: C_26  and  C_28
REMARK                            x       y       z     vdW  Elec       q    Type
REMARK                         _______ _______ _______ _____ _____    ______ ____
ROOT
ATOM      1  C   UNL     1      -1.063  -6.160   0.164  0.00  0.00    +0.136 C 
ATOM      2  S   UNL     1       0.423  -6.973   0.411  0.00  0.00    -0.019 S 
ENDROOT
BRANCH   1   3
ATOM      3  N   UNL     1      -1.088  -4.816   0.065  0.00  0.00    -0.297 N 
ATOM      4  H   UNL     1      -1.935  -4.351  -0.020  0.00  0.00    +0.154 HD
BRANCH   3   8
ATOM      5  C   UNL     1       2.476  -2.658   0.125  0.00  0.00    +0.086 A 
ATOM      6  C   UNL     1       2.412  -3.886  -0.540  0.00  0.00    +0.031 A 
ATOM      7  C   UNL     1       1.232  -4.596  -0.558  0.00  0.00    +0.025 A 
ATOM      8  C   UNL     1       0.106  -4.093   0.085  0.00  0.00    +0.033 A 
ATOM      9  C   UNL     1       0.166  -2.871   0.748  0.00  0.00    +0.025 A 
ATOM     10  C   UNL     1       1.343  -2.158   0.775  0.00  0.00    +0.031 A 
BRANCH   5  12
ATOM     11  N   UNL     1       3.812  -1.007   1.008  0.00  0.00    -0.149 NA
ATOM     12  N   UNL     1       3.643  -1.950   0.144  0.00  0.00    -0.149 NA
BRANCH  11  16
ATOM     13  C   UNL     1       2.060  -1.287   4.745  0.00  0.00    +0.000 A 
ATOM     14  C   UNL     1       2.170  -2.414   3.950  0.00  0.00    +0.002 A 
ATOM     15  C   UNL     1       2.752  -2.328   2.703  0.00  0.00    +0.029 A 
ATOM     16  C   UNL     1       3.232  -1.099   2.243  0.00  0.00    +0.086 A 
ATOM     17  C   UNL     1       3.118   0.035   3.051  0.00  0.00    +0.029 A 
ATOM     18  C   UNL     1       2.533  -0.066   4.296  0.00  0.00    +0.002 A 
ENDBRANCH  11  16
ENDBRANCH   5  12
ENDBRANCH   3   8
ENDBRANCH   1   3
BRANCH   1  19
ATOM     19  N   UNL     1      -2.209  -6.864   0.069  0.00  0.00    -0.305 N 
ATOM     20  H   UNL     1      -3.051  -6.403  -0.071  0.00  0.00    +0.150 HD
BRANCH  19  21
ATOM     21  C   UNL     1      -2.182  -8.325   0.176  0.00  0.00    +0.211 C 
BRANCH  21  22
ATOM     22  C   UNL     1      -3.313  -8.789   1.096  0.00  0.00    +0.225 C 
ATOM     23 CL   UNL     1      -4.897  -8.265   0.413  0.00  0.00    -0.080 Cl
ATOM     24 CL   UNL     1      -3.280 -10.587   1.228  0.00  0.00    -0.080 Cl
ATOM     25 CL   UNL     1      -3.094  -8.062   2.731  0.00  0.00    -0.080 Cl
ENDBRANCH  21  22
BRANCH  21  26
ATOM     26  N   UNL     1      -2.360  -8.915  -1.153  0.00  0.00    -0.287 N 
ATOM     27  C   UNL     1      -1.306  -9.454  -1.797  0.00  0.00    +0.281 C 
ATOM     28  O   UNL     1      -0.207  -9.450  -1.275  0.00  0.00    -0.267 OA
ATOM     29  H   UNL     1      -3.236  -8.918  -1.569  0.00  0.00    +0.151 HD
BRANCH  27  30
ATOM     30  C   UNL     1      -1.484 -10.046  -3.127  0.00  0.00    +0.189 A 
ATOM     31  C   UNL     1      -0.508 -10.627  -3.884  0.00  0.00    +0.054 A 
ATOM     32  C   UNL     1      -1.119 -11.054  -5.074  0.00  0.00    +0.042 A 
ATOM     33  C   UNL     1      -2.426 -10.718  -4.991  0.00  0.00    +0.196 A 
ATOM     34  O   UNL     1      -2.643 -10.116  -3.815  0.00  0.00    -0.458 OA
ENDBRANCH  27  30
ENDBRANCH  21  26
ENDBRANCH  19  21
ENDBRANCH   1  19
TORSDOF 9
