REMARK  Name = ZINC64335676
REMARK  8 active torsions:
REMARK  status: ('A' for Active; 'I' for Inactive)
REMARK    1  A    between atoms: C_1  and  C_2
REMARK    2  A    between atoms: C_3  and  N_22
REMARK    3  A    between atoms: C_4  and  C_8
REMARK    4  A    between atoms: N_10  and  C_11
REMARK    5  A    between atoms: C_11  and  C_12
REMARK    6  A    between atoms: C_11  and  C_19
REMARK    7  A    between atoms: C_19  and  C_20
REMARK    8  A    between atoms: C_19  and  C_21
REMARK                            x       y       z     vdW  Elec       q    Type
REMARK                         _______ _______ _______ _____ _____    ______ ____
ROOT
ATOM      1  C   UNL     1       0.041  -3.366  -1.398  0.00  0.00    +0.267 C 
ATOM      2  O   UNL     1       0.034  -3.304  -2.612  0.00  0.00    -0.268 OA
ATOM      3  N   UNL     1       0.060  -4.566  -0.784  0.00  0.00    -0.303 N 
ATOM      4  H   UNL     1       0.065  -4.615   0.185  0.00  0.00    +0.150 HD
ENDROOT
BRANCH   1   8
ATOM      5  C   UNL     1      -0.018   1.503   0.010  0.00  0.00    +0.067 C 
ATOM      6  C   UNL     1       0.002  -0.004   0.002  0.00  0.00    +0.064 A 
ATOM      7  C   UNL     1       0.008  -0.801  -1.092  0.00  0.00    +0.178 A 
ATOM      8  C   UNL     1       0.028  -2.126  -0.595  0.00  0.00    +0.177 A 
ATOM      9  N   UNL     1       0.033  -2.043   0.720  0.00  0.00    -0.167 NA
ATOM     10  N   UNL     1       0.024  -0.811   1.085  0.00  0.00    -0.279 N 
ATOM     11  H   UNL     1       0.029  -0.504   2.005  0.00  0.00    +0.189 HD
BRANCH   7  12
ATOM     12  N   UNL     1      -0.005  -0.376  -2.510  0.00  0.00    +0.061 N 
ATOM     13  O   UNL     1       1.037  -0.188  -3.094  0.00  0.00    -0.126 OA
ATOM     14  O   UNL     1      -1.057  -0.218  -3.084  0.00  0.00    -0.126 OA
ENDBRANCH   7  12
ENDBRANCH   1   8
BRANCH   3  15
ATOM     15  C   UNL     1       0.072  -5.795  -1.580  0.00  0.00    +0.106 C 
BRANCH  15  16
ATOM     16  C   UNL     1      -0.509  -6.925  -0.769  0.00  0.00    -0.027 A 
ATOM     17  C   UNL     1      -0.212  -7.033   0.577  0.00  0.00    +0.007 A 
ATOM     18  C   UNL     1      -0.745  -8.068   1.321  0.00  0.00    +0.020 A 
ATOM     19  C   UNL     1      -1.576  -8.997   0.719  0.00  0.00    +0.041 A 
ATOM     20  C   UNL     1      -1.872  -8.888  -0.628  0.00  0.00    +0.020 A 
ATOM     21  C   UNL     1      -1.343  -7.849  -1.370  0.00  0.00    +0.007 A 
ATOM     22 CL   UNL     1      -2.245 -10.298   1.653  0.00  0.00    -0.084 Cl
ENDBRANCH  15  16
BRANCH  15  23
ATOM     23  C   UNL     1       1.512  -6.136  -1.970  0.00  0.00    +0.008 C 
ATOM     24  C   UNL     1       2.102  -4.989  -2.793  0.00  0.00    +0.009 C 
ATOM     25  C   UNL     1       2.349  -6.339  -0.705  0.00  0.00    +0.009 C 
ENDBRANCH  15  23
ENDBRANCH   3  15
TORSDOF 5
