REMARK  Name = ZINC24954632
REMARK  10 active torsions:
REMARK  status: ('A' for Active; 'I' for Inactive)
REMARK    1  A    between atoms: C_1  and  C_2
REMARK    2  A    between atoms: C_3  and  C_28
REMARK    3  A    between atoms: C_5  and  N_9
REMARK    4  A    between atoms: C_6  and  C_7
REMARK    5  A    between atoms: C_10  and  C_12
REMARK    6  A    between atoms: C_12  and  N_13
REMARK    7  A    between atoms: N_13  and  C_14
REMARK    8  A    between atoms: N_13  and  C_15
REMARK    9  A    between atoms: C_15  and  C_16
REMARK   10  A    between atoms: C_21  and  N_22
REMARK                            x       y       z     vdW  Elec       q    Type
REMARK                         _______ _______ _______ _____ _____    ______ ____
ROOT
ATOM      1  N   UNL     1      -4.877  -0.517  -0.064  0.00  0.00    +0.386 N 
ATOM      2  C   UNL     1      -5.003  -0.127  -1.474  0.00  0.00    -0.095 C 
ATOM      3  H   UNL     1      -4.816   0.402   0.537  0.00  0.00    -0.081 HD
ENDROOT
BRANCH   1   4
ATOM      4  C   UNL     1      -3.647  -1.287   0.162  0.00  0.00    +0.019 C 
BRANCH   4   6
ATOM      5  N   UNL     1      -1.206  -0.898   0.077  0.00  0.00    -0.257 N 
ATOM      6  C   UNL     1      -2.450  -0.403  -0.073  0.00  0.00    +0.203 C 
ATOM      7  O   UNL     1      -2.606   0.756  -0.396  0.00  0.00    -0.277 OA
ATOM      8  H   UNL     1      -1.064  -1.949   0.370  0.00  0.00    +0.158 HD
BRANCH   5  13
ATOM      9  C   UNL     1       3.501   0.872  -0.369  0.00  0.00    +0.049 C 
ATOM     10  C   UNL     1       2.000   0.742  -0.347  0.00  0.00    +0.010 A 
ATOM     11  C   UNL     1       1.104   1.701  -0.622  0.00  0.00    +0.109 A 
ATOM     12  O   UNL     1      -0.139   1.205  -0.497  0.00  0.00    -0.445 OA
ATOM     13  C   UNL     1      -0.106  -0.086  -0.139  0.00  0.00    +0.210 A 
ATOM     14  C   UNL     1       1.221  -0.463  -0.021  0.00  0.00    +0.115 A 
ATOM     15  C   UNL     1       1.440   3.117  -1.013  0.00  0.00    +0.086 C 
BRANCH  14  16
ATOM     16  C   UNL     1       1.728  -1.752   0.343  0.00  0.00    +0.105 C 
ATOM     17  N   UNL     1       2.131  -2.775   0.631  0.00  0.00    -0.191 NA
ENDBRANCH  14  16
ENDBRANCH   5  13
ENDBRANCH   4   6
ENDBRANCH   1   4
BRANCH   1  18
ATOM     18  C   UNL     1      -6.058  -1.269   0.381  0.00  0.00    -0.041 C 
BRANCH  18  19
ATOM     19  C   UNL     1      -7.233  -0.333   0.503  0.00  0.00    -0.043 A 
ATOM     20  C   UNL     1      -8.219  -0.331  -0.465  0.00  0.00    +0.003 A 
ATOM     21  C   UNL     1      -9.299   0.525  -0.351  0.00  0.00    +0.000 A 
ATOM     22  C   UNL     1      -9.392   1.388   0.725  0.00  0.00    +0.002 A 
ATOM     23  C   UNL     1      -8.408   1.395   1.693  0.00  0.00    +0.023 A 
ATOM     24  C   UNL     1      -7.323   0.533   1.585  0.00  0.00    +0.031 A 
BRANCH  24  25
ATOM     25  N   UNL     1      -6.325   0.537   2.563  0.00  0.00    -0.330 N 
ATOM     26  C   UNL     1      -6.872   0.168   3.875  0.00  0.00    +0.105 C 
ATOM     27  C   UNL     1      -5.731   0.042   4.887  0.00  0.00    +0.019 C 
ATOM     28  C   UNL     1      -4.988   1.377   4.980  0.00  0.00    +0.003 C 
ATOM     29  C   UNL     1      -4.470   1.763   3.592  0.00  0.00    +0.019 C 
ATOM     30  C   UNL     1      -5.648   1.839   2.617  0.00  0.00    +0.105 C 
ENDBRANCH  24  25
ENDBRANCH  18  19
ENDBRANCH   1  18
TORSDOF 7
