REMARK  Name = ZINC36205505
REMARK  9 active torsions:
REMARK  status: ('A' for Active; 'I' for Inactive)
REMARK    1  A    between atoms: C_1  and  C_2
REMARK    2  A    between atoms: C_2  and  C_3
REMARK    3  A    between atoms: C_3  and  C_5
REMARK    4  A    between atoms: C_3  and  O_31
REMARK    5  A    between atoms: C_5  and  N_6
REMARK    6  A    between atoms: N_6  and  C_7
REMARK    7  A    between atoms: N_6  and  C_25
REMARK    8  A    between atoms: C_7  and  C_8
REMARK    9  A    between atoms: C_14  and  C_19
REMARK                            x       y       z     vdW  Elec       q    Type
REMARK                         _______ _______ _______ _____ _____    ______ ____
ROOT
ATOM      1  C   UNL     1       2.717  -4.193   1.297  0.00  0.00    +0.094 A 
ATOM      2  N   UNL     1       3.113  -5.480   1.119  0.00  0.00    -0.312 N 
ATOM      3  H   UNL     1       2.787  -6.165   1.723  0.00  0.00    +0.170 HD
ATOM      4  C   UNL     1       3.947  -5.823   0.120  0.00  0.00    +0.260 A 
ATOM      5  O   UNL     1       4.292  -6.983  -0.027  0.00  0.00    -0.267 OA
ATOM      6  C   UNL     1       4.422  -4.806  -0.768  0.00  0.00    +0.080 A 
ATOM      7  C   UNL     1       5.321  -4.924  -1.910  0.00  0.00    +0.004 A 
ATOM      8  C   UNL     1       5.633  -3.807  -2.611  0.00  0.00    +0.056 A 
ATOM      9  S   UNL     1       4.729  -2.524  -1.768  0.00  0.00    -0.076 S 
ATOM     10  C   UNL     1       3.960  -3.506  -0.506  0.00  0.00    +0.116 A 
ATOM     11  N   UNL     1       3.130  -3.244   0.500  0.00  0.00    -0.229 NA
ENDROOT
BRANCH   7  12
ATOM     12  C   UNL     1       5.882  -6.240  -2.296  0.00  0.00    -0.017 A 
ATOM     13  C   UNL     1       6.485  -7.053  -1.337  0.00  0.00    +0.008 A 
ATOM     14  C   UNL     1       7.005  -8.277  -1.702  0.00  0.00    +0.001 A 
ATOM     15  C   UNL     1       6.930  -8.699  -3.018  0.00  0.00    +0.000 A 
ATOM     16  C   UNL     1       6.333  -7.897  -3.974  0.00  0.00    +0.001 A 
ATOM     17  C   UNL     1       5.804  -6.673  -3.619  0.00  0.00    +0.008 A 
ENDBRANCH   7  12
BRANCH   1  18
ATOM     18  C   UNL     1       1.781  -3.856   2.429  0.00  0.00    -0.003 C 
BRANCH  18  19
ATOM     19  N   UNL     1       1.494  -2.415   2.414  0.00  0.00    +0.388 N 
ATOM     20  H   UNL     1       2.361  -1.899   2.443  0.00  0.00    -0.081 HD
BRANCH  19  21
ATOM     21  C   UNL     1       0.677  -2.067   3.584  0.00  0.00    -0.068 C 
ATOM     22  C   UNL     1       1.489  -2.299   4.860  0.00  0.00    -0.015 C 
ATOM     23  C   UNL     1       0.638  -1.936   6.079  0.00  0.00    -0.002 C 
ATOM     24  C   UNL     1       0.230  -0.464   5.995  0.00  0.00    -0.000 C 
ATOM     25  C   UNL     1      -0.582  -0.232   4.719  0.00  0.00    -0.002 C 
ATOM     26  C   UNL     1       0.269  -0.595   3.501  0.00  0.00    -0.015 C 
ENDBRANCH  19  21
BRANCH  19  27
ATOM     27  C   UNL     1       0.762  -2.075   1.187  0.00  0.00    -0.046 C 
BRANCH  27  28
ATOM     28  C   UNL     1      -0.620  -2.730   1.219  0.00  0.00    +0.098 C 
BRANCH  28  30
ATOM     29  C   UNL     1      -2.879  -2.769   0.151  0.00  0.00    +0.006 C 
ATOM     30  C   UNL     1      -1.458  -2.211   0.048  0.00  0.00    +0.026 C 
ENDBRANCH  28  30
BRANCH  28  31
ATOM     31  O   UNL     1      -0.478  -4.148   1.111  0.00  0.00    -0.394 OA
ATOM     32  H   UNL     1       0.022  -4.435   0.334  0.00  0.00    +0.210 HD
ENDBRANCH  28  31
ENDBRANCH  27  28
ENDBRANCH  19  27
ENDBRANCH  18  19
ENDBRANCH   1  18
TORSDOF 8
