REMARK  Name = ZINC22582090
REMARK  9 active torsions:
REMARK  status: ('A' for Active; 'I' for Inactive)
REMARK    1  A    between atoms: C_1  and  C_2
REMARK    2  A    between atoms: C_5  and  N_8
REMARK    3  A    between atoms: C_9  and  C_25
REMARK    4  A    between atoms: C_12  and  S_13
REMARK    5  A    between atoms: S_13  and  C_14
REMARK    6  A    between atoms: C_14  and  C_16
REMARK    7  A    between atoms: C_14  and  C_19
REMARK    8  A    between atoms: C_16  and  C_17
REMARK    9  A    between atoms: C_16  and  C_18
REMARK                            x       y       z     vdW  Elec       q    Type
REMARK                         _______ _______ _______ _____ _____    ______ ____
ROOT
ATOM      1  N   UNL     1       3.711   1.653  -0.092  0.00  0.00    -0.270 N 
ATOM      2  C   UNL     1       2.466   1.064  -0.119  0.00  0.00    +0.169 A 
ATOM      3  N   UNL     1       2.654  -0.226  -0.278  0.00  0.00    -0.128 NA
ATOM      4  N   UNL     1       3.911  -0.482  -0.347  0.00  0.00    -0.122 NA
ATOM      5  C   UNL     1       4.606   0.628  -0.236  0.00  0.00    +0.197 A 
ENDROOT
BRANCH   1  10
ATOM      6  C   UNL     1       4.881   7.175   0.501  0.00  0.00    +0.044 C 
ATOM      7  C   UNL     1       4.571   5.709   0.343  0.00  0.00    -0.050 A 
ATOM      8  C   UNL     1       4.906   4.820   1.349  0.00  0.00    +0.005 A 
ATOM      9  C   UNL     1       4.622   3.476   1.207  0.00  0.00    +0.026 A 
ATOM     10  C   UNL     1       4.000   3.017   0.054  0.00  0.00    +0.051 A 
ATOM     11  C   UNL     1       3.671   3.910  -0.956  0.00  0.00    +0.026 A 
ATOM     12  C   UNL     1       3.952   5.254  -0.806  0.00  0.00    +0.005 A 
ENDBRANCH   1  10
BRANCH   2  13
ATOM     13  C   UNL     1       1.164   1.754   0.001  0.00  0.00    +0.020 A 
ATOM     14  C   UNL     1       1.104   3.051   0.513  0.00  0.00    +0.013 A 
ATOM     15  C   UNL     1      -0.115   3.688   0.628  0.00  0.00    +0.021 A 
ATOM     16  C   UNL     1      -1.275   3.046   0.227  0.00  0.00    +0.041 A 
ATOM     17  C   UNL     1      -1.221   1.760  -0.282  0.00  0.00    +0.021 A 
ATOM     18  C   UNL     1      -0.009   1.111  -0.397  0.00  0.00    +0.013 A 
ATOM     19 CL   UNL     1      -2.803   3.857   0.368  0.00  0.00    -0.084 Cl
ENDBRANCH   2  13
BRANCH   5  20
ATOM     20  S   UNL     1       6.362   0.771  -0.272  0.00  0.00    -0.073 S 
BRANCH  20  21
ATOM     21  C   UNL     1       6.808  -0.941  -0.655  0.00  0.00    +0.143 C 
BRANCH  21  22
ATOM     22  C   UNL     1       6.359  -1.276  -2.054  0.00  0.00    +0.234 C 
ATOM     23  O   UNL     1       6.220  -0.394  -2.874  0.00  0.00    -0.274 OA
ATOM     24  N   UNL     1       6.112  -2.557  -2.394  0.00  0.00    -0.239 N 
ATOM     25  C   UNL     1       5.710  -2.857  -3.645  0.00  0.00    +0.303 C 
ATOM     26  O   UNL     1       5.571  -1.973  -4.466  0.00  0.00    -0.253 OA
ATOM     27  N   UNL     1       5.463  -4.138  -3.984  0.00  0.00    -0.313 N 
ATOM     28  H   UNL     1       6.238  -3.357  -1.650  0.00  0.00    +0.159 HD
ATOM     29  H   UNL     1       5.135  -4.383  -5.005  0.00  0.00    +0.146 HD
ATOM     30  H   UNL     1       5.589  -4.938  -3.240  0.00  0.00    +0.146 HD
ENDBRANCH  21  22
BRANCH  21  31
ATOM     31  C   UNL     1       8.326  -1.107  -0.553  0.00  0.00    +0.005 C 
ATOM     32  C   UNL     1       9.013  -0.089  -1.466  0.00  0.00    +0.009 C 
ATOM     33  C   UNL     1       8.768  -0.876   0.893  0.00  0.00    +0.009 C 
ENDBRANCH  21  31
ENDBRANCH  20  21
ENDBRANCH   5  20
TORSDOF 6
