REMARK  Name = ZINC00988959
REMARK  7 active torsions:
REMARK  status: ('A' for Active; 'I' for Inactive)
REMARK    1  A    between atoms: C_1  and  O_2
REMARK    2  A    between atoms: O_2  and  C_3
REMARK    3  A    between atoms: C_3  and  C_5
REMARK    4  A    between atoms: C_11  and  C_12
REMARK    5  A    between atoms: C_20  and  N_33
REMARK    6  A    between atoms: C_21  and  C_31
REMARK    7  A    between atoms: C_22  and  C_24
REMARK                            x       y       z     vdW  Elec       q    Type
REMARK                         _______ _______ _______ _____ _____    ______ ____
ROOT
ATOM      1  C   UNL     1       2.052  -0.220   1.353  0.00  0.00    +0.080 C 
ATOM      2  C   UNL     1       0.887  -0.811   0.940  0.00  0.00    +0.100 A 
ATOM      3  N   UNL     1      -0.303  -0.137   0.758  0.00  0.00    -0.257 N 
ATOM      4  C   UNL     1      -1.370  -0.851   0.347  0.00  0.00    +0.271 A 
ATOM      5  O   UNL     1      -2.447  -0.314   0.169  0.00  0.00    -0.266 OA
ATOM      6  C   UNL     1      -1.201  -2.291   0.120  0.00  0.00    +0.080 A 
ATOM      7  C   UNL     1      -2.111  -3.211  -0.290  0.00  0.00    +0.031 C 
ATOM      8  S   UNL     1       0.524  -2.505   0.526  0.00  0.00    -0.065 S 
ATOM      9  C   UNL     1      -0.350   1.240   1.006  0.00  0.00    +0.118 C 
ATOM     10  C   UNL     1       0.711   1.967   1.418  0.00  0.00    +0.079 C 
ATOM     11  C   UNL     1       2.039   1.270   1.631  0.00  0.00    +0.105 C 
ENDROOT
BRANCH   7  12
ATOM     12  C   UNL     1      -1.779  -4.641  -0.250  0.00  0.00    +0.011 A 
ATOM     13  C   UNL     1      -0.708  -5.093   0.530  0.00  0.00    +0.011 A 
ATOM     14  C   UNL     1      -0.403  -6.437   0.562  0.00  0.00    +0.001 A 
ATOM     15  C   UNL     1      -1.151  -7.340  -0.174  0.00  0.00    +0.003 A 
ATOM     16  C   UNL     1      -2.211  -6.904  -0.948  0.00  0.00    +0.039 A 
ATOM     17  C   UNL     1      -2.535  -5.561  -0.989  0.00  0.00    +0.131 A 
ATOM     18  F   UNL     1      -3.574  -5.137  -1.741  0.00  0.00    -0.205 F 
ENDBRANCH   7  12
BRANCH  11  19
ATOM     19  C   UNL     1       3.064   1.925   0.741  0.00  0.00    +0.001 A 
ATOM     20  C   UNL     1       2.955   1.817  -0.633  0.00  0.00    +0.007 A 
ATOM     21  C   UNL     1       3.891   2.423  -1.451  0.00  0.00    +0.000 A 
ATOM     22  C   UNL     1       4.943   3.127  -0.895  0.00  0.00    +0.003 A 
ATOM     23  C   UNL     1       5.057   3.231   0.478  0.00  0.00    +0.038 A 
ATOM     24  C   UNL     1       4.117   2.630   1.298  0.00  0.00    +0.127 A 
ATOM     25  F   UNL     1       4.227   2.731   2.640  0.00  0.00    -0.205 F 
ENDBRANCH  11  19
BRANCH   9  26
ATOM     26  N   UNL     1      -1.544   1.891   0.813  0.00  0.00    -0.343 N 
ATOM     27  H   UNL     1      -1.617   2.973   0.998  0.00  0.00    +0.144 HD
ATOM     28  H   UNL     1      -2.427   1.331   0.473  0.00  0.00    +0.144 HD
ENDBRANCH   9  26
BRANCH   1  29
ATOM     29  C   UNL     1       3.223  -0.973   1.516  0.00  0.00    +0.338 C 
ATOM     30  O   UNL     1       3.214  -2.170   1.288  0.00  0.00    -0.245 OA
BRANCH  29  32
ATOM     31  C   UNL     1       5.517  -1.199   2.068  0.00  0.00    +0.280 C 
ATOM     32  O   UNL     1       4.362  -0.371   1.924  0.00  0.00    -0.465 OA
ENDBRANCH  29  32
ENDBRANCH   1  29
BRANCH  10  33
ATOM     33  C   UNL     1       0.582   3.374   1.651  0.00  0.00    +0.099 C 
ATOM     34  N   UNL     1       0.480   4.491   1.835  0.00  0.00    -0.191 NA
ENDBRANCH  10  33
TORSDOF 6
