REMARK  Name = ZINC40684000
REMARK  10 active torsions:
REMARK  status: ('A' for Active; 'I' for Inactive)
REMARK    1  A    between atoms: C_1  and  O_2
REMARK    2  A    between atoms: O_2  and  C_3
REMARK    3  A    between atoms: C_6  and  C_11
REMARK    4  A    between atoms: C_8  and  O_9
REMARK    5  A    between atoms: O_9  and  C_10
REMARK    6  A    between atoms: C_11  and  C_12
REMARK    7  A    between atoms: C_12  and  N_13
REMARK    8  A    between atoms: C_15  and  N_33
REMARK    9  A    between atoms: C_16  and  N_20
REMARK   10  A    between atoms: N_23  and  C_26
REMARK                            x       y       z     vdW  Elec       q    Type
REMARK                         _______ _______ _______ _____ _____    ______ ____
ROOT
ATOM      1  N   UNL     1       4.666  -3.270  -5.268  0.00  0.00    -0.327 N 
ATOM      2  C   UNL     1       6.009  -3.619  -5.188  0.00  0.00    +0.145 A 
ATOM      3  C   UNL     1       6.642  -4.252  -6.259  0.00  0.00    +0.105 A 
ATOM      4  C   UNL     1       7.992  -4.581  -6.127  0.00  0.00    +0.147 A 
ATOM      5  N   UNL     1       8.620  -4.281  -4.992  0.00  0.00    -0.219 NA
ATOM      6  C   UNL     1       7.985  -3.683  -4.004  0.00  0.00    +0.225 A 
ATOM      7  N   UNL     1       6.713  -3.351  -4.091  0.00  0.00    -0.219 NA
ATOM      8  H   UNL     1       4.160  -3.469  -6.071  0.00  0.00    +0.148 HD
ENDROOT
BRANCH   4   9
ATOM      9  N   UNL     1       8.669  -5.212  -7.163  0.00  0.00    -0.311 N 
ATOM     10  C   UNL     1       9.424  -4.428  -8.150  0.00  0.00    +0.125 C 
ATOM     11  C   UNL     1      10.869  -4.941  -8.183  0.00  0.00    +0.124 C 
ATOM     12  N   UNL     1      10.844  -6.405  -8.311  0.00  0.00    -0.325 N 
ATOM     13  C   UNL     1      10.090  -7.189  -7.324  0.00  0.00    +0.124 C 
ATOM     14  C   UNL     1       8.649  -6.676  -7.287  0.00  0.00    +0.125 C 
BRANCH  12  15
ATOM     15  C   UNL     1      11.526  -7.040  -9.354  0.00  0.00    +0.065 A 
ATOM     16  C   UNL     1      12.845  -7.438  -9.182  0.00  0.00    +0.026 A 
ATOM     17  C   UNL     1      13.516  -8.066 -10.213  0.00  0.00    +0.002 A 
ATOM     18  C   UNL     1      12.877  -8.298 -11.417  0.00  0.00    +0.003 A 
ATOM     19  C   UNL     1      11.563  -7.903 -11.593  0.00  0.00    +0.040 A 
ATOM     20  C   UNL     1      10.883  -7.280 -10.563  0.00  0.00    +0.144 A 
ATOM     21  F   UNL     1       9.598  -6.899 -10.733  0.00  0.00    -0.204 F 
ENDBRANCH  12  15
ENDBRANCH   4   9
BRANCH   3  22
ATOM     22  N   UNL     1       5.939  -4.550  -7.438  0.00  0.00    -0.353 N 
ATOM     23  H   UNL     1       4.982  -4.399  -7.484  0.00  0.00    +0.143 HD
ATOM     24  H   UNL     1       6.411  -4.907  -8.207  0.00  0.00    +0.143 HD
ENDBRANCH   3  22
BRANCH   1  25
ATOM     25  C   UNL     1       4.015  -2.601  -4.139  0.00  0.00    +0.107 C 
BRANCH  25  26
ATOM     26  C   UNL     1       2.549  -2.330  -4.484  0.00  0.00    +0.054 C 
BRANCH  26  30
ATOM     27  C   UNL     1       0.649  -0.371  -1.191  0.00  0.00    +0.161 A 
ATOM     28  C   UNL     1       1.263   0.375  -2.184  0.00  0.00    +0.049 A 
ATOM     29  C   UNL     1       1.877  -0.261  -3.247  0.00  0.00    +0.007 A 
ATOM     30  C   UNL     1       1.879  -1.641  -3.322  0.00  0.00    -0.042 A 
ATOM     31  C   UNL     1       1.268  -2.392  -2.335  0.00  0.00    +0.053 A 
ATOM     32  C   UNL     1       0.656  -1.760  -1.264  0.00  0.00    +0.162 A 
BRANCH  27  34
ATOM     33  C   UNL     1       0.077   1.682  -0.135  0.00  0.00    +0.277 C 
ATOM     34  O   UNL     1       0.045   0.254  -0.144  0.00  0.00    -0.491 OA
ENDBRANCH  27  34
BRANCH  32  35
ATOM     35  O   UNL     1       0.060  -2.497  -0.289  0.00  0.00    -0.491 OA
ATOM     36  C   UNL     1       0.106  -3.918  -0.429  0.00  0.00    +0.277 C 
ENDBRANCH  32  35
ENDBRANCH  26  30
ENDBRANCH  25  26
ENDBRANCH   1  25
TORSDOF 8
