REMARK  Name = ZINC01244454
REMARK  2 active torsions:
REMARK  status: ('A' for Active; 'I' for Inactive)
REMARK    1  A    between atoms: C_7  and  O_27
REMARK    2  A    between atoms: C_12  and  N_21
REMARK                            x       y       z     vdW  Elec       q    Type
REMARK                         _______ _______ _______ _____ _____    ______ ____
ROOT
ATOM      1  C   UNL     1       0.006   1.410   0.008  0.00  0.00    +0.001 A 
ATOM      2  C   UNL     1       1.198   2.133   0.000  0.00  0.00    +0.001 A 
ATOM      3  C   UNL     1       2.402   1.498  -0.015  0.00  0.00    +0.012 A 
ATOM      4  C   UNL     1       2.447   0.094  -0.024  0.00  0.00    +0.027 A 
ATOM      5  C   UNL     1       1.237  -0.641  -0.015  0.00  0.00    +0.027 A 
ATOM      6  C   UNL     1       0.013   0.049   0.002  0.00  0.00    +0.012 A 
ATOM      7  C   UNL     1       1.278  -2.050  -0.022  0.00  0.00    +0.125 A 
ATOM      8  C   UNL     1       2.489  -2.685  -0.042  0.00  0.00    +0.053 A 
ATOM      9  C   UNL     1       3.673  -1.962  -0.054  0.00  0.00    +0.004 A 
ATOM     10  C   UNL     1       3.682  -0.593  -0.045  0.00  0.00    +0.131 A 
ATOM     11  O   UNL     1       4.958  -0.100  -0.063  0.00  0.00    -0.492 OA
ATOM     12  C   UNL     1       5.802  -1.125  -0.591  0.00  0.00    +0.166 C 
ATOM     13  C   UNL     1       5.134  -2.413  -0.074  0.00  0.00    +0.058 C 
ATOM     14  C   UNL     1       5.535  -2.642   1.386  0.00  0.00    +0.012 C 
ATOM     15  C   UNL     1       6.742  -3.583   1.476  0.00  0.00    +0.019 C 
ATOM     16  C   UNL     1       7.589  -3.402   0.213  0.00  0.00    +0.104 C 
ATOM     17  N   UNL     1       8.012  -2.013   0.114  0.00  0.00    -0.314 N 
ATOM     18  C   UNL     1       7.228  -1.000  -0.207  0.00  0.00    +0.240 C 
ATOM     19  O   UNL     1       7.710   0.113  -0.186  0.00  0.00    -0.274 OA
ATOM     20  H   UNL     1       8.943  -1.815   0.299  0.00  0.00    +0.149 HD
ENDROOT
BRANCH  12  21
ATOM     21  N   UNL     1       5.700  -1.118  -2.057  0.00  0.00    +0.412 N 
ATOM     22  C   UNL     1       6.566  -2.165  -2.611  0.00  0.00    -0.072 C 
ATOM     23  C   UNL     1       6.401  -2.216  -4.132  0.00  0.00    -0.018 C 
ATOM     24  C   UNL     1       6.792  -0.860  -4.727  0.00  0.00    -0.004 C 
ATOM     25  C   UNL     1       5.933   0.234  -4.087  0.00  0.00    -0.018 C 
ATOM     26  C   UNL     1       6.114   0.194  -2.568  0.00  0.00    -0.072 C 
ATOM     27  H   UNL     1       4.744  -1.296  -2.327  0.00  0.00    -0.075 HD
ENDBRANCH  12  21
BRANCH   7  28
ATOM     28  O   UNL     1       0.126  -2.770  -0.010  0.00  0.00    -0.506 OA
ATOM     29  H   UNL     1      -0.220  -2.974  -0.890  0.00  0.00    +0.292 HD
ENDBRANCH   7  28
TORSDOF 2
