REMARK  Name = ZINC18123075
REMARK  11 active torsions:
REMARK  status: ('A' for Active; 'I' for Inactive)
REMARK    1  A    between atoms: C_1  and  C_2
REMARK    2  A    between atoms: C_2  and  C_3
REMARK    3  A    between atoms: C_3  and  C_4
REMARK    4  A    between atoms: C_4  and  C_5
REMARK    5  A    between atoms: C_5  and  C_6
REMARK    6  A    between atoms: C_6  and  O_7
REMARK    7  A    between atoms: O_7  and  C_8
REMARK    8  A    between atoms: C_11  and  N_14
REMARK    9  A    between atoms: C_18  and  N_22
REMARK   10  A    between atoms: C_25  and  C_28
REMARK   11  A    between atoms: C_25  and  N_31
REMARK                            x       y       z     vdW  Elec       q    Type
REMARK                         _______ _______ _______ _____ _____    ______ ____
ROOT
ATOM      1  N   UNL     1       2.593 -11.271  -3.324  0.00  0.00    -0.209 N 
ATOM      2  C   UNL     1       2.012 -12.287  -2.674  0.00  0.00    +0.228 C 
ATOM      3  O   UNL     1       1.441 -12.203  -1.607  0.00  0.00    -0.275 OA
ATOM      4  C   UNL     1       2.179 -13.556  -3.481  0.00  0.00    +0.125 C 
ATOM      5  C   UNL     1       2.965 -13.092  -4.724  0.00  0.00    +0.153 C 
ATOM      6  C   UNL     1       3.155 -11.609  -4.491  0.00  0.00    +0.244 C 
ATOM      7  O   UNL     1       3.728 -10.849  -5.241  0.00  0.00    -0.273 OA
ENDROOT
BRANCH   1  11
ATOM      8  C   UNL     1       2.632  -7.370  -1.845  0.00  0.00    +0.121 A 
ATOM      9  C   UNL     1       1.997  -7.650  -3.046  0.00  0.00    +0.047 A 
ATOM     10  C   UNL     1       1.984  -8.941  -3.536  0.00  0.00    +0.027 A 
ATOM     11  C   UNL     1       2.606  -9.959  -2.827  0.00  0.00    +0.044 A 
ATOM     12  C   UNL     1       3.241  -9.678  -1.625  0.00  0.00    +0.027 A 
ATOM     13  C   UNL     1       3.258  -8.386  -1.138  0.00  0.00    +0.047 A 
BRANCH   8  14
ATOM     14  O   UNL     1       2.645  -6.099  -1.363  0.00  0.00    -0.492 OA
BRANCH  14  15
ATOM     15  C   UNL     1       1.980  -5.103  -2.143  0.00  0.00    +0.229 C 
BRANCH  15  16
ATOM     16  C   UNL     1       2.100  -3.746  -1.446  0.00  0.00    +0.041 C 
BRANCH  16  17
ATOM     17  C   UNL     1       1.388  -2.680  -2.281  0.00  0.00    +0.003 C 
BRANCH  17  18
ATOM     18  C   UNL     1       1.508  -1.323  -1.584  0.00  0.00    -0.000 C 
BRANCH  18  20
ATOM     19  C   UNL     1       0.916   1.101  -1.722  0.00  0.00    +0.004 C 
ATOM     20  C   UNL     1       0.796  -0.256  -2.419  0.00  0.00    -0.003 C 
ENDBRANCH  18  20
ENDBRANCH  17  18
ENDBRANCH  16  17
ENDBRANCH  15  16
ENDBRANCH  14  15
ENDBRANCH   8  14
ENDBRANCH   1  11
BRANCH   5  21
ATOM     21  N   UNL     1       2.185 -13.327  -5.947  0.00  0.00    -0.291 NA
ATOM     22  C   UNL     1       1.790 -14.737  -6.057  0.00  0.00    +0.084 C 
ATOM     23  C   UNL     1       0.861 -14.915  -7.259  0.00  0.00    +0.013 C 
ATOM     24  C   UNL     1       1.588 -14.469  -8.531  0.00  0.00    +0.015 C 
ATOM     25  C   UNL     1       2.031 -13.012  -8.371  0.00  0.00    +0.013 C 
ATOM     26  C   UNL     1       2.927 -12.889  -7.136  0.00  0.00    +0.084 C 
BRANCH  24  27
ATOM     27  N   UNL     1       0.681 -14.582  -9.681  0.00  0.00    +0.389 N 
ATOM     28  C   UNL     1       0.222 -15.971  -9.804  0.00  0.00    -0.077 C 
ATOM     29  C   UNL     1      -0.786 -16.079 -10.950  0.00  0.00    -0.019 C 
ATOM     30  C   UNL     1      -0.114 -15.645 -12.256  0.00  0.00    -0.004 C 
ATOM     31  C   UNL     1       0.427 -14.222 -12.091  0.00  0.00    -0.019 C 
ATOM     32  C   UNL     1       1.390 -14.183 -10.902  0.00  0.00    -0.077 C 
ATOM     33  H   UNL     1      -0.114 -13.978  -9.541  0.00  0.00    -0.080 HD
ENDBRANCH  24  27
BRANCH  24  34
ATOM     34  C   UNL     1       2.797 -15.341  -8.752  0.00  0.00    +0.200 C 
ATOM     35  O   UNL     1       2.902 -16.393  -8.159  0.00  0.00    -0.278 OA
ATOM     36  N   UNL     1       3.761 -14.952  -9.610  0.00  0.00    -0.330 N 
ATOM     37  H   UNL     1       3.645 -14.146 -10.137  0.00  0.00    +0.145 HD
ATOM     38  H   UNL     1       4.570 -15.478  -9.701  0.00  0.00    +0.145 HD
ENDBRANCH  24  34
ENDBRANCH   5  21
TORSDOF 10
