REMARK  Name = ZINC02832013
REMARK  7 active torsions:
REMARK  status: ('A' for Active; 'I' for Inactive)
REMARK    1  A    between atoms: C_4  and  C_7
REMARK    2  A    between atoms: C_7  and  O_9
REMARK    3  A    between atoms: O_9  and  C_10
REMARK    4  A    between atoms: C_13  and  C_16
REMARK    5  A    between atoms: N_17  and  N_18
REMARK    6  A    between atoms: C_19  and  C_21
REMARK    7  A    between atoms: C_30  and  O_31
REMARK                            x       y       z     vdW  Elec       q    Type
REMARK                         _______ _______ _______ _____ _____    ______ ____
ROOT
ATOM      1  C   UNL     1      -4.988   5.438   0.108  0.00  0.00    +0.138 C 
ATOM      2  N   UNL     1      -4.940   4.144   0.018  0.00  0.00    -0.187 NA
ENDROOT
BRANCH   1   6
ATOM      3  C   UNL     1      -8.738   7.428   0.134  0.00  0.00    +0.132 A 
ATOM      4  C   UNL     1      -7.563   8.164   0.222  0.00  0.00    +0.047 A 
ATOM      5  C   UNL     1      -6.343   7.522   0.214  0.00  0.00    +0.013 A 
ATOM      6  C   UNL     1      -6.290   6.129   0.117  0.00  0.00    -0.005 A 
ATOM      7  C   UNL     1      -7.474   5.393   0.023  0.00  0.00    +0.013 A 
ATOM      8  C   UNL     1      -8.689   6.043   0.037  0.00  0.00    +0.047 A 
BRANCH   3   9
ATOM      9  O   UNL     1      -9.938   8.065   0.142  0.00  0.00    -0.422 OA
BRANCH   9  10
ATOM     10  C   UNL     1     -10.243   8.808  -0.939  0.00  0.00    +0.344 C 
ATOM     11  O   UNL     1      -9.509   8.803  -1.907  0.00  0.00    -0.245 OA
BRANCH  10  15
ATOM     12  C   UNL     1     -13.772  11.171  -0.963  0.00  0.00    +0.000 A 
ATOM     13  C   UNL     1     -12.938  11.167  -2.067  0.00  0.00    +0.001 A 
ATOM     14  C   UNL     1     -11.790  10.402  -2.066  0.00  0.00    +0.015 A 
ATOM     15  C   UNL     1     -11.471   9.630  -0.947  0.00  0.00    +0.059 A 
ATOM     16  C   UNL     1     -12.320   9.634   0.161  0.00  0.00    +0.015 A 
ATOM     17  C   UNL     1     -13.461  10.409   0.149  0.00  0.00    +0.001 A 
ENDBRANCH  10  15
ENDBRANCH   9  10
ENDBRANCH   3   9
ENDBRANCH   1   6
BRANCH   2  18
ATOM     18  N   UNL     1      -3.703   3.487   0.009  0.00  0.00    -0.203 N 
ATOM     19  C   UNL     1      -3.653   2.144  -0.084  0.00  0.00    +0.267 C 
ATOM     20  O   UNL     1      -4.683   1.501  -0.160  0.00  0.00    -0.268 OA
ATOM     21  H   UNL     1      -2.881   4.000   0.071  0.00  0.00    +0.178 HD
BRANCH  19  22
ATOM     22  C   UNL     1      -2.350   1.452  -0.093  0.00  0.00    +0.080 A 
ATOM     23  C   UNL     1      -1.179   2.188   0.001  0.00  0.00    +0.025 A 
ATOM     24  C   UNL     1       0.056   1.526  -0.014  0.00  0.00    -0.017 A 
ATOM     25  C   UNL     1       1.264   2.242   0.075  0.00  0.00    +0.008 A 
ATOM     26  C   UNL     1       2.447   1.570   0.064  0.00  0.00    +0.001 A 
ATOM     27  C   UNL     1       2.482   0.180  -0.034  0.00  0.00    +0.001 A 
ATOM     28  C   UNL     1       1.335  -0.546  -0.121  0.00  0.00    +0.008 A 
ATOM     29  C   UNL     1       0.092   0.111  -0.113  0.00  0.00    -0.014 A 
ATOM     30  C   UNL     1      -1.109  -0.613  -0.201  0.00  0.00    +0.054 A 
ATOM     31  C   UNL     1      -2.304   0.045  -0.191  0.00  0.00    +0.130 A 
BRANCH  31  32
ATOM     32  O   UNL     1      -3.460  -0.660  -0.276  0.00  0.00    -0.506 OA
ATOM     33  H   UNL     1      -3.822  -0.927   0.580  0.00  0.00    +0.292 HD
ENDBRANCH  31  32
ENDBRANCH  19  22
ENDBRANCH   2  18
TORSDOF 7
