REMARK  Name = ZINC08695758
REMARK  11 active torsions:
REMARK  status: ('A' for Active; 'I' for Inactive)
REMARK    1  A    between atoms: C_1  and  N_2
REMARK    2  A    between atoms: N_2  and  C_3
REMARK    3  A    between atoms: N_2  and  C_4
REMARK    4  A    between atoms: C_7  and  N_10
REMARK    5  A    between atoms: C_11  and  C_13
REMARK    6  A    between atoms: C_13  and  C_15
REMARK    7  A    between atoms: C_13  and  N_22
REMARK    8  A    between atoms: N_22  and  C_23
REMARK    9  A    between atoms: C_23  and  C_24
REMARK   10  A    between atoms: C_31  and  C_33
REMARK   11  A    between atoms: C_33  and  N_34
REMARK                            x       y       z     vdW  Elec       q    Type
REMARK                         _______ _______ _______ _____ _____    ______ ____
ROOT
ATOM      1  N   UNL     1       1.611  -2.602  -1.875  0.00  0.00    -0.284 N 
ATOM      2  C   UNL     1       2.617  -3.075  -2.637  0.00  0.00    +0.234 C 
ATOM      3  O   UNL     1       2.375  -3.608  -3.699  0.00  0.00    -0.274 OA
ENDROOT
BRANCH   1   4
ATOM      4  C   UNL     1       0.220  -2.833  -2.274  0.00  0.00    +0.166 C 
BRANCH   4   5
ATOM      5  C   UNL     1      -0.454  -3.758  -1.258  0.00  0.00    +0.023 C 
ATOM      6  C   UNL     1       0.340  -5.065  -1.144  0.00  0.00    +0.010 C 
ATOM      7  C   UNL     1      -0.250  -5.892  -0.000  0.00  0.00    +0.027 C 
ATOM      8  C   UNL     1      -1.741  -5.983  -0.143  0.00  0.00    -0.031 C 
ATOM      9  C   UNL     1      -2.447  -5.197  -0.892  0.00  0.00    -0.031 C 
ATOM     10  C   UNL     1      -1.871  -4.093  -1.729  0.00  0.00    +0.032 C 
ENDBRANCH   4   5
BRANCH   4  12
ATOM     11  N   UNL     1      -1.774  -1.466  -2.796  0.00  0.00    -0.284 N 
ATOM     12  C   UNL     1      -0.514  -1.518  -2.320  0.00  0.00    +0.238 C 
ATOM     13  O   UNL     1       0.029  -0.506  -1.929  0.00  0.00    -0.273 OA
ATOM     14  H   UNL     1      -2.238  -2.285  -3.031  0.00  0.00    +0.155 HD
BRANCH  11  18
ATOM     15  C   UNL     1      -3.678   2.216  -3.259  0.00  0.00    +0.029 A 
ATOM     16  C   UNL     1      -3.975   1.168  -4.120  0.00  0.00    +0.025 A 
ATOM     17  C   UNL     1      -3.345  -0.051  -3.967  0.00  0.00    +0.025 A 
ATOM     18  C   UNL     1      -2.414  -0.229  -2.951  0.00  0.00    +0.034 A 
ATOM     19  C   UNL     1      -2.122   0.818  -2.087  0.00  0.00    +0.025 A 
ATOM     20  C   UNL     1      -2.748   2.038  -2.243  0.00  0.00    +0.025 A 
BRANCH  15  22
ATOM     21  C   UNL     1      -5.386   3.603  -4.404  0.00  0.00    +0.129 C 
ATOM     22  N   UNL     1      -4.316   3.451  -3.415  0.00  0.00    -0.336 N 
ATOM     23  C   UNL     1      -3.914   4.593  -2.589  0.00  0.00    +0.129 C 
ENDBRANCH  15  22
ENDBRANCH  11  18
ENDBRANCH   4  12
ENDBRANCH   1   4
BRANCH   1  24
ATOM     24  C   UNL     1       1.908  -1.857  -0.649  0.00  0.00    +0.143 C 
BRANCH  24  25
ATOM     25  C   UNL     1       2.067  -2.821   0.498  0.00  0.00    -0.030 A 
ATOM     26  C   UNL     1       3.297  -3.398   0.750  0.00  0.00    +0.008 A 
ATOM     27  C   UNL     1       3.444  -4.283   1.801  0.00  0.00    +0.038 A 
ATOM     28  C   UNL     1       2.358  -4.592   2.603  0.00  0.00    +0.123 A 
ATOM     29  C   UNL     1       1.126  -4.013   2.349  0.00  0.00    +0.038 A 
ATOM     30  C   UNL     1       0.981  -3.129   1.297  0.00  0.00    +0.008 A 
ATOM     31  F   UNL     1       2.500  -5.457   3.630  0.00  0.00    -0.205 F 
ENDBRANCH  24  25
ENDBRANCH   1  24
BRANCH   2  32
ATOM     32  C   UNL     1       4.043  -2.940  -2.170  0.00  0.00    +0.210 C 
BRANCH  32  33
ATOM     33  N   UNL     1       4.950  -3.357  -3.242  0.00  0.00    -0.255 N 
ATOM     34  C   UNL     1       5.412  -4.659  -3.417  0.00  0.00    +0.048 A 
ATOM     35  C   UNL     1       5.161  -5.826  -2.707  0.00  0.00    +0.024 A 
ATOM     36  C   UNL     1       5.748  -7.016  -3.095  0.00  0.00    +0.002 A 
ATOM     37  C   UNL     1       6.585  -7.065  -4.197  0.00  0.00    +0.001 A 
ATOM     38  C   UNL     1       6.844  -5.919  -4.921  0.00  0.00    +0.014 A 
ATOM     39  C   UNL     1       6.258  -4.713  -4.538  0.00  0.00    +0.048 A 
ATOM     40  C   UNL     1       6.325  -3.344  -5.081  0.00  0.00    +0.250 C 
ATOM     41  O   UNL     1       6.953  -2.960  -6.045  0.00  0.00    -0.282 OA
ATOM     42  C   UNL     1       5.446  -2.529  -4.178  0.00  0.00    +0.292 C 
ATOM     43  O   UNL     1       5.225  -1.341  -4.274  0.00  0.00    -0.266 OA
ENDBRANCH  32  33
ENDBRANCH   2  32
TORSDOF 9
