REMARK  Name = ZINC17170251
REMARK  3 active torsions:
REMARK  status: ('A' for Active; 'I' for Inactive)
REMARK    1  A    between atoms: C_5  and  S_6
REMARK    2  A    between atoms: S_6  and  N_9
REMARK    3  A    between atoms: C_14  and  C_16
REMARK                            x       y       z     vdW  Elec       q    Type
REMARK                         _______ _______ _______ _____ _____    ______ ____
ROOT
ATOM      1  N   UNL     1      -1.769  -1.624  -1.544  0.00  0.00    -0.164 NA
ATOM      2  C   UNL     1      -2.698  -0.843  -2.372  0.00  0.00    +0.110 C 
ATOM      3  C   UNL     1      -3.660  -1.797  -3.076  0.00  0.00    +0.017 C 
ATOM      4  C   UNL     1      -2.860  -2.847  -3.849  0.00  0.00    +0.003 C 
ATOM      5  C   UNL     1      -2.002  -3.657  -2.874  0.00  0.00    +0.030 C 
ATOM      6  C   UNL     1      -1.016  -2.720  -2.169  0.00  0.00    +0.166 C 
ENDROOT
BRANCH   6   7
ATOM      7  C   UNL     1      -0.259  -3.481  -1.111  0.00  0.00    +0.238 C 
ATOM      8  O   UNL     1      -0.858  -4.005  -0.196  0.00  0.00    -0.274 OA
ATOM      9  N   UNL     1       1.083  -3.580  -1.183  0.00  0.00    -0.263 N 
ATOM     10  C   UNL     1       1.780  -4.283  -0.207  0.00  0.00    +0.165 A 
ATOM     11  N   UNL     1       3.077  -4.489  -0.103  0.00  0.00    -0.229 NA
ATOM     12  C   UNL     1       3.606  -5.189   0.897  0.00  0.00    +0.054 A 
ATOM     13  C   UNL     1       2.728  -5.681   1.810  0.00  0.00    +0.014 A 
ATOM     14  S   UNL     1       1.167  -5.108   1.195  0.00  0.00    -0.057 S 
ATOM     15  C   UNL     1       3.027  -6.494   3.023  0.00  0.00    +0.044 C 
ATOM     16  C   UNL     1       4.469  -7.016   2.908  0.00  0.00    +0.006 C 
ATOM     17  C   UNL     1       5.381  -5.855   2.501  0.00  0.00    +0.006 C 
ATOM     18  C   UNL     1       5.100  -5.448   1.053  0.00  0.00    +0.056 C 
ATOM     19  H   UNL     1       1.562  -3.162  -1.915  0.00  0.00    +0.157 HD
ENDBRANCH   6   7
BRANCH   1  20
ATOM     20  S   UNL     1      -1.581  -1.282   0.065  0.00  0.00    +0.068 S 
ATOM     21  O   UNL     1      -1.917   0.089   0.231  0.00  0.00    -0.152 OA
ATOM     22  O   UNL     1      -0.317  -1.807   0.447  0.00  0.00    -0.152 OA
BRANCH  20  27
ATOM     23  C   UNL     1      -2.665  -3.392   1.588  0.00  0.00    +0.038 A 
ATOM     24  C   UNL     1      -3.769  -3.940   2.214  0.00  0.00    +0.030 A 
ATOM     25  C   UNL     1      -4.951  -3.276   2.163  0.00  0.00    +0.080 A 
ATOM     26  S   UNL     1      -4.521  -1.831   1.208  0.00  0.00    -0.057 S 
ATOM     27  C   UNL     1      -2.797  -2.208   0.941  0.00  0.00    +0.144 A 
ATOM     28 CL   UNL     1      -6.484  -3.718   2.848  0.00  0.00    -0.076 Cl
ENDBRANCH  20  27
ENDBRANCH   1  20
TORSDOF 3
