REMARK  Name = ZINC24142297
REMARK  3 active torsions:
REMARK  status: ('A' for Active; 'I' for Inactive)
REMARK    1  A    between atoms: C_1  and  C_2
REMARK    2  A    between atoms: C_7  and  C_8
REMARK    3  A    between atoms: C_13  and  C_16
REMARK                            x       y       z     vdW  Elec       q    Type
REMARK                         _______ _______ _______ _____ _____    ______ ____
ROOT
ATOM      1  C   UNL     1       0.152  -0.760   2.256  0.00  0.00    +0.263 C 
ATOM      2  O   UNL     1       0.141   0.453   2.353  0.00  0.00    -0.268 OA
ATOM      3  N   UNL     1       0.033  -1.526   3.358  0.00  0.00    -0.296 N 
ATOM      4  C   UNL     1       0.159  -2.987   3.272  0.00  0.00    +0.109 C 
ATOM      5  C   UNL     1      -1.081  -3.627   3.906  0.00  0.00    +0.032 C 
ATOM      6  C   UNL     1      -1.253  -3.093   5.330  0.00  0.00    +0.078 C 
ATOM      7  C   UNL     1      -1.460  -1.578   5.288  0.00  0.00    +0.032 C 
ATOM      8  C   UNL     1      -0.220  -0.914   4.670  0.00  0.00    +0.109 C 
ENDROOT
BRANCH   1  15
ATOM      9  C   UNL     1       2.764  -2.074   1.149  0.00  0.00    +0.047 C 
ATOM     10  C   UNL     1       1.435  -1.966   0.447  0.00  0.00    -0.010 A 
ATOM     11  C   UNL     1       1.124  -2.442  -0.833  0.00  0.00    +0.042 A 
ATOM     12  C   UNL     1      -0.211  -2.129  -1.089  0.00  0.00    +0.027 A 
ATOM     13  N   UNL     1      -0.695  -1.496  -0.020  0.00  0.00    -0.354 N 
ATOM     14  H   UNL     1      -1.603  -1.167   0.074  0.00  0.00    +0.166 HD
ATOM     15  C   UNL     1       0.296  -1.390   0.937  0.00  0.00    +0.106 A 
ATOM     16  C   UNL     1      -0.901  -2.482  -2.381  0.00  0.00    +0.054 C 
ATOM     17  C   UNL     1       0.153  -2.727  -3.466  0.00  0.00    +0.014 C 
ATOM     18  C   UNL     1       1.190  -3.750  -2.992  0.00  0.00    +0.080 C 
ATOM     19  C   UNL     1       1.952  -3.154  -1.818  0.00  0.00    +0.165 C 
ATOM     20  O   UNL     1       3.156  -3.258  -1.704  0.00  0.00    -0.292 OA
ENDBRANCH   1  15
BRANCH   6  21
ATOM     21  C   UNL     1      -2.452  -3.746   5.969  0.00  0.00    +0.219 C 
ATOM     22  O   UNL     1      -3.165  -4.477   5.314  0.00  0.00    -0.275 OA
ATOM     23  N   UNL     1      -2.731  -3.519   7.268  0.00  0.00    -0.301 N 
ATOM     24  C   UNL     1      -3.930  -4.097   7.831  0.00  0.00    +0.108 C 
ATOM     25  C   UNL     1      -5.116  -3.118   7.646  0.00  0.00    +0.019 C 
ATOM     26  C   UNL     1      -4.962  -1.956   8.536  0.00  0.00    +0.002 C 
ATOM     27  C   UNL     1      -3.725  -1.109   8.255  0.00  0.00    +0.002 C 
ATOM     28  C   UNL     1      -2.539  -1.701   8.977  0.00  0.00    +0.019 C 
ATOM     29  C   UNL     1      -1.796  -2.694   8.059  0.00  0.00    +0.108 C 
ENDBRANCH   6  21
TORSDOF 2
