REMARK  Name = ZINC40014634
REMARK  16 active torsions:
REMARK  status: ('A' for Active; 'I' for Inactive)
REMARK    1  A    between atoms: C_1  and  C_2
REMARK    2  A    between atoms: C_2  and  C_3
REMARK    3  A    between atoms: C_3  and  C_4
REMARK    4  A    between atoms: C_4  and  N_5
REMARK    5  A    between atoms: N_5  and  C_6
REMARK    6  A    between atoms: N_5  and  C_10
REMARK    7  A    between atoms: C_6  and  C_7
REMARK    8  A    between atoms: C_7  and  C_8
REMARK    9  A    between atoms: C_8  and  C_9
REMARK   10  A    between atoms: C_10  and  C_11
REMARK   11  A    between atoms: C_11  and  C_12
REMARK   12  A    between atoms: C_12  and  N_13
REMARK   13  A    between atoms: C_14  and  C_30
REMARK   14  A    between atoms: C_33  and  O_38
REMARK   15  A    between atoms: C_34  and  O_36
REMARK   16  A    between atoms: O_36  and  C_37
REMARK                            x       y       z     vdW  Elec       q    Type
REMARK                         _______ _______ _______ _____ _____    ______ ____
ROOT
ATOM      1  N   UNL     1      -2.042  -5.995  -3.175  0.00  0.00    -0.284 N 
ATOM      2  C   UNL     1      -2.937  -6.324  -2.054  0.00  0.00    +0.145 C 
ATOM      3  C   UNL     1      -4.290  -6.519  -2.657  0.00  0.00    +0.072 A 
ATOM      4  C   UNL     1      -5.577  -6.870  -2.049  0.00  0.00    +0.199 A 
ATOM      5  O   UNL     1      -5.762  -6.895  -0.845  0.00  0.00    -0.287 OA
ATOM      6  C   UNL     1      -6.635  -7.192  -3.041  0.00  0.00    +0.066 A 
ATOM      7  C   UNL     1      -7.851  -7.735  -2.625  0.00  0.00    +0.035 A 
ATOM      8  C   UNL     1      -8.819  -8.032  -3.559  0.00  0.00    +0.042 A 
ATOM      9  C   UNL     1      -8.582  -7.792  -4.907  0.00  0.00    +0.023 A 
ATOM     10  C   UNL     1      -7.386  -7.255  -5.328  0.00  0.00    +0.048 A 
ATOM     11  C   UNL     1      -6.392  -6.944  -4.401  0.00  0.00    +0.140 A 
ATOM     12  O   UNL     1      -5.230  -6.408  -4.842  0.00  0.00    -0.450 OA
ATOM     13  C   UNL     1      -4.179  -6.314  -4.003  0.00  0.00    +0.199 A 
ATOM     14  C   UNL     1      -2.775  -5.987  -4.307  0.00  0.00    +0.283 C 
ATOM     15  O   UNL     1      -2.341  -5.747  -5.416  0.00  0.00    -0.267 OA
ATOM     16 CL   UNL     1     -10.335  -8.707  -3.052  0.00  0.00    -0.084 Cl
ENDROOT
BRANCH   2  17
ATOM     17  C   UNL     1      -2.480  -7.591  -1.379  0.00  0.00    -0.019 A 
ATOM     18  C   UNL     1      -2.012  -8.648  -2.138  0.00  0.00    +0.009 A 
ATOM     19  C   UNL     1      -1.591  -9.812  -1.523  0.00  0.00    +0.049 A 
ATOM     20  C   UNL     1      -1.639  -9.923  -0.142  0.00  0.00    +0.158 A 
ATOM     21  C   UNL     1      -2.110  -8.859   0.622  0.00  0.00    +0.162 A 
ATOM     22  C   UNL     1      -2.525  -7.693  -0.001  0.00  0.00    +0.055 A 
BRANCH  21  23
ATOM     23  O   UNL     1      -2.159  -8.963   1.977  0.00  0.00    -0.491 OA
ATOM     24  C   UNL     1      -2.654  -7.832   2.697  0.00  0.00    +0.277 C 
ENDBRANCH  21  23
BRANCH  20  25
ATOM     25  O   UNL     1      -1.226 -11.068   0.464  0.00  0.00    -0.503 OA
ATOM     26  H   UNL     1      -0.287 -11.075   0.694  0.00  0.00    +0.292 HD
ENDBRANCH  20  25
ENDBRANCH   2  17
BRANCH   1  27
ATOM     27  C   UNL     1      -0.606  -5.719  -3.078  0.00  0.00    +0.107 C 
BRANCH  27  28
ATOM     28  C   UNL     1      -0.390  -4.221  -2.851  0.00  0.00    +0.000 C 
BRANCH  28  29
ATOM     29  C   UNL     1       1.109  -3.932  -2.749  0.00  0.00    -0.077 C 
BRANCH  29  30
ATOM     30  N   UNL     1       1.317  -2.495  -2.531  0.00  0.00    +0.380 N 
ATOM     31  H   UNL     1       0.856  -1.974  -3.261  0.00  0.00    -0.082 HD
BRANCH  30  32
ATOM     32  C   UNL     1       0.758  -2.111  -1.228  0.00  0.00    -0.079 C 
BRANCH  32  33
ATOM     33  C   UNL     1       0.846  -0.593  -1.062  0.00  0.00    -0.019 C 
BRANCH  33  35
ATOM     34  C   UNL     1       0.232   1.339   0.399  0.00  0.00    +0.004 C 
ATOM     35  C   UNL     1       0.144  -0.179   0.234  0.00  0.00    -0.005 C 
ENDBRANCH  33  35
ENDBRANCH  32  33
ENDBRANCH  30  32
BRANCH  30  36
ATOM     36  C   UNL     1       2.756  -2.199  -2.552  0.00  0.00    -0.079 C 
BRANCH  36  37
ATOM     37  C   UNL     1       3.310  -2.463  -3.954  0.00  0.00    -0.019 C 
BRANCH  37  38
ATOM     38  C   UNL     1       4.776  -2.030  -4.013  0.00  0.00    -0.005 C 
ATOM     39  C   UNL     1       5.330  -2.294  -5.414  0.00  0.00    +0.004 C 
ENDBRANCH  37  38
ENDBRANCH  36  37
ENDBRANCH  30  36
ENDBRANCH  29  30
ENDBRANCH  28  29
ENDBRANCH  27  28
ENDBRANCH   1  27
TORSDOF 13
