REMARK  Name = ZINC40586282
REMARK  5 active torsions:
REMARK  status: ('A' for Active; 'I' for Inactive)
REMARK    1  A    between atoms: C_4  and  N_11
REMARK    2  A    between atoms: C_5  and  C_7
REMARK    3  A    between atoms: C_13  and  N_25
REMARK    4  A    between atoms: C_14  and  N_18
REMARK    5  A    between atoms: N_18  and  C_19
REMARK                            x       y       z     vdW  Elec       q    Type
REMARK                         _______ _______ _______ _____ _____    ______ ____
ROOT
ATOM      1  N   UNL     1       3.597  -0.619  -0.387  0.00  0.00    -0.297 N 
ATOM      2  C   UNL     1       4.793   0.078  -0.484  0.00  0.00    +0.159 A 
ATOM      3  C   UNL     1       6.009  -0.597  -0.447  0.00  0.00    +0.206 A 
ATOM      4  C   UNL     1       7.180   0.148  -0.548  0.00  0.00    +0.159 A 
ATOM      5  N   UNL     1       7.095   1.471  -0.675  0.00  0.00    -0.218 NA
ATOM      6  C   UNL     1       5.924   2.074  -0.705  0.00  0.00    +0.225 A 
ATOM      7  N   UNL     1       4.793   1.403  -0.618  0.00  0.00    -0.218 NA
ATOM      8  H   UNL     1       3.600  -1.589  -0.388  0.00  0.00    +0.154 HD
ENDROOT
BRANCH   1  12
ATOM      9  C   UNL     1      -0.004   1.453  -0.097  0.00  0.00    +0.001 A 
ATOM     10  C   UNL     1       1.187   2.094   0.196  0.00  0.00    +0.002 A 
ATOM     11  C   UNL     1       2.382   1.410   0.101  0.00  0.00    +0.024 A 
ATOM     12  C   UNL     1       2.389   0.076  -0.289  0.00  0.00    +0.044 A 
ATOM     13  C   UNL     1       1.192  -0.564  -0.582  0.00  0.00    +0.076 A 
ATOM     14  C   UNL     1      -0.001   0.126  -0.485  0.00  0.00    +0.014 A 
BRANCH  13  15
ATOM     15  C   UNL     1       1.194  -2.010  -1.006  0.00  0.00    +0.419 C 
ATOM     16  F   UNL     1      -0.120  -2.429  -1.244  0.00  0.00    -0.166 F 
ATOM     17  F   UNL     1       1.948  -2.152  -2.176  0.00  0.00    -0.166 F 
ATOM     18  F   UNL     1       1.756  -2.793   0.009  0.00  0.00    -0.166 F 
ENDBRANCH  13  15
ENDBRANCH   1  12
BRANCH   3  19
ATOM     19  N   UNL     1       6.056  -2.070  -0.304  0.00  0.00    +0.063 N 
ATOM     20  O   UNL     1       6.050  -2.773  -1.288  0.00  0.00    -0.126 OA
ATOM     21  O   UNL     1       6.101  -2.569   0.795  0.00  0.00    -0.126 OA
ENDBRANCH   3  19
BRANCH   4  22
ATOM     22  N   UNL     1       8.418  -0.479  -0.516  0.00  0.00    -0.297 N 
ATOM     23  H   UNL     1       8.471  -1.447  -0.491  0.00  0.00    +0.154 HD
BRANCH  22  24
ATOM     24  C   UNL     1       9.585   0.283  -0.521  0.00  0.00    +0.035 A 
ATOM     25  C   UNL     1       9.626   1.532   0.098  0.00  0.00    +0.041 A 
ATOM     26  C   UNL     1      10.800   2.255   0.071  0.00  0.00    +0.084 A 
ATOM     27  N   UNL     1      11.874   1.779  -0.531  0.00  0.00    -0.367 N 
ATOM     28  C   UNL     1      11.875   0.602  -1.128  0.00  0.00    +0.084 A 
ATOM     29  C   UNL     1      10.743  -0.185  -1.141  0.00  0.00    +0.041 A 
ATOM     30  H   UNL     1      12.686   2.309  -0.534  0.00  0.00    +0.165 HD
ENDBRANCH  22  24
ENDBRANCH   4  22
TORSDOF 5
