REMARK  Name = ZINC12565140
REMARK  5 active torsions:
REMARK  status: ('A' for Active; 'I' for Inactive)
REMARK    1  A    between atoms: C_3  and  N_32
REMARK    2  A    between atoms: C_4  and  S_23
REMARK    3  A    between atoms: C_6  and  C_7
REMARK    4  A    between atoms: C_12  and  C_15
REMARK    5  A    between atoms: S_23  and  N_26
REMARK                            x       y       z     vdW  Elec       q    Type
REMARK                         _______ _______ _______ _____ _____    ______ ____
ROOT
ATOM      1  C   UNL     1       5.025  -5.138   2.576  0.00  0.00    +0.015 A 
ATOM      2  C   UNL     1       6.334  -5.492   2.341  0.00  0.00    +0.026 A 
ATOM      3  C   UNL     1       6.842  -6.676   2.867  0.00  0.00    +0.056 A 
ATOM      4  C   UNL     1       6.030  -7.503   3.639  0.00  0.00    +0.127 A 
ATOM      5  C   UNL     1       4.722  -7.152   3.884  0.00  0.00    +0.043 A 
ATOM      6  C   UNL     1       4.209  -5.963   3.356  0.00  0.00    +0.039 A 
ENDROOT
BRANCH   6   7
ATOM      7  C   UNL     1       2.807  -5.584   3.616  0.00  0.00    +0.247 C 
ATOM      8  O   UNL     1       2.282  -5.883   4.671  0.00  0.00    -0.270 OA
ATOM      9  N   UNL     1       2.109  -4.905   2.684  0.00  0.00    -0.297 N 
ATOM     10  C   UNL     1       0.756  -4.411   2.975  0.00  0.00    +0.109 C 
ATOM     11  C   UNL     1      -0.198  -4.916   1.888  0.00  0.00    +0.032 C 
ATOM     12  C   UNL     1       0.338  -4.508   0.514  0.00  0.00    +0.078 C 
ATOM     13  C   UNL     1       1.710  -5.149   0.289  0.00  0.00    +0.032 C 
ATOM     14  C   UNL     1       2.686  -4.646   1.358  0.00  0.00    +0.109 C 
BRANCH  12  15
ATOM     15  C   UNL     1      -0.615  -4.974  -0.556  0.00  0.00    +0.219 C 
ATOM     16  O   UNL     1      -1.509  -5.745  -0.277  0.00  0.00    -0.275 OA
ATOM     17  N   UNL     1      -0.475  -4.534  -1.822  0.00  0.00    -0.301 N 
ATOM     18  C   UNL     1      -1.332  -5.056  -2.895  0.00  0.00    +0.108 C 
ATOM     19  C   UNL     1      -1.995  -3.876  -3.614  0.00  0.00    +0.019 C 
ATOM     20  C   UNL     1      -0.915  -2.902  -4.089  0.00  0.00    +0.003 C 
ATOM     21  C   UNL     1      -0.146  -2.361  -2.882  0.00  0.00    +0.019 C 
ATOM     22  C   UNL     1       0.538  -3.523  -2.155  0.00  0.00    +0.108 C 
ENDBRANCH  12  15
ENDBRANCH   6   7
BRANCH   3  23
ATOM     23  N   UNL     1       8.163  -7.034   2.622  0.00  0.00    -0.328 N 
ATOM     24  C   UNL     1       9.090  -6.119   3.301  0.00  0.00    +0.105 C 
ATOM     25  C   UNL     1      10.524  -6.625   3.130  0.00  0.00    +0.019 C 
ATOM     26  C   UNL     1      10.858  -6.706   1.638  0.00  0.00    +0.003 C 
ATOM     27  C   UNL     1       9.848  -7.626   0.946  0.00  0.00    +0.019 C 
ATOM     28  C   UNL     1       8.434  -7.091   1.180  0.00  0.00    +0.105 C 
ENDBRANCH   3  23
BRANCH   4  29
ATOM     29  S   UNL     1       6.678  -9.000   4.304  0.00  0.00    +0.063 S 
ATOM     30  O   UNL     1       7.286  -9.695   3.224  0.00  0.00    -0.153 OA
ATOM     31  O   UNL     1       7.393  -8.647   5.480  0.00  0.00    -0.153 OA
BRANCH  29  32
ATOM     32  N   UNL     1       5.389  -9.918   4.791  0.00  0.00    -0.177 NA
ATOM     33  C   UNL     1       4.949  -9.907   6.193  0.00  0.00    +0.109 C 
ATOM     34  C   UNL     1       3.451  -9.571   6.233  0.00  0.00    +0.017 C 
ATOM     35  C   UNL     1       2.689 -10.556   5.344  0.00  0.00    +0.003 C 
ATOM     36  C   UNL     1       3.174 -10.422   3.899  0.00  0.00    +0.017 C 
ATOM     37  C   UNL     1       4.666 -10.764   3.831  0.00  0.00    +0.109 C 
ENDBRANCH  29  32
ENDBRANCH   4  29
TORSDOF 5
