REMARK  Name = ZINC32759525
REMARK  7 active torsions:
REMARK  status: ('A' for Active; 'I' for Inactive)
REMARK    1  A    between atoms: C_1  and  C_2
REMARK    2  A    between atoms: C_2  and  C_3
REMARK    3  A    between atoms: C_2  and  C_4
REMARK    4  A    between atoms: C_4  and  C_6
REMARK    5  A    between atoms: C_4  and  N_16
REMARK    6  A    between atoms: N_16  and  C_17
REMARK    7  A    between atoms: C_17  and  C_18
REMARK                            x       y       z     vdW  Elec       q    Type
REMARK                         _______ _______ _______ _____ _____    ______ ____
ROOT
ATOM      1  C   UNL     1      -1.391  -0.534   0.036  0.00  0.00    +0.087 C 
ENDROOT
BRANCH   1   2
ATOM      2  C   UNL     1      -1.996  -0.137  -1.286  0.00  0.00    -0.027 A 
ATOM      3  C   UNL     1      -1.707  -0.868  -2.424  0.00  0.00    +0.009 A 
ATOM      4  C   UNL     1      -2.259  -0.506  -3.639  0.00  0.00    +0.050 A 
ATOM      5  C   UNL     1      -3.104   0.591  -3.719  0.00  0.00    +0.162 A 
ATOM      6  C   UNL     1      -3.396   1.324  -2.575  0.00  0.00    +0.162 A 
ATOM      7  C   UNL     1      -2.842   0.953  -1.358  0.00  0.00    +0.054 A 
ATOM      8  O   UNL     1      -4.229   2.399  -2.630  0.00  0.00    -0.485 OA
ATOM      9  C   UNL     1      -4.472   2.959  -3.925  0.00  0.00    +0.270 C 
ATOM     10  C   UNL     1      -4.771   1.810  -4.897  0.00  0.00    +0.270 C 
ATOM     11  O   UNL     1      -3.636   0.938  -4.923  0.00  0.00    -0.485 OA
ENDBRANCH   1   2
BRANCH   1  13
ATOM     12  C   UNL     1       0.874  -0.621  -1.015  0.00  0.00    +0.009 C 
ATOM     13  C   UNL     1       0.044  -0.012   0.117  0.00  0.00    +0.004 C 
ATOM     14  C   UNL     1       0.041   1.512  -0.016  0.00  0.00    +0.009 C 
ENDBRANCH   1  13
BRANCH   1  15
ATOM     15  N   UNL     1      -1.387  -1.998   0.152  0.00  0.00    -0.304 NA
ATOM     16  H   UNL     1      -2.166  -2.403  -0.345  0.00  0.00    +0.123 HD
BRANCH  15  17
ATOM     17  C   UNL     1      -1.389  -2.414   1.561  0.00  0.00    +0.135 C 
BRANCH  17  18
ATOM     18  C   UNL     1      -1.492  -3.916   1.642  0.00  0.00    +0.037 A 
ATOM     19  C   UNL     1      -0.459  -4.663   2.165  0.00  0.00    +0.093 A 
ATOM     20  C   UNL     1      -0.573  -6.052   2.231  0.00  0.00    +0.259 A 
ATOM     21  O   UNL     1       0.339  -6.718   2.694  0.00  0.00    -0.267 OA
ATOM     22  N   UNL     1      -1.707  -6.665   1.779  0.00  0.00    -0.264 N 
ATOM     23  C   UNL     1      -1.968  -8.014   1.778  0.00  0.00    +0.104 A 
ATOM     24  C   UNL     1      -3.119  -8.492   1.306  0.00  0.00    +0.067 A 
ATOM     25  S   UNL     1      -3.958  -6.998   0.806  0.00  0.00    -0.059 S 
ATOM     26  C   UNL     1      -2.684  -5.847   1.275  0.00  0.00    +0.158 A 
ATOM     27  N   UNL     1      -2.585  -4.543   1.214  0.00  0.00    -0.338 N 
ATOM     28  H   UNL     1      -3.320  -4.026   0.849  0.00  0.00    +0.168 HD
ENDBRANCH  17  18
ENDBRANCH  15  17
ENDBRANCH   1  15
TORSDOF 5
