REMARK  Name = ZINC36318302
REMARK  11 active torsions:
REMARK  status: ('A' for Active; 'I' for Inactive)
REMARK    1  A    between atoms: C_1  and  N_2
REMARK    2  A    between atoms: N_2  and  C_3
REMARK    3  A    between atoms: N_2  and  C_4
REMARK    4  A    between atoms: C_7  and  C_10
REMARK    5  A    between atoms: C_11  and  C_12
REMARK    6  A    between atoms: N_14  and  C_15
REMARK    7  A    between atoms: N_14  and  C_22
REMARK    8  A    between atoms: C_15  and  C_16
REMARK    9  A    between atoms: C_23  and  N_38
REMARK   10  A    between atoms: N_24  and  C_31
REMARK   11  A    between atoms: C_31  and  C_32
REMARK                            x       y       z     vdW  Elec       q    Type
REMARK                         _______ _______ _______ _____ _____    ______ ____
ROOT
ATOM      1  C   UNL     1      -0.328  -2.843  -7.392  0.00  0.00    +0.244 C 
ATOM      2  O   UNL     1      -0.488  -4.050  -7.408  0.00  0.00    -0.270 OA
ATOM      3  N   UNL     1      -0.095  -2.178  -8.541  0.00  0.00    -0.256 N 
ENDROOT
BRANCH   3   4
ATOM      4  C   UNL     1       0.059  -2.890  -9.748  0.00  0.00    +0.140 A 
ATOM      5  C   UNL     1       1.106  -3.774  -9.913  0.00  0.00    +0.128 A 
ATOM      6  N   UNL     1       1.230  -4.454 -11.102  0.00  0.00    -0.276 N 
ATOM      7  C   UNL     1       0.341  -4.260 -12.093  0.00  0.00    +0.331 A 
ATOM      8  O   UNL     1       0.467  -4.871 -13.137  0.00  0.00    -0.246 OA
ATOM      9  N   UNL     1      -0.686  -3.403 -11.950  0.00  0.00    -0.273 N 
ATOM     10  H   UNL     1      -1.313  -3.280 -12.680  0.00  0.00    +0.173 HD
ATOM     11  C   UNL     1      -0.855  -2.716 -10.804  0.00  0.00    +0.277 A 
ATOM     12  O   UNL     1      -1.792  -1.944 -10.683  0.00  0.00    -0.266 OA
BRANCH   5  13
ATOM     13  N   UNL     1       2.015  -3.973  -8.901  0.00  0.00    -0.343 N 
ATOM     14  H   UNL     1       1.892  -3.533  -8.046  0.00  0.00    +0.144 HD
ATOM     15  H   UNL     1       2.780  -4.552  -9.043  0.00  0.00    +0.144 HD
ENDBRANCH   5  13
BRANCH   6  16
ATOM     16  C   UNL     1       2.336  -5.396 -11.291  0.00  0.00    +0.163 C 
BRANCH  16  17
ATOM     17  C   UNL     1       1.911  -6.769 -10.839  0.00  0.00    -0.028 A 
ATOM     18  C   UNL     1       2.105  -7.155  -9.526  0.00  0.00    +0.005 A 
ATOM     19  C   UNL     1       1.714  -8.414  -9.111  0.00  0.00    +0.000 A 
ATOM     20  C   UNL     1       1.130  -9.287 -10.009  0.00  0.00    +0.000 A 
ATOM     21  C   UNL     1       0.935  -8.901 -11.322  0.00  0.00    +0.000 A 
ATOM     22  C   UNL     1       1.321  -7.640 -11.736  0.00  0.00    +0.005 A 
ENDBRANCH  16  17
ENDBRANCH   6  16
ENDBRANCH   3   4
BRANCH   1  24
ATOM     23  C   UNL     1      -0.624  -2.780  -4.974  0.00  0.00    +0.013 C 
ATOM     24  C   UNL     1      -0.389  -2.114  -6.125  0.00  0.00    +0.068 C 
BRANCH  23  28
ATOM     25  C   UNL     1      -0.800  -0.670  -1.305  0.00  0.00    +0.029 A 
ATOM     26  C   UNL     1      -0.984  -2.050  -1.321  0.00  0.00    +0.023 A 
ATOM     27  C   UNL     1      -0.928  -2.737  -2.507  0.00  0.00    +0.010 A 
ATOM     28  C   UNL     1      -0.685  -2.048  -3.702  0.00  0.00    -0.025 A 
ATOM     29  C   UNL     1      -0.501  -0.660  -3.680  0.00  0.00    +0.010 A 
ATOM     30  C   UNL     1      -0.564   0.019  -2.491  0.00  0.00    +0.023 A 
BRANCH  25  32
ATOM     31  C   UNL     1      -0.671   1.476  -0.081  0.00  0.00    +0.129 C 
ATOM     32  N   UNL     1      -0.858   0.023  -0.100  0.00  0.00    -0.336 N 
ATOM     33  C   UNL     1      -1.106  -0.700   1.150  0.00  0.00    +0.129 C 
ENDBRANCH  25  32
ENDBRANCH  23  28
ENDBRANCH   1  24
BRANCH   3  34
ATOM     34  C   UNL     1      -0.001  -0.716  -8.535  0.00  0.00    +0.149 C 
BRANCH  34  35
ATOM     35  C   UNL     1       1.446  -0.306  -8.434  0.00  0.00    -0.030 A 
ATOM     36  C   UNL     1       1.997  -0.014  -7.200  0.00  0.00    +0.005 A 
ATOM     37  C   UNL     1       3.324   0.362  -7.107  0.00  0.00    +0.000 A 
ATOM     38  C   UNL     1       4.100   0.446  -8.248  0.00  0.00    +0.000 A 
ATOM     39  C   UNL     1       3.550   0.152  -9.482  0.00  0.00    +0.000 A 
ATOM     40  C   UNL     1       2.224  -0.228  -9.574  0.00  0.00    +0.005 A 
ENDBRANCH  34  35
ENDBRANCH   3  34
TORSDOF 9
