REMARK  Name = ZINC49937708
REMARK  7 active torsions:
REMARK  status: ('A' for Active; 'I' for Inactive)
REMARK    1  A    between atoms: C_1  and  C_2
REMARK    2  A    between atoms: C_5  and  C_8
REMARK    3  A    between atoms: C_19  and  C_21
REMARK    4  A    between atoms: C_24  and  O_29
REMARK    5  A    between atoms: C_25  and  O_27
REMARK    6  A    between atoms: O_27  and  C_28
REMARK    7  A    between atoms: O_29  and  C_30
REMARK                            x       y       z     vdW  Elec       q    Type
REMARK                         _______ _______ _______ _____ _____    ______ ____
ROOT
ATOM      1  C   UNL     1       0.069  -4.208  -0.185  0.00  0.00    +0.154 C 
ATOM      2  C   UNL     1       1.325  -4.690   0.563  0.00  0.00    +0.113 C 
ATOM      3  C   UNL     1       1.082  -5.731   1.644  0.00  0.00    +0.065 C 
ATOM      4  C   UNL     1       2.259  -6.449   2.145  0.00  0.00    +0.040 A 
ATOM      5  C   UNL     1       2.226  -7.157   3.346  0.00  0.00    +0.033 A 
ATOM      6  C   UNL     1       3.354  -7.827   3.774  0.00  0.00    +0.042 A 
ATOM      7  C   UNL     1       4.513  -7.794   3.013  0.00  0.00    +0.023 A 
ATOM      8  C   UNL     1       4.558  -7.092   1.825  0.00  0.00    +0.048 A 
ATOM      9  C   UNL     1       3.437  -6.410   1.377  0.00  0.00    +0.130 A 
ATOM     10  O   UNL     1       3.486  -5.709   0.218  0.00  0.00    -0.483 OA
ATOM     11  C   UNL     1       2.266  -5.358  -0.439  0.00  0.00    +0.215 C 
ATOM     12 CL   UNL     1       3.323  -8.710   5.268  0.00  0.00    -0.084 Cl
ATOM     13  N   UNL     1      -0.123  -5.990   2.030  0.00  0.00    -0.215 NA
ATOM     14  C   UNL     1      -1.241  -5.469   1.466  0.00  0.00    +0.249 A 
ATOM     15  N   UNL     1      -1.212  -4.638   0.398  0.00  0.00    -0.221 N 
ATOM     16  N   UNL     1      -2.542  -4.347   0.073  0.00  0.00    -0.156 NA
ATOM     17  C   UNL     1      -3.289  -4.966   0.952  0.00  0.00    +0.247 A 
ATOM     18  N   UNL     1      -2.519  -5.637   1.788  0.00  0.00    -0.198 NA
ENDROOT
BRANCH   1  23
ATOM     19  C   UNL     1       0.144   1.568  -0.330  0.00  0.00    +0.044 C 
ATOM     20  C   UNL     1       0.124   0.062  -0.292  0.00  0.00    -0.050 A 
ATOM     21  C   UNL     1       0.179  -0.660  -1.470  0.00  0.00    +0.004 A 
ATOM     22  C   UNL     1       0.162  -2.042  -1.435  0.00  0.00    +0.006 A 
ATOM     23  C   UNL     1       0.089  -2.702  -0.223  0.00  0.00    -0.022 A 
ATOM     24  C   UNL     1       0.035  -1.980   0.955  0.00  0.00    +0.006 A 
ATOM     25  C   UNL     1       0.057  -0.598   0.921  0.00  0.00    +0.004 A 
ENDBRANCH   1  23
BRANCH  11  26
ATOM     26  C   UNL     1       1.615  -6.601  -0.989  0.00  0.00    -0.003 A 
ATOM     27  C   UNL     1       1.782  -7.811  -0.340  0.00  0.00    +0.011 A 
ATOM     28  C   UNL     1       1.187  -8.954  -0.840  0.00  0.00    +0.050 A 
ATOM     29  C   UNL     1       0.421  -8.889  -1.993  0.00  0.00    +0.162 A 
ATOM     30  C   UNL     1       0.253  -7.671  -2.646  0.00  0.00    +0.162 A 
ATOM     31  C   UNL     1       0.848  -6.528  -2.136  0.00  0.00    +0.056 A 
BRANCH  30  32
ATOM     32  O   UNL     1      -0.498  -7.603  -3.777  0.00  0.00    -0.491 OA
ATOM     33  C   UNL     1      -0.626  -6.320  -4.394  0.00  0.00    +0.277 C 
ENDBRANCH  30  32
BRANCH  29  34
ATOM     34  O   UNL     1      -0.165 -10.013  -2.486  0.00  0.00    -0.491 OA
ATOM     35  C   UNL     1       0.051 -11.227  -1.765  0.00  0.00    +0.277 C 
ENDBRANCH  29  34
ENDBRANCH  11  26
TORSDOF 4
