REMARK  Name = ZINC12701682
REMARK  5 active torsions:
REMARK  status: ('A' for Active; 'I' for Inactive)
REMARK    1  A    between atoms: C_11  and  C_23
REMARK    2  A    between atoms: C_15  and  C_16
REMARK    3  A    between atoms: C_15  and  N_49
REMARK    4  A    between atoms: C_19  and  C_21
REMARK    5  A    between atoms: C_21  and  O_22
REMARK                            x       y       z     vdW  Elec       q    Type
REMARK                         _______ _______ _______ _____ _____    ______ ____
ROOT
ATOM      1  C   UNL     1      -2.983   3.783   0.052  0.00  0.00    +0.001 A 
ATOM      2  C   UNL     1      -3.393   2.460   0.048  0.00  0.00    +0.002 A 
ATOM      3  C   UNL     1      -2.493   1.409   0.033  0.00  0.00    +0.026 A 
ATOM      4  C   UNL     1      -1.139   1.736   0.016  0.00  0.00    +0.047 A 
ATOM      5  C   UNL     1      -0.724   3.094   0.026  0.00  0.00    +0.003 A 
ATOM      6  C   UNL     1      -1.656   4.136   0.042  0.00  0.00    +0.010 A 
ATOM      7  C   UNL     1       0.721   3.067   0.012  0.00  0.00    -0.022 A 
ATOM      8  C   UNL     1       1.097   1.768   0.001  0.00  0.00    +0.011 A 
ATOM      9  N   UNL     1      -0.011   0.966   0.007  0.00  0.00    -0.359 N 
ATOM     10  H   UNL     1       0.002  -0.004   0.002  0.00  0.00    +0.166 HD
ATOM     11  C   UNL     1       2.543   1.330  -0.018  0.00  0.00    +0.011 C 
ATOM     12  C   UNL     1       3.079   3.665   0.391  0.00  0.00    -0.072 C 
ATOM     13  C   UNL     1       1.698   4.216   0.011  0.00  0.00    +0.019 C 
ATOM     14  N   UNL     1       3.367   2.483  -0.452  0.00  0.00    +0.393 N 
ATOM     15  H   UNL     1       3.137   2.707  -1.428  0.00  0.00    -0.080 HD
ENDROOT
BRANCH  11  16
ATOM     16  C   UNL     1       2.718   0.205  -1.005  0.00  0.00    -0.054 A 
ATOM     17  C   UNL     1       2.816   0.480  -2.356  0.00  0.00    +0.002 A 
ATOM     18  C   UNL     1       2.982  -0.551  -3.261  0.00  0.00    +0.002 A 
ATOM     19  C   UNL     1       3.039  -1.859  -2.817  0.00  0.00    +0.020 A 
ATOM     20  C   UNL     1       2.935  -2.135  -1.466  0.00  0.00    +0.041 A 
ATOM     21  C   UNL     1       2.775  -1.102  -0.559  0.00  0.00    +0.022 A 
ATOM     22 CL   UNL     1       3.006  -3.777  -0.907  0.00  0.00    -0.084 Cl
ENDBRANCH  11  16
BRANCH  14  23
ATOM     23  C   UNL     1       4.801   2.139  -0.364  0.00  0.00    -0.002 C 
BRANCH  23  24
ATOM     24  C   UNL     1       5.621   3.390  -0.543  0.00  0.00    +0.089 A 
ATOM     25  C   UNL     1       6.043   4.202   0.443  0.00  0.00    +0.043 A 
ATOM     26  C   UNL     1       6.773   5.246  -0.170  0.00  0.00    +0.047 A 
ATOM     27  C   UNL     1       6.753   5.010  -1.494  0.00  0.00    +0.130 A 
ATOM     28  O   UNL     1       6.059   3.882  -1.714  0.00  0.00    -0.464 OA
BRANCH  27  29
ATOM     29  C   UNL     1       7.406   5.863  -2.551  0.00  0.00    +0.230 C 
BRANCH  29  30
ATOM     30  O   UNL     1       8.742   5.408  -2.772  0.00  0.00    -0.387 OA
ATOM     31  H   UNL     1       9.224   5.913  -3.442  0.00  0.00    +0.210 HD
ENDBRANCH  29  30
ENDBRANCH  27  29
ENDBRANCH  23  24
ENDBRANCH  14  23
TORSDOF 5
