REMARK  Name = ZINC51265725
REMARK  4 active torsions:
REMARK  status: ('A' for Active; 'I' for Inactive)
REMARK    1  A    between atoms: N_9  and  C_12
REMARK    2  A    between atoms: C_12  and  C_13
REMARK    3  A    between atoms: C_13  and  C_15
REMARK    4  A    between atoms: C_13  and  O_22
REMARK                            x       y       z     vdW  Elec       q    Type
REMARK                         _______ _______ _______ _____ _____    ______ ____
ROOT
ATOM      1  C   UNL     1      -0.017   1.373   0.010  0.00  0.00    +0.001 A 
ATOM      2  C   UNL     1       1.170   2.095   0.002  0.00  0.00    +0.002 A 
ATOM      3  C   UNL     1       2.386   1.452  -0.013  0.00  0.00    +0.030 A 
ATOM      4  C   UNL     1       2.432   0.055  -0.021  0.00  0.00    +0.100 A 
ATOM      5  C   UNL     1       1.224  -0.675  -0.013  0.00  0.00    +0.068 A 
ATOM      6  C   UNL     1       0.002  -0.004   0.002  0.00  0.00    +0.015 A 
ATOM      7  C   UNL     1       1.298  -2.144  -0.022  0.00  0.00    +0.278 A 
ATOM      8  O   UNL     1       0.291  -2.829  -0.016  0.00  0.00    -0.265 OA
ATOM      9  N   UNL     1       2.530  -2.705  -0.037  0.00  0.00    -0.208 N 
ATOM     10  N   UNL     1       3.668  -1.894  -0.044  0.00  0.00    -0.062 NA
ATOM     11  N   UNL     1       3.612  -0.612  -0.037  0.00  0.00    -0.131 NA
ENDROOT
BRANCH   9  12
ATOM     12  C   UNL     1       2.670  -4.163  -0.046  0.00  0.00    +0.185 C 
BRANCH  12  13
ATOM     13  C   UNL     1       2.705  -4.663  -1.492  0.00  0.00    +0.167 C 
BRANCH  13  14
ATOM     14  C   UNL     1       2.849  -6.163  -1.502  0.00  0.00    +0.001 A 
ATOM     15  C   UNL     1       1.728  -6.965  -1.605  0.00  0.00    +0.007 A 
ATOM     16  C   UNL     1       1.860  -8.341  -1.614  0.00  0.00    +0.000 A 
ATOM     17  C   UNL     1       3.113  -8.916  -1.519  0.00  0.00    +0.001 A 
ATOM     18  C   UNL     1       4.235  -8.116  -1.416  0.00  0.00    +0.020 A 
ATOM     19  C   UNL     1       4.104  -6.738  -1.413  0.00  0.00    +0.047 A 
ATOM     20 CL   UNL     1       5.513  -5.732  -1.290  0.00  0.00    -0.083 Cl
ENDBRANCH  13  14
BRANCH  13  21
ATOM     21  O   UNL     1       1.491  -4.297  -2.152  0.00  0.00    -0.385 OA
ATOM     22  H   UNL     1       0.695  -4.663  -1.742  0.00  0.00    +0.210 HD
ENDBRANCH  13  21
ENDBRANCH  12  13
ENDBRANCH   9  12
TORSDOF 4
