REMARK  Name = ZINC35960212
REMARK  7 active torsions:
REMARK  status: ('A' for Active; 'I' for Inactive)
REMARK    1  A    between atoms: C_1  and  O_2
REMARK    2  A    between atoms: O_2  and  C_3
REMARK    3  A    between atoms: C_7  and  O_37
REMARK    4  A    between atoms: C_8  and  C_9
REMARK    5  A    between atoms: C_12  and  C_22
REMARK    6  A    between atoms: N_27  and  C_30
REMARK    7  A    between atoms: O_37  and  C_38
REMARK                            x       y       z     vdW  Elec       q    Type
REMARK                         _______ _______ _______ _____ _____    ______ ____
ROOT
ATOM      1  C   UNL     1      -0.041  -3.881   0.123  0.00  0.00    +0.257 C 
ATOM      2  O   UNL     1       0.432  -4.628  -0.712  0.00  0.00    -0.270 OA
ATOM      3  N   UNL     1      -1.375  -3.830   0.304  0.00  0.00    -0.255 N 
ATOM      4  C   UNL     1      -2.109  -3.010   1.294  0.00  0.00    +0.191 C 
ATOM      5  C   UNL     1      -3.465  -3.749   1.414  0.00  0.00    +0.194 C 
ATOM      6  O   UNL     1      -3.691  -4.204   0.059  0.00  0.00    -0.354 OA
ATOM      7  C   UNL     1      -2.398  -4.575  -0.445  0.00  0.00    +0.139 C 
ATOM      8  C   UNL     1      -2.188  -6.077  -0.249  0.00  0.00    +0.055 C 
ATOM      9  C   UNL     1      -0.809  -6.472  -0.783  0.00  0.00    +0.004 C 
ATOM     10  C   UNL     1      -0.722  -6.129  -2.271  0.00  0.00    +0.000 C 
ATOM     11  C   UNL     1      -0.925  -4.624  -2.462  0.00  0.00    +0.004 C 
ATOM     12  C   UNL     1      -2.304  -4.225  -1.931  0.00  0.00    +0.055 C 
ENDROOT
BRANCH   4  13
ATOM     13  C   UNL     1      -1.385  -2.994   2.616  0.00  0.00    +0.239 C 
ATOM     14  O   UNL     1      -0.730  -3.955   2.960  0.00  0.00    -0.273 OA
ATOM     15  N   UNL     1      -1.467  -1.913   3.417  0.00  0.00    -0.297 N 
ATOM     16  C   UNL     1      -2.180  -0.707   2.973  0.00  0.00    +0.126 C 
ATOM     17  C   UNL     1      -3.250  -0.359   4.015  0.00  0.00    +0.124 C 
ATOM     18  N   UNL     1      -2.629  -0.366   5.347  0.00  0.00    -0.325 N 
ATOM     19  C   UNL     1      -1.917  -1.573   5.790  0.00  0.00    +0.124 C 
ATOM     20  C   UNL     1      -0.851  -1.922   4.751  0.00  0.00    +0.126 C 
BRANCH  18  21
ATOM     21  C   UNL     1      -2.714   0.756   6.178  0.00  0.00    +0.065 A 
ATOM     22  C   UNL     1      -3.772   0.884   7.068  0.00  0.00    +0.026 A 
ATOM     23  C   UNL     1      -3.853   1.993   7.888  0.00  0.00    +0.002 A 
ATOM     24  C   UNL     1      -2.883   2.976   7.823  0.00  0.00    +0.003 A 
ATOM     25  C   UNL     1      -1.827   2.853   6.938  0.00  0.00    +0.040 A 
ATOM     26  C   UNL     1      -1.736   1.743   6.118  0.00  0.00    +0.144 A 
ATOM     27  F   UNL     1      -0.702   1.620   5.258  0.00  0.00    -0.204 F 
ENDBRANCH  18  21
ENDBRANCH   4  13
BRANCH   1  33
ATOM     28  C   UNL     1       0.925  -1.653   0.689  0.00  0.00    +0.136 A 
ATOM     29  C   UNL     1       1.757  -0.862   1.464  0.00  0.00    +0.046 A 
ATOM     30  C   UNL     1       2.513  -1.428   2.474  0.00  0.00    +0.007 A 
ATOM     31  C   UNL     1       2.447  -2.786   2.723  0.00  0.00    +0.046 A 
ATOM     32  C   UNL     1       1.620  -3.596   1.960  0.00  0.00    +0.136 A 
ATOM     33  C   UNL     1       0.845  -3.031   0.936  0.00  0.00    +0.120 A 
BRANCH  28  35
ATOM     34  C   UNL     1       0.317   0.314  -0.496  0.00  0.00    +0.277 C 
ATOM     35  O   UNL     1       0.184  -1.096  -0.302  0.00  0.00    -0.494 OA
ENDBRANCH  28  35
BRANCH  32  36
ATOM     36  O   UNL     1       1.557  -4.928   2.206  0.00  0.00    -0.494 OA
ATOM     37  C   UNL     1       2.370  -5.431   3.268  0.00  0.00    +0.277 C 
ENDBRANCH  32  36
ENDBRANCH   1  33
TORSDOF 5
