REMARK  Name = ZINC05342648
REMARK  4 active torsions:
REMARK  status: ('A' for Active; 'I' for Inactive)
REMARK    1  A    between atoms: N_13  and  C_17
REMARK    2  A    between atoms: C_17  and  C_18
REMARK    3  A    between atoms: N_20  and  C_21
REMARK    4  A    between atoms: C_21  and  C_22
REMARK                            x       y       z     vdW  Elec       q    Type
REMARK                         _______ _______ _______ _____ _____    ______ ____
ROOT
ATOM      1  C   UNL     1       2.072   1.561  -3.611  0.00  0.00    +0.001 A 
ATOM      2  C   UNL     1       3.454   1.567  -3.569  0.00  0.00    +0.004 A 
ATOM      3  C   UNL     1       4.106   1.755  -2.368  0.00  0.00    +0.046 A 
ATOM      4  C   UNL     1       3.378   1.939  -1.197  0.00  0.00    +0.126 A 
ATOM      5  C   UNL     1       1.994   1.936  -1.242  0.00  0.00    +0.027 A 
ATOM      6  C   UNL     1       1.346   1.745  -2.451  0.00  0.00    +0.010 A 
ATOM      7  C   UNL     1       1.176   2.139   0.002  0.00  0.00    +0.144 C 
ATOM      8  C   UNL     1       2.027   1.923   1.250  0.00  0.00    +0.081 C 
ATOM      9  C   UNL     1       3.347   2.685   1.073  0.00  0.00    +0.232 C 
ATOM     10  O   UNL     1       4.053   2.116  -0.032  0.00  0.00    -0.492 OA
ATOM     11  C   UNL     1      -0.014   1.208   0.009  0.00  0.00    +0.252 C 
ATOM     12  O   UNL     1       0.002  -0.004   0.002  0.00  0.00    -0.272 OA
ATOM     13  N   UNL     1      -1.099   2.010   0.017  0.00  0.00    -0.215 N 
ATOM     14  C   UNL     1      -0.755   3.304   0.025  0.00  0.00    +0.310 C 
ATOM     15  O   UNL     1      -1.558   4.217   0.036  0.00  0.00    -0.252 OA
ATOM     16  N   UNL     1       0.580   3.481   0.013  0.00  0.00    -0.281 N 
ATOM     17  H   UNL     1       1.054   4.327   0.012  0.00  0.00    +0.152 HD
ENDROOT
BRANCH  13  18
ATOM     18  C   UNL     1      -2.482   1.526   0.022  0.00  0.00    +0.213 C 
BRANCH  18  19
ATOM     19  C   UNL     1      -2.949   1.353   1.444  0.00  0.00    +0.231 C 
ATOM     20  O   UNL     1      -2.201   1.610   2.364  0.00  0.00    -0.274 OA
ATOM     21  N   UNL     1      -4.198   0.913   1.694  0.00  0.00    -0.309 N 
ATOM     22  H   UNL     1      -4.796   0.708   0.959  0.00  0.00    +0.149 HD
BRANCH  21  23
ATOM     23  C   UNL     1      -4.652   0.746   3.077  0.00  0.00    +0.146 C 
BRANCH  23  24
ATOM     24  C   UNL     1      -6.074   0.247   3.082  0.00  0.00    +0.007 A 
ATOM     25  C   UNL     1      -6.532  -1.029   3.078  0.00  0.00    +0.013 A 
ATOM     26  C   UNL     1      -7.896  -1.252   3.084  0.00  0.00    +0.008 A 
ATOM     27  C   UNL     1      -8.736  -0.189   3.094  0.00  0.00    +0.045 A 
ATOM     28  S   UNL     1      -7.594   1.184   3.101  0.00  0.00    -0.100 S 
ENDBRANCH  23  24
ENDBRANCH  21  23
ENDBRANCH  18  19
ENDBRANCH  13  18
TORSDOF 4
