REMARK  Name = ZINC20058213
REMARK  6 active torsions:
REMARK  status: ('A' for Active; 'I' for Inactive)
REMARK    1  A    between atoms: C_1  and  O_2
REMARK    2  A    between atoms: O_2  and  C_3
REMARK    3  A    between atoms: C_8  and  C_9
REMARK    4  A    between atoms: C_20  and  N_27
REMARK    5  A    between atoms: C_22  and  O_25
REMARK    6  A    between atoms: O_25  and  C_26
REMARK                            x       y       z     vdW  Elec       q    Type
REMARK                         _______ _______ _______ _____ _____    ______ ____
ROOT
ATOM      1  C   UNL     1      -0.356   3.059   1.493  0.00  0.00    +0.109 C 
ATOM      2  C   UNL     1      -0.865   1.635   1.259  0.00  0.00    +0.029 C 
ATOM      3  C   UNL     1      -0.136   1.068   0.009  0.00  0.00    +0.033 C 
ATOM      4  C   UNL     1      -0.931   1.626  -1.155  0.00  0.00    -0.030 C 
ATOM      5  C   UNL     1      -2.134   1.970  -0.766  0.00  0.00    -0.023 C 
ATOM      6  C   UNL     1      -2.310   1.700   0.710  0.00  0.00    +0.049 C 
ATOM      7  C   UNL     1      -3.110   2.794   1.356  0.00  0.00    -0.014 A 
ATOM      8  C   UNL     1      -4.452   2.884   1.091  0.00  0.00    +0.039 A 
ATOM      9  C   UNL     1      -5.227   3.876   1.655  0.00  0.00    +0.130 A 
ATOM     10  C   UNL     1      -4.655   4.802   2.507  0.00  0.00    +0.080 A 
ATOM     11  C   UNL     1      -3.304   4.729   2.791  0.00  0.00    +0.143 A 
ATOM     12  C   UNL     1      -2.517   3.724   2.220  0.00  0.00    +0.074 A 
ATOM     13  N   UNL     1      -1.157   3.695   2.540  0.00  0.00    -0.334 N 
ATOM     14  H   UNL     1      -0.668   4.081   3.447  0.00  0.00    +0.147 HD
ENDROOT
BRANCH   1  20
ATOM     15  C   UNL     1       0.558   3.843  -0.706  0.00  0.00    +0.125 A 
ATOM     16  C   UNL     1       0.442   4.568  -1.883  0.00  0.00    +0.047 A 
ATOM     17  C   UNL     1      -0.699   5.307  -2.128  0.00  0.00    +0.019 A 
ATOM     18  C   UNL     1      -1.729   5.319  -1.203  0.00  0.00    +0.018 A 
ATOM     19  C   UNL     1      -1.617   4.592  -0.032  0.00  0.00    +0.024 A 
ATOM     20  C   UNL     1      -0.477   3.852   0.217  0.00  0.00    +0.016 A 
ATOM     21 BR   UNL     1      -3.289   6.332  -1.541  0.00  0.00    -0.050 Br
BRANCH  15  23
ATOM     22  C   UNL     1       2.708   3.157  -1.456  0.00  0.00    +0.277 C 
ATOM     23  O   UNL     1       1.683   3.120  -0.461  0.00  0.00    -0.495 OA
ENDBRANCH  15  23
ENDBRANCH   1  20
BRANCH   9  24
ATOM     24  N   UNL     1      -6.673   3.948   1.348  0.00  0.00    +0.057 N 
ATOM     25  O   UNL     1      -7.359   4.823   1.845  0.00  0.00    -0.126 OA
ATOM     26  O   UNL     1      -7.178   3.132   0.597  0.00  0.00    -0.126 OA
ENDBRANCH   9  24
BRANCH  11  27
ATOM     27  O   UNL     1      -2.738   5.639   3.629  0.00  0.00    -0.493 OA
ATOM     28  C   UNL     1      -3.598   6.639   4.178  0.00  0.00    +0.277 C 
ENDBRANCH  11  27
TORSDOF 4
