REMARK  Name = ZINC65372835
REMARK  7 active torsions:
REMARK  status: ('A' for Active; 'I' for Inactive)
REMARK    1  A    between atoms: C_1  and  N_2
REMARK    2  A    between atoms: C_9  and  C_22
REMARK    3  A    between atoms: C_9  and  C_24
REMARK    4  A    between atoms: C_11  and  C_13
REMARK    5  A    between atoms: C_18  and  O_19
REMARK    6  A    between atoms: O_19  and  C_20
REMARK    7  A    between atoms: C_22  and  O_23
REMARK                            x       y       z     vdW  Elec       q    Type
REMARK                         _______ _______ _______ _____ _____    ______ ____
ROOT
ATOM      1  C   UNL     1       0.482   1.732  -0.067  0.00  0.00    -0.096 C 
ATOM      2  N   UNL     1       0.337   0.270  -0.096  0.00  0.00    +0.378 N 
ATOM      3  C   UNL     1       1.103  -0.298  -1.233  0.00  0.00    -0.074 C 
ATOM      4  C   UNL     1       1.322  -1.772  -0.820  0.00  0.00    -0.003 C 
ATOM      5  C   UNL     1       1.546  -1.673   0.717  0.00  0.00    +0.002 C 
ATOM      6  C   UNL     1       0.924  -0.325   1.123  0.00  0.00    -0.073 C 
ATOM      7  C   UNL     1       3.073  -1.610   0.896  0.00  0.00    +0.070 C 
ATOM      8  N   UNL     1       3.669  -1.569  -0.456  0.00  0.00    -0.298 NA
ATOM      9  C   UNL     1       2.689  -2.241  -1.368  0.00  0.00    +0.090 C 
ATOM     10  H   UNL     1       3.828  -0.617  -0.752  0.00  0.00    +0.123 HD
ATOM     11  H   UNL     1      -0.638   0.019  -0.171  0.00  0.00    -0.082 HD
ENDROOT
BRANCH   9  12
ATOM     12  C   UNL     1       2.863  -1.806  -2.800  0.00  0.00    +0.014 A 
ATOM     13  C   UNL     1       3.619  -0.689  -3.096  0.00  0.00    +0.047 A 
ATOM     14  C   UNL     1       3.780  -0.289  -4.412  0.00  0.00    +0.124 A 
ATOM     15  C   UNL     1       3.182  -1.009  -5.433  0.00  0.00    +0.042 A 
ATOM     16  C   UNL     1       2.425  -2.127  -5.140  0.00  0.00    +0.049 A 
ATOM     17  C   UNL     1       2.269  -2.532  -3.822  0.00  0.00    +0.125 A 
ATOM     18  F   UNL     1       4.519   0.804  -4.701  0.00  0.00    -0.205 F 
BRANCH  17  19
ATOM     19  O   UNL     1       1.529  -3.635  -3.532  0.00  0.00    -0.495 OA
ATOM     20  C   UNL     1       0.946  -4.333  -4.635  0.00  0.00    +0.277 C 
ENDBRANCH  17  19
ENDBRANCH   9  12
BRANCH   7  21
ATOM     21  C   UNL     1       3.554  -2.834   1.632  0.00  0.00    -0.025 A 
ATOM     22  C   UNL     1       2.726  -3.464   2.542  0.00  0.00    +0.005 A 
ATOM     23  C   UNL     1       3.168  -4.586   3.217  0.00  0.00    +0.000 A 
ATOM     24  C   UNL     1       4.438  -5.079   2.982  0.00  0.00    +0.000 A 
ATOM     25  C   UNL     1       5.266  -4.449   2.071  0.00  0.00    +0.000 A 
ATOM     26  C   UNL     1       4.822  -3.329   1.393  0.00  0.00    +0.005 A 
ENDBRANCH   7  21
BRANCH   7  27
ATOM     27  C   UNL     1       3.454  -0.348   1.672  0.00  0.00    +0.183 C 
BRANCH  27  28
ATOM     28  O   UNL     1       2.802  -0.355   2.944  0.00  0.00    -0.393 OA
ATOM     29  H   UNL     1       2.999   0.418   3.491  0.00  0.00    +0.209 HD
ENDBRANCH  27  28
ENDBRANCH   7  27
TORSDOF 5
