REMARK  Name = ZINC09611438
REMARK  9 active torsions:
REMARK  status: ('A' for Active; 'I' for Inactive)
REMARK    1  A    between atoms: C_1  and  O_2
REMARK    2  A    between atoms: O_2  and  C_3
REMARK    3  A    between atoms: C_8  and  N_9
REMARK    4  A    between atoms: C_10  and  C_12
REMARK    5  A    between atoms: C_12  and  C_14
REMARK    6  A    between atoms: C_12  and  N_21
REMARK    7  A    between atoms: C_14  and  C_15
REMARK    8  A    between atoms: N_21  and  S_22
REMARK    9  A    between atoms: S_22  and  C_25
REMARK                            x       y       z     vdW  Elec       q    Type
REMARK                         _______ _______ _______ _____ _____    ______ ____
ROOT
ATOM      1  C   UNL     1      -2.952   0.482   1.320  0.00  0.00    +0.167 C 
ENDROOT
BRANCH   1   3
ATOM      2  N   UNL     1      -3.261  -1.896   0.717  0.00  0.00    -0.281 N 
ATOM      3  C   UNL     1      -3.728  -0.809   1.361  0.00  0.00    +0.236 C 
ATOM      4  O   UNL     1      -4.773  -0.869   1.974  0.00  0.00    -0.274 OA
ATOM      5  H   UNL     1      -2.459  -1.832   0.176  0.00  0.00    +0.155 HD
BRANCH   2  11
ATOM      6  C   UNL     1      -3.222  -4.316   0.791  0.00  0.00    +0.141 A 
ATOM      7  C   UNL     1      -3.892  -5.523   0.908  0.00  0.00    +0.049 A 
ATOM      8  C   UNL     1      -5.267  -5.539   1.049  0.00  0.00    +0.024 A 
ATOM      9  C   UNL     1      -5.978  -4.352   1.080  0.00  0.00    +0.043 A 
ATOM     10  C   UNL     1      -5.315  -3.143   0.970  0.00  0.00    +0.047 A 
ATOM     11  C   UNL     1      -3.935  -3.120   0.828  0.00  0.00    +0.077 A 
ATOM     12 CL   UNL     1      -7.704  -4.380   1.257  0.00  0.00    -0.083 Cl
BRANCH   6  14
ATOM     13  C   UNL     1      -1.204  -5.563   0.618  0.00  0.00    +0.277 C 
ATOM     14  O   UNL     1      -1.870  -4.298   0.647  0.00  0.00    -0.493 OA
ENDBRANCH   6  14
ENDBRANCH   2  11
ENDBRANCH   1   3
BRANCH   1  15
ATOM     15  N   UNL     1      -3.664   1.505   2.091  0.00  0.00    -0.178 NA
ATOM     16  H   UNL     1      -4.370   2.022   1.673  0.00  0.00    +0.149 HD
BRANCH  15  17
ATOM     17  S   UNL     1      -3.262   1.777   3.674  0.00  0.00    +0.059 S 
ATOM     18  O   UNL     1      -4.095   2.836   4.128  0.00  0.00    -0.153 OA
ATOM     19  O   UNL     1      -3.232   0.507   4.309  0.00  0.00    -0.153 OA
BRANCH  17  20
ATOM     20  C   UNL     1      -1.611   2.391   3.695  0.00  0.00    +0.106 A 
ATOM     21  C   UNL     1      -1.381   3.755   3.706  0.00  0.00    +0.030 A 
ATOM     22  C   UNL     1      -0.088   4.239   3.722  0.00  0.00    +0.025 A 
ATOM     23  C   UNL     1       0.982   3.354   3.728  0.00  0.00    +0.037 A 
ATOM     24  C   UNL     1       0.748   1.986   3.716  0.00  0.00    -0.024 A 
ATOM     25  C   UNL     1      -0.547   1.507   3.705  0.00  0.00    +0.034 A 
ATOM     26  C   UNL     1       1.910   1.027   3.723  0.00  0.00    +0.046 C 
ATOM     27  C   UNL     1       3.074   1.629   2.935  0.00  0.00    +0.101 C 
ATOM     28  C   UNL     1       3.318   3.045   3.383  0.00  0.00    +0.218 C 
ATOM     29  O   UNL     1       4.452   3.475   3.419  0.00  0.00    -0.275 OA
ATOM     30  N   UNL     1       2.294   3.838   3.745  0.00  0.00    -0.285 N 
ATOM     31  H   UNL     1       2.467   4.753   4.019  0.00  0.00    +0.155 HD
ENDBRANCH  17  20
ENDBRANCH  15  17
ENDBRANCH   1  15
BRANCH   1  32
ATOM     32  C   UNL     1      -2.809   0.946  -0.131  0.00  0.00    +0.065 C 
BRANCH  32  33
ATOM     33  C   UNL     1      -1.958   2.188  -0.180  0.00  0.00    -0.045 A 
ATOM     34  C   UNL     1      -0.580   2.081  -0.219  0.00  0.00    +0.004 A 
ATOM     35  C   UNL     1       0.201   3.221  -0.270  0.00  0.00    +0.000 A 
ATOM     36  C   UNL     1      -0.396   4.468  -0.276  0.00  0.00    +0.000 A 
ATOM     37  C   UNL     1      -1.774   4.575  -0.233  0.00  0.00    +0.000 A 
ATOM     38  C   UNL     1      -2.554   3.435  -0.182  0.00  0.00    +0.004 A 
ENDBRANCH  32  33
ENDBRANCH   1  32
TORSDOF 8
