REMARK  Name = ZINC06198125
REMARK  13 active torsions:
REMARK  status: ('A' for Active; 'I' for Inactive)
REMARK    1  A    between atoms: C_1  and  C_2
REMARK    2  A    between atoms: C_2  and  C_3
REMARK    3  A    between atoms: C_10  and  C_15
REMARK    4  A    between atoms: C_15  and  C_17
REMARK    5  A    between atoms: C_15  and  N_69
REMARK    6  A    between atoms: N_21  and  C_22
REMARK    7  A    between atoms: C_22  and  C_23
REMARK    8  A    between atoms: C_22  and  C_24
REMARK    9  A    between atoms: C_22  and  C_25
REMARK   10  A    between atoms: C_26  and  C_27
REMARK   11  A    between atoms: C_26  and  N_69
REMARK   12  A    between atoms: C_34  and  C_35
REMARK   13  A    between atoms: C_34  and  N_69
REMARK                            x       y       z     vdW  Elec       q    Type
REMARK                         _______ _______ _______ _____ _____    ______ ____
ROOT
ATOM      1  C   UNL     1       3.348   0.853  -0.789  0.00  0.00    +0.040 C 
ENDROOT
BRANCH   1   9
ATOM      2  C   UNL     1       6.216   2.095  -6.129  0.00  0.00    -0.047 A 
ATOM      3  C   UNL     1       5.518   3.261  -6.413  0.00  0.00    +0.005 A 
ATOM      4  C   UNL     1       4.544   3.725  -5.555  0.00  0.00    +0.026 A 
ATOM      5  C   UNL     1       4.257   3.019  -4.391  0.00  0.00    +0.049 A 
ATOM      6  C   UNL     1       4.966   1.837  -4.107  0.00  0.00    -0.001 A 
ATOM      7  C   UNL     1       5.950   1.385  -4.992  0.00  0.00    +0.013 A 
ATOM      8  C   UNL     1       4.656   1.101  -2.880  0.00  0.00    +0.017 A 
ATOM      9  C   UNL     1       3.692   1.586  -2.059  0.00  0.00    +0.011 A 
ATOM     10  C   UNL     1       3.005   2.773  -2.394  0.00  0.00    +0.251 A 
ATOM     11  O   UNL     1       2.139   3.190  -1.645  0.00  0.00    -0.268 OA
ATOM     12  N   UNL     1       3.287   3.459  -3.515  0.00  0.00    -0.322 N 
ATOM     13  H   UNL     1       2.786   4.301  -3.717  0.00  0.00    +0.169 HD
BRANCH   2  15
ATOM     14  C   UNL     1       6.643   0.676  -8.117  0.00  0.00    +0.009 C 
ATOM     15  C   UNL     1       7.276   1.608  -7.082  0.00  0.00    +0.032 C 
ENDBRANCH   2  15
ENDBRANCH   1   9
BRANCH   1  16
ATOM     16  C   UNL     1       1.911   0.400  -0.843  0.00  0.00    +0.143 A 
ATOM     17  N   UNL     1       0.849   1.142  -0.646  0.00  0.00    -0.115 NA
ATOM     18  N   UNL     1      -0.190   0.392  -0.778  0.00  0.00    -0.023 NA
ATOM     19  N   UNL     1       0.182  -0.809  -1.054  0.00  0.00    -0.043 NA
ATOM     20  N   UNL     1       1.470  -0.845  -1.103  0.00  0.00    -0.225 N 
BRANCH  20  21
ATOM     21  C   UNL     1       2.298  -2.019  -1.387  0.00  0.00    +0.059 C 
ATOM     22  C   UNL     1       1.398  -3.204  -1.744  0.00  0.00    +0.036 C 
ATOM     23  C   UNL     1       3.229  -1.715  -2.563  0.00  0.00    +0.036 C 
ATOM     24  C   UNL     1       3.133  -2.366  -0.153  0.00  0.00    +0.036 C 
ENDBRANCH  20  21
ENDBRANCH   1  16
BRANCH   1  25
ATOM     25  N   UNL     1       3.514   1.768   0.360  0.00  0.00    +0.397 N 
ATOM     26  H   UNL     1       2.743   2.447   0.360  0.00  0.00    -0.079 HD
BRANCH  25  27
ATOM     27  C   UNL     1       4.795   2.496   0.245  0.00  0.00    -0.041 C 
BRANCH  27  28
ATOM     28  C   UNL     1       4.866   3.532   1.337  0.00  0.00    -0.064 A 
ATOM     29  C   UNL     1       4.260   4.762   1.163  0.00  0.00    +0.004 A 
ATOM     30  C   UNL     1       4.321   5.711   2.166  0.00  0.00    +0.038 A 
ATOM     31  C   UNL     1       4.998   5.433   3.341  0.00  0.00    +0.123 A 
ATOM     32  C   UNL     1       5.609   4.203   3.512  0.00  0.00    +0.038 A 
ATOM     33  C   UNL     1       5.543   3.253   2.510  0.00  0.00    +0.004 A 
ATOM     34  F   UNL     1       5.062   6.362   4.320  0.00  0.00    -0.205 F 
ENDBRANCH  27  28
ENDBRANCH  25  27
BRANCH  25  35
ATOM     35  C   UNL     1       3.479   1.003   1.624  0.00  0.00    -0.001 C 
BRANCH  35  36
ATOM     36  C   UNL     1       2.041   0.746   1.993  0.00  0.00    +0.089 A 
ATOM     37  C   UNL     1       1.353  -0.382   1.741  0.00  0.00    +0.042 A 
ATOM     38  C   UNL     1       0.050  -0.191   2.255  0.00  0.00    +0.041 A 
ATOM     39  C   UNL     1       0.019   1.043   2.791  0.00  0.00    +0.195 A 
ATOM     40  O   UNL     1       1.229   1.603   2.634  0.00  0.00    -0.470 OA
ENDBRANCH  35  36
ENDBRANCH  25  35
ENDBRANCH   1  25
TORSDOF 9
