REMARK  Name = ZINC13064830
REMARK  11 active torsions:
REMARK  status: ('A' for Active; 'I' for Inactive)
REMARK    1  A    between atoms: C_1  and  C_2
REMARK    2  A    between atoms: C_2  and  C_3
REMARK    3  A    between atoms: C_3  and  C_5
REMARK    4  A    between atoms: C_3  and  N_72
REMARK    5  A    between atoms: N_9  and  C_10
REMARK    6  A    between atoms: C_16  and  C_17
REMARK    7  A    between atoms: C_16  and  N_72
REMARK    8  A    between atoms: C_23  and  C_24
REMARK    9  A    between atoms: C_23  and  N_72
REMARK   10  A    between atoms: C_27  and  C_37
REMARK   11  A    between atoms: C_29  and  C_36
REMARK                            x       y       z     vdW  Elec       q    Type
REMARK                         _______ _______ _______ _____ _____    ______ ____
ROOT
ATOM      1  N   UNL     1       4.114  -0.608  -1.549  0.00  0.00    +0.392 N 
ATOM      2  H   UNL     1       4.066   0.376  -1.839  0.00  0.00    -0.080 HD
ENDROOT
BRANCH   1   3
ATOM      3  C   UNL     1       5.379  -1.192  -2.042  0.00  0.00    +0.003 C 
BRANCH   3   4
ATOM      4  C   UNL     1       5.403  -2.679  -1.800  0.00  0.00    +0.138 A 
ATOM      5  N   UNL     1       4.458  -3.537  -2.101  0.00  0.00    -0.115 NA
ATOM      6  N   UNL     1       4.853  -4.708  -1.738  0.00  0.00    -0.023 NA
ATOM      7  N   UNL     1       6.026  -4.621  -1.214  0.00  0.00    -0.044 NA
ATOM      8  N   UNL     1       6.401  -3.387  -1.239  0.00  0.00    -0.228 N 
BRANCH   8   9
ATOM      9  C   UNL     1       7.674  -2.854  -0.746  0.00  0.00    +0.111 C 
ATOM     10  C   UNL     1       8.829  -3.508  -1.506  0.00  0.00    +0.027 C 
ATOM     11  C   UNL     1      10.158  -2.953  -0.991  0.00  0.00    +0.002 C 
ATOM     12  C   UNL     1      10.294  -3.257   0.502  0.00  0.00    +0.000 C 
ATOM     13  C   UNL     1       9.139  -2.603   1.263  0.00  0.00    +0.002 C 
ATOM     14  C   UNL     1       7.810  -3.159   0.748  0.00  0.00    +0.027 C 
ENDBRANCH   8   9
ENDBRANCH   3   4
BRANCH   3  16
ATOM     15  C   UNL     1       5.563   0.593  -3.780  0.00  0.00    +0.002 C 
ATOM     16  C   UNL     1       5.499  -0.917  -3.542  0.00  0.00    -0.011 C 
ENDBRANCH   3  16
ENDBRANCH   1   3
BRANCH   1  17
ATOM     17  C   UNL     1       4.066  -0.676  -0.074  0.00  0.00    -0.042 C 
BRANCH  17  18
ATOM     18  C   UNL     1       4.936   0.419   0.489  0.00  0.00    -0.064 A 
ATOM     19  C   UNL     1       4.435   1.700   0.620  0.00  0.00    +0.002 A 
ATOM     20  C   UNL     1       5.233   2.705   1.135  0.00  0.00    +0.000 A 
ATOM     21  C   UNL     1       6.532   2.427   1.520  0.00  0.00    +0.000 A 
ATOM     22  C   UNL     1       7.032   1.145   1.389  0.00  0.00    +0.000 A 
ATOM     23  C   UNL     1       6.235   0.141   0.873  0.00  0.00    +0.002 A 
ENDBRANCH  17  18
ENDBRANCH   1  17
BRANCH   1  24
ATOM     24  C   UNL     1       2.963  -1.334  -2.126  0.00  0.00    -0.036 C 
BRANCH  24  25
ATOM     25  C   UNL     1       1.739  -0.462  -2.019  0.00  0.00    +0.001 A 
ATOM     26  C   UNL     1       1.408   0.365  -3.042  0.00  0.00    +0.017 A 
ATOM     27  C   UNL     1       0.212   1.199  -2.907  0.00  0.00    +0.002 A 
ATOM     28  C   UNL     1      -0.180   2.071  -3.927  0.00  0.00    -0.041 A 
ATOM     29  C   UNL     1      -1.301   2.836  -3.771  0.00  0.00    +0.007 A 
ATOM     30  C   UNL     1      -2.055   2.756  -2.607  0.00  0.00    -0.048 A 
ATOM     31  C   UNL     1      -1.687   1.904  -1.589  0.00  0.00    +0.029 A 
ATOM     32  C   UNL     1      -0.549   1.115  -1.726  0.00  0.00    +0.050 A 
ATOM     33  N   UNL     1      -0.158   0.253  -0.723  0.00  0.00    -0.322 N 
ATOM     34  H   UNL     1      -0.684   0.196   0.090  0.00  0.00    +0.169 HD
ATOM     35  C   UNL     1       0.938  -0.513  -0.858  0.00  0.00    +0.251 A 
ATOM     36  O   UNL     1       1.251  -1.268   0.046  0.00  0.00    -0.268 OA
ATOM     37  C   UNL     1      -3.288   3.609  -2.457  0.00  0.00    +0.044 C 
ATOM     38  C   UNL     1       0.630   2.167  -5.194  0.00  0.00    +0.044 C 
ENDBRANCH  24  25
ENDBRANCH   1  24
TORSDOF 8
