REMARK  Name = ZINC21022897
REMARK  7 active torsions:
REMARK  status: ('A' for Active; 'I' for Inactive)
REMARK    1  A    between atoms: C_1  and  C_2
REMARK    2  A    between atoms: C_5  and  C_33
REMARK    3  A    between atoms: C_6  and  N_8
REMARK    4  A    between atoms: C_9  and  C_11
REMARK    5  A    between atoms: C_16  and  S_24
REMARK    6  A    between atoms: C_21  and  C_23
REMARK    7  A    between atoms: S_24  and  N_27
REMARK                            x       y       z     vdW  Elec       q    Type
REMARK                         _______ _______ _______ _____ _____    ______ ____
ROOT
ATOM      1  C   UNL     1      -3.780   5.895   0.281  0.00  0.00    +0.172 C 
ATOM      2  C   UNL     1      -4.275   5.852   1.736  0.00  0.00    +0.069 C 
ATOM      3  C   UNL     1      -4.348   7.303   2.156  0.00  0.00    -0.022 A 
ATOM      4  C   UNL     1      -4.726   7.881   3.353  0.00  0.00    +0.034 A 
ATOM      5  C   UNL     1      -4.708   9.256   3.496  0.00  0.00    +0.106 A 
ATOM      6  C   UNL     1      -4.311  10.052   2.437  0.00  0.00    +0.030 A 
ATOM      7  C   UNL     1      -3.934   9.480   1.241  0.00  0.00    +0.026 A 
ATOM      8  C   UNL     1      -3.949   8.092   1.089  0.00  0.00    +0.040 A 
ATOM      9  N   UNL     1      -3.609   7.318  -0.027  0.00  0.00    -0.259 N 
ATOM     10  C   UNL     1      -3.186   7.807  -1.209  0.00  0.00    +0.217 C 
ATOM     11  O   UNL     1      -2.986   8.996  -1.337  0.00  0.00    -0.276 OA
ATOM     12  C   UNL     1      -2.961   6.876  -2.373  0.00  0.00    +0.109 C 
ENDROOT
BRANCH   1  14
ATOM     13  N   UNL     1      -2.441   3.828   0.049  0.00  0.00    -0.284 N 
ATOM     14  C   UNL     1      -2.464   5.171   0.155  0.00  0.00    +0.238 C 
ATOM     15  O   UNL     1      -1.425   5.798   0.148  0.00  0.00    -0.273 OA
ATOM     16  H   UNL     1      -3.384   3.267  -0.036  0.00  0.00    +0.155 HD
BRANCH  13  22
ATOM     17  C   UNL     1       2.311   3.660   1.299  0.00  0.00    +0.044 C 
ATOM     18  C   UNL     1       1.101   3.042   0.647  0.00  0.00    -0.049 A 
ATOM     19  C   UNL     1       1.198   1.800   0.047  0.00  0.00    +0.004 A 
ATOM     20  C   UNL     1       0.090   1.230  -0.553  0.00  0.00    +0.005 A 
ATOM     21  C   UNL     1      -1.117   1.902  -0.558  0.00  0.00    -0.029 A 
ATOM     22  C   UNL     1      -1.219   3.147   0.049  0.00  0.00    +0.037 A 
ATOM     23  C   UNL     1      -0.104   3.717   0.650  0.00  0.00    +0.027 A 
ATOM     24  C   UNL     1      -2.322   1.282  -1.217  0.00  0.00    +0.045 C 
ENDBRANCH  13  22
ENDBRANCH   1  14
BRANCH   5  25
ATOM     25  S   UNL     1      -5.190   9.992   5.022  0.00  0.00    +0.061 S 
ATOM     26  O   UNL     1      -5.607  11.317   4.721  0.00  0.00    -0.153 OA
ATOM     27  O   UNL     1      -6.038   9.056   5.674  0.00  0.00    -0.153 OA
BRANCH  25  28
ATOM     28  N   UNL     1      -3.828  10.125   5.954  0.00  0.00    -0.177 NA
ATOM     29  C   UNL     1      -3.434   9.040   6.863  0.00  0.00    +0.109 C 
ATOM     30  C   UNL     1      -1.981   8.648   6.557  0.00  0.00    +0.017 C 
ATOM     31  C   UNL     1      -1.094   9.893   6.643  0.00  0.00    +0.003 C 
ATOM     32  C   UNL     1      -1.547  10.917   5.599  0.00  0.00    +0.017 C 
ATOM     33  C   UNL     1      -2.993  11.332   5.891  0.00  0.00    +0.109 C 
ENDBRANCH  25  28
ENDBRANCH   5  25
TORSDOF 4
