REMARK  Name = ZINC62720677
REMARK  3 active torsions:
REMARK  status: ('A' for Active; 'I' for Inactive)
REMARK    1  A    between atoms: C_1  and  C_2
REMARK    2  A    between atoms: C_2  and  C_3
REMARK    3  A    between atoms: C_3  and  N_4
REMARK                            x       y       z     vdW  Elec       q    Type
REMARK                         _______ _______ _______ _____ _____    ______ ____
ROOT
ATOM      1  N   UNL     1      -1.413  -1.998   0.005  0.00  0.00    -0.269 N 
ATOM      2  C   UNL     1      -1.408  -2.766  -1.147  0.00  0.00    +0.042 A 
ATOM      3  C   UNL     1      -1.424  -2.360  -2.482  0.00  0.00    +0.024 A 
ATOM      4  C   UNL     1      -1.414  -3.355  -3.447  0.00  0.00    +0.002 A 
ATOM      5  C   UNL     1      -1.389  -4.694  -3.116  0.00  0.00    +0.000 A 
ATOM      6  C   UNL     1      -1.374  -5.112  -1.790  0.00  0.00    +0.008 A 
ATOM      7  C   UNL     1      -1.385  -4.129  -0.824  0.00  0.00    +0.011 A 
ATOM      8  C   UNL     1      -1.379  -4.203   0.669  0.00  0.00    +0.172 C 
ATOM      9  C   UNL     1      -1.392  -2.759   1.120  0.00  0.00    +0.253 C 
ATOM     10  O   UNL     1      -1.387  -2.361   2.265  0.00  0.00    -0.272 OA
ATOM     11  C   UNL     1      -0.193  -4.927   1.204  0.00  0.00    +0.084 A 
ATOM     12  C   UNL     1       1.246  -4.698   1.032  0.00  0.00    +0.199 A 
ATOM     13  O   UNL     1       1.704  -3.703   0.499  0.00  0.00    -0.287 OA
ATOM     14  C   UNL     1       2.092  -5.793   1.570  0.00  0.00    +0.064 A 
ATOM     15  C   UNL     1       3.464  -5.814   1.320  0.00  0.00    +0.015 A 
ATOM     16  C   UNL     1       4.229  -6.831   1.819  0.00  0.00    +0.001 A 
ATOM     17  C   UNL     1       3.645  -7.841   2.571  0.00  0.00    +0.004 A 
ATOM     18  C   UNL     1       2.293  -7.835   2.829  0.00  0.00    +0.047 A 
ATOM     19  C   UNL     1       1.491  -6.806   2.335  0.00  0.00    +0.139 A 
ATOM     20  O   UNL     1       0.168  -6.814   2.611  0.00  0.00    -0.450 OA
ATOM     21  C   UNL     1      -0.654  -5.963   1.968  0.00  0.00    +0.200 A 
ATOM     22  C   UNL     1      -2.128  -5.941   1.935  0.00  0.00    +0.281 C 
ATOM     23  O   UNL     1      -2.849  -6.734   2.508  0.00  0.00    -0.267 OA
ATOM     24  N   UNL     1      -2.559  -4.912   1.175  0.00  0.00    -0.287 N 
ATOM     25  H   UNL     1      -3.484  -4.682   0.997  0.00  0.00    +0.151 HD
ENDROOT
BRANCH   1  26
ATOM     26  C   UNL     1      -1.433  -0.534   0.013  0.00  0.00    +0.113 C 
BRANCH  26  28
ATOM     27  C   UNL     1      -0.019   1.526   0.010  0.00  0.00    +0.005 C 
ATOM     28  C   UNL     1       0.002  -0.004   0.002  0.00  0.00    +0.016 C 
ENDBRANCH  26  28
ENDBRANCH   1  26
TORSDOF 2
