REMARK  Name = ZINC14584320
REMARK  10 active torsions:
REMARK  status: ('A' for Active; 'I' for Inactive)
REMARK    1  A    between atoms: C_1  and  C_2
REMARK    2  A    between atoms: C_2  and  N_3
REMARK    3  A    between atoms: N_3  and  C_4
REMARK    4  A    between atoms: C_5  and  N_20
REMARK    5  A    between atoms: N_6  and  C_13
REMARK    6  A    between atoms: C_13  and  C_14
REMARK    7  A    between atoms: C_21  and  C_23
REMARK    8  A    between atoms: C_26  and  N_29
REMARK    9  A    between atoms: C_30  and  C_35
REMARK   10  A    between atoms: C_33  and  C_34
REMARK                            x       y       z     vdW  Elec       q    Type
REMARK                         _______ _______ _______ _____ _____    ______ ____
ROOT
ATOM      1  C   UNL     1      -6.544  -4.135   1.068  0.00  0.00    +0.140 A 
ATOM      2  C   UNL     1      -7.488  -4.063   0.064  0.00  0.00    +0.128 A 
ATOM      3  N   UNL     1      -8.590  -4.885   0.118  0.00  0.00    -0.276 N 
ATOM      4  C   UNL     1      -8.751  -5.741   1.143  0.00  0.00    +0.331 A 
ATOM      5  O   UNL     1      -9.734  -6.456   1.175  0.00  0.00    -0.246 OA
ATOM      6  N   UNL     1      -7.844  -5.822   2.133  0.00  0.00    -0.273 N 
ATOM      7  H   UNL     1      -7.988  -6.467   2.883  0.00  0.00    +0.173 HD
ATOM      8  C   UNL     1      -6.745  -5.043   2.125  0.00  0.00    +0.277 A 
ATOM      9  O   UNL     1      -5.929  -5.123   3.028  0.00  0.00    -0.266 OA
ENDROOT
BRANCH   1  10
ATOM     10  N   UNL     1      -5.401  -3.309   1.038  0.00  0.00    -0.260 N 
ATOM     11  C   UNL     1      -4.498  -3.444   0.047  0.00  0.00    +0.251 C 
ATOM     12  O   UNL     1      -3.473  -2.789   0.065  0.00  0.00    -0.270 OA
BRANCH  11  13
ATOM     13  C   UNL     1      -4.754  -4.385  -1.062  0.00  0.00    +0.037 A 
ATOM     14  C   UNL     1      -4.207  -4.145  -2.325  0.00  0.00    +0.015 A 
ATOM     15  C   UNL     1      -4.447  -5.025  -3.356  0.00  0.00    +0.027 A 
ATOM     16  C   UNL     1      -5.234  -6.151  -3.142  0.00  0.00    +0.047 A 
ATOM     17  C   UNL     1      -5.785  -6.391  -1.888  0.00  0.00    +0.027 A 
ATOM     18  C   UNL     1      -5.544  -5.518  -0.850  0.00  0.00    +0.015 A 
BRANCH  16  19
ATOM     19  N   UNL     1      -5.476  -7.042  -4.192  0.00  0.00    -0.318 N 
ATOM     20  C   UNL     1      -5.054  -8.341  -4.249  0.00  0.00    +0.021 A 
ATOM     21  C   UNL     1      -5.482  -8.872  -5.411  0.00  0.00    +0.023 A 
ATOM     22  C   UNL     1      -6.194  -7.868  -6.099  0.00  0.00    +0.023 A 
ATOM     23  C   UNL     1      -6.176  -6.760  -5.332  0.00  0.00    +0.021 A 
ATOM     24  C   UNL     1      -6.814  -5.438  -5.672  0.00  0.00    +0.064 C 
ATOM     25  C   UNL     1      -4.244  -9.053  -3.196  0.00  0.00    +0.064 C 
ENDBRANCH  16  19
ENDBRANCH  11  13
BRANCH  10  27
ATOM     26  C   UNL     1      -5.944  -1.024   1.718  0.00  0.00    +0.025 C 
ATOM     27  C   UNL     1      -5.195  -2.306   2.086  0.00  0.00    +0.111 C 
ENDBRANCH  10  27
ENDBRANCH   1  10
BRANCH   2  28
ATOM     28  N   UNL     1      -7.327  -3.184  -0.981  0.00  0.00    -0.343 N 
ATOM     29  H   UNL     1      -6.516  -2.656  -1.049  0.00  0.00    +0.144 HD
ATOM     30  H   UNL     1      -8.024  -3.093  -1.649  0.00  0.00    +0.144 HD
ENDBRANCH   2  28
BRANCH   3  31
ATOM     31  C   UNL     1      -9.598  -4.822  -0.944  0.00  0.00    +0.163 C 
BRANCH  31  32
ATOM     32  C   UNL     1     -10.646  -3.801  -0.582  0.00  0.00    -0.028 A 
ATOM     33  C   UNL     1     -11.765  -4.183   0.133  0.00  0.00    +0.005 A 
ATOM     34  C   UNL     1     -12.724  -3.245   0.469  0.00  0.00    +0.000 A 
ATOM     35  C   UNL     1     -12.568  -1.928   0.080  0.00  0.00    +0.000 A 
ATOM     36  C   UNL     1     -11.451  -1.547  -0.639  0.00  0.00    +0.000 A 
ATOM     37  C   UNL     1     -10.490  -2.484  -0.970  0.00  0.00    +0.005 A 
ENDBRANCH  31  32
ENDBRANCH   3  31
TORSDOF 7
