REMARK  Name = ZINC40916388
REMARK  7 active torsions:
REMARK  status: ('A' for Active; 'I' for Inactive)
REMARK    1  A    between atoms: C_1  and  C_2
REMARK    2  A    between atoms: C_2  and  C_3
REMARK    3  A    between atoms: C_2  and  O_4
REMARK    4  A    between atoms: O_4  and  C_5
REMARK    5  A    between atoms: C_9  and  C_11
REMARK    6  A    between atoms: C_16  and  C_20
REMARK    7  A    between atoms: C_16  and  C_21
REMARK                            x       y       z     vdW  Elec       q    Type
REMARK                         _______ _______ _______ _____ _____    ______ ____
ROOT
ATOM      1  C   UNL     1       0.543  -1.450   5.940  0.00  0.00    +0.176 C 
ATOM      2  C   UNL     1       0.340  -0.349   6.958  0.00  0.00    +0.041 C 
ATOM      3  C   UNL     1      -0.512  -0.481   7.997  0.00  0.00    +0.020 C 
ATOM      4  C   UNL     1      -0.707   0.643   8.987  0.00  0.00    +0.058 C 
ATOM      5  C   UNL     1       0.592   1.440   9.123  0.00  0.00    -0.023 C 
ATOM      6  C   UNL     1       0.972   1.982   7.741  0.00  0.00    +0.086 C 
ATOM      7  C   UNL     1       1.083   0.831   6.779  0.00  0.00    +0.164 C 
ATOM      8  O   UNL     1       1.831   0.924   5.826  0.00  0.00    -0.292 OA
ATOM      9  C   UNL     1       0.383   2.604  10.093  0.00  0.00    +0.011 C 
ATOM     10  C   UNL     1       1.704   0.527   9.643  0.00  0.00    +0.011 C 
ATOM     11  N   UNL     1      -1.231  -1.634   8.204  0.00  0.00    -0.287 N 
ATOM     12  C   UNL     1      -0.858  -2.768   7.502  0.00  0.00    +0.218 A 
ATOM     13  N   UNL     1      -0.023  -2.698   6.439  0.00  0.00    -0.221 N 
ATOM     14  N   UNL     1       0.143  -4.004   5.982  0.00  0.00    -0.156 NA
ATOM     15  C   UNL     1      -0.580  -4.771   6.761  0.00  0.00    +0.247 A 
ATOM     16  N   UNL     1      -1.184  -4.019   7.678  0.00  0.00    -0.201 NA
ATOM     17  H   UNL     1      -1.978  -1.653   8.823  0.00  0.00    +0.155 HD
ENDROOT
BRANCH   1  22
ATOM     18  C   UNL     1      -0.031  -0.600   2.303  0.00  0.00    +0.121 A 
ATOM     19  C   UNL     1      -1.400  -0.376   2.286  0.00  0.00    +0.045 A 
ATOM     20  C   UNL     1      -2.133  -0.502   3.450  0.00  0.00    +0.004 A 
ATOM     21  C   UNL     1      -1.504  -0.850   4.631  0.00  0.00    +0.006 A 
ATOM     22  C   UNL     1      -0.140  -1.072   4.651  0.00  0.00    -0.015 A 
ATOM     23  C   UNL     1       0.597  -0.954   3.489  0.00  0.00    +0.051 A 
BRANCH  18  24
ATOM     24  O   UNL     1       0.693  -0.477   1.160  0.00  0.00    -0.489 OA
BRANCH  24  26
ATOM     25  C   UNL     1      -0.292   1.273  -0.184  0.00  0.00    +0.051 C 
ATOM     26  C   UNL     1      -0.034  -0.229  -0.045  0.00  0.00    +0.167 C 
ATOM     27  C   UNL     1       0.781  -0.720  -1.243  0.00  0.00    +0.051 C 
ENDBRANCH  24  26
ENDBRANCH  18  24
ENDBRANCH   1  22
TORSDOF 3
