REMARK  Name = ZINC02434200
REMARK  5 active torsions:
REMARK  status: ('A' for Active; 'I' for Inactive)
REMARK    1  A    between atoms: N_13  and  C_16
REMARK    2  A    between atoms: C_16  and  C_17
REMARK    3  A    between atoms: C_17  and  C_18
REMARK    4  A    between atoms: N_24  and  N_27
REMARK    5  A    between atoms: C_28  and  C_29
REMARK                            x       y       z     vdW  Elec       q    Type
REMARK                         _______ _______ _______ _____ _____    ______ ____
ROOT
ATOM      1  C   UNL     1       4.334  -2.429   5.164  0.00  0.00    +0.002 A 
ATOM      2  C   UNL     1       3.174  -1.780   5.583  0.00  0.00    +0.002 A 
ATOM      3  C   UNL     1       2.284  -1.282   4.682  0.00  0.00    +0.030 A 
ATOM      4  C   UNL     1       2.533  -1.421   3.305  0.00  0.00    +0.092 A 
ATOM      5  C   UNL     1       3.714  -2.082   2.878  0.00  0.00    +0.090 A 
ATOM      6  C   UNL     1       4.610  -2.583   3.840  0.00  0.00    +0.030 A 
ATOM      7  N   UNL     1       3.963  -2.220   1.573  0.00  0.00    -0.241 NA
ATOM      8  C   UNL     1       3.106  -1.741   0.689  0.00  0.00    +0.125 A 
ATOM      9  C   UNL     1       3.074  -1.722  -0.779  0.00  0.00    +0.113 A 
ATOM     10  C   UNL     1       1.893  -1.068  -1.150  0.00  0.00    +0.172 A 
ATOM     11  N   UNL     1       1.624  -0.910  -2.456  0.00  0.00    -0.217 NA
ATOM     12  C   UNL     1       2.431  -1.361  -3.376  0.00  0.00    +0.204 A 
ATOM     13  N   UNL     1       3.585  -2.006  -3.077  0.00  0.00    -0.298 N 
ATOM     14  C   UNL     1       3.937  -2.204  -1.787  0.00  0.00    +0.265 A 
ATOM     15  O   UNL     1       4.971  -2.783  -1.502  0.00  0.00    -0.267 OA
ATOM     16  N   UNL     1       1.225  -0.688  -0.013  0.00  0.00    -0.194 N 
ATOM     17  C   UNL     1       1.922  -1.079   1.114  0.00  0.00    +0.183 A 
ATOM     18  N   UNL     1       1.672  -0.940   2.402  0.00  0.00    -0.224 NA
ENDROOT
BRANCH  16  19
ATOM     19  N   UNL     1       0.002  -0.004   0.002  0.00  0.00    -0.171 NA
ATOM     20  C   UNL     1      -0.015   1.294   0.009  0.00  0.00    +0.141 C 
BRANCH  20  21
ATOM     21  C   UNL     1      -1.302   2.013   0.019  0.00  0.00    -0.005 A 
ATOM     22  C   UNL     1      -2.505   1.302   0.015  0.00  0.00    +0.011 A 
ATOM     23  C   UNL     1      -3.705   1.981   0.030  0.00  0.00    +0.020 A 
ATOM     24  C   UNL     1      -3.720   3.366   0.037  0.00  0.00    +0.041 A 
ATOM     25  C   UNL     1      -2.532   4.077   0.036  0.00  0.00    +0.020 A 
ATOM     26  C   UNL     1      -1.325   3.410   0.027  0.00  0.00    +0.011 A 
ATOM     27 CL   UNL     1      -5.235   4.213   0.048  0.00  0.00    -0.084 Cl
ENDBRANCH  20  21
ENDBRANCH  16  19
BRANCH  13  28
ATOM     28  C   UNL     1       4.452  -2.489  -4.154  0.00  0.00    +0.130 C 
BRANCH  28  29
ATOM     29  C   UNL     1       4.050  -3.917  -4.530  0.00  0.00    +0.052 C 
BRANCH  29  30
ATOM     30  C   UNL     1       4.942  -4.415  -5.638  0.00  0.00    -0.072 C 
ATOM     31  C   UNL     1       5.983  -5.111  -5.312  0.00  0.00    -0.028 C 
ATOM     32  C   UNL     1       6.966  -5.666  -6.301  0.00  0.00    +0.027 C 
ATOM     33  C   UNL     1       6.359  -5.666  -7.705  0.00  0.00    +0.004 C 
ATOM     34  C   UNL     1       5.767  -4.277  -7.978  0.00  0.00    +0.005 C 
ATOM     35  C   UNL     1       4.564  -4.077  -7.051  0.00  0.00    +0.030 C 
ENDBRANCH  29  30
ENDBRANCH  28  29
ENDBRANCH  13  28
TORSDOF 5
