REMARK  Name = ZINC32655146
REMARK  8 active torsions:
REMARK  status: ('A' for Active; 'I' for Inactive)
REMARK    1  A    between atoms: C_1  and  O_2
REMARK    2  A    between atoms: O_2  and  C_3
REMARK    3  A    between atoms: C_7  and  C_11
REMARK    4  A    between atoms: C_8  and  O_9
REMARK    5  A    between atoms: O_9  and  C_10
REMARK    6  A    between atoms: C_18  and  S_29
REMARK    7  A    between atoms: S_29  and  C_30
REMARK    8  A    between atoms: C_30  and  C_31
REMARK                            x       y       z     vdW  Elec       q    Type
REMARK                         _______ _______ _______ _____ _____    ______ ____
ROOT
ATOM      1  C   UNL     1       2.632  -0.445   0.038  0.00  0.00    +0.096 C 
ATOM      2  C   UNL     1       3.309  -1.622   0.674  0.00  0.00    +0.069 A 
ATOM      3  C   UNL     1       2.573  -2.531   1.444  0.00  0.00    +0.258 A 
ATOM      4  O   UNL     1       1.374  -2.377   1.610  0.00  0.00    -0.267 OA
ATOM      5  N   UNL     1       3.216  -3.580   2.000  0.00  0.00    -0.302 N 
ATOM      6  H   UNL     1       2.659  -4.305   2.611  0.00  0.00    +0.171 HD
ATOM      7  C   UNL     1       4.554  -3.743   1.805  0.00  0.00    +0.171 A 
ATOM      8  N   UNL     1       5.251  -2.890   1.082  0.00  0.00    -0.208 NA
ATOM      9  C   UNL     1       4.667  -1.831   0.512  0.00  0.00    +0.135 A 
ATOM     10  N   UNL     1       5.411  -0.938  -0.235  0.00  0.00    -0.302 N 
ATOM     11  C   UNL     1       4.944   0.325  -0.478  0.00  0.00    +0.017 C 
ATOM     12  C   UNL     1       3.632   0.613  -0.356  0.00  0.00    +0.024 C 
ATOM     13  C   UNL     1       3.151   1.914  -0.592  0.00  0.00    +0.162 C 
ATOM     14  O   UNL     1       1.962   2.139  -0.484  0.00  0.00    -0.292 OA
ATOM     15  C   UNL     1       4.080   3.033  -0.975  0.00  0.00    +0.080 C 
ATOM     16  C   UNL     1       5.467   2.751  -0.388  0.00  0.00    +0.014 C 
ATOM     17  C   UNL     1       5.937   1.384  -0.890  0.00  0.00    +0.051 C 
ATOM     18  H   UNL     1       6.388  -1.240  -0.640  0.00  0.00    +0.153 HD
ENDROOT
BRANCH   1  23
ATOM     19  C   UNL     1       1.840  -2.132  -3.257  0.00  0.00    +0.162 A 
ATOM     20  C   UNL     1       0.522  -1.749  -3.448  0.00  0.00    +0.049 A 
ATOM     21  C   UNL     1      -0.105  -0.943  -2.516  0.00  0.00    +0.004 A 
ATOM     22  C   UNL     1       0.577  -0.523  -1.390  0.00  0.00    +0.008 A 
ATOM     23  C   UNL     1       1.891  -0.906  -1.190  0.00  0.00    +0.010 A 
ATOM     24  C   UNL     1       2.525  -1.713  -2.120  0.00  0.00    +0.166 A 
BRANCH  19  26
ATOM     25  C   UNL     1       1.695  -3.311  -5.317  0.00  0.00    +0.277 C 
ATOM     26  O   UNL     1       2.461  -2.920  -4.175  0.00  0.00    -0.491 OA
ENDBRANCH  19  26
BRANCH  24  27
ATOM     27  O   UNL     1       3.817  -2.091  -1.926  0.00  0.00    -0.491 OA
ATOM     28  C   UNL     1       4.045  -3.447  -1.538  0.00  0.00    +0.277 C 
ENDBRANCH  24  27
ENDBRANCH   1  23
BRANCH   7  29
ATOM     29  S   UNL     1       5.371  -5.122   2.537  0.00  0.00    -0.083 S 
BRANCH  29  30
ATOM     30  C   UNL     1       7.061  -4.830   1.960  0.00  0.00    +0.115 C 
BRANCH  30  31
ATOM     31  C   UNL     1       7.965  -5.918   2.478  0.00  0.00    -0.002 A 
ATOM     32  C   UNL     1       8.605  -5.765   3.693  0.00  0.00    +0.007 A 
ATOM     33  C   UNL     1       9.430  -6.766   4.172  0.00  0.00    +0.000 A 
ATOM     34  C   UNL     1       9.623  -7.917   3.431  0.00  0.00    +0.003 A 
ATOM     35  C   UNL     1       8.988  -8.070   2.213  0.00  0.00    +0.038 A 
ATOM     36  C   UNL     1       8.158  -7.070   1.735  0.00  0.00    +0.127 A 
ATOM     37  F   UNL     1       7.537  -7.219   0.545  0.00  0.00    -0.205 F 
ENDBRANCH  30  31
ENDBRANCH  29  30
ENDBRANCH   7  29
TORSDOF 6
