REMARK  Name = ZINC43095923
REMARK  7 active torsions:
REMARK  status: ('A' for Active; 'I' for Inactive)
REMARK    1  A    between atoms: C_1  and  C_2
REMARK    2  A    between atoms: C_2  and  C_4
REMARK    3  A    between atoms: C_2  and  N_22
REMARK    4  A    between atoms: C_4  and  C_6
REMARK    5  A    between atoms: C_4  and  S_13
REMARK    6  A    between atoms: S_13  and  C_14
REMARK    7  A    between atoms: N_18  and  C_19
REMARK                            x       y       z     vdW  Elec       q    Type
REMARK                         _______ _______ _______ _____ _____    ______ ____
ROOT
ATOM      1  C   UNL     1       0.747  -0.743   1.304  0.00  0.00    +0.071 C 
ENDROOT
BRANCH   1   2
ATOM      2  C   UNL     1       2.224  -0.454   1.223  0.00  0.00    -0.022 A 
ATOM      3  C   UNL     1       3.054  -1.294   0.503  0.00  0.00    +0.006 A 
ATOM      4  C   UNL     1       4.409  -1.029   0.429  0.00  0.00    +0.000 A 
ATOM      5  C   UNL     1       4.934   0.075   1.074  0.00  0.00    +0.001 A 
ATOM      6  C   UNL     1       4.105   0.915   1.794  0.00  0.00    +0.015 A 
ATOM      7  C   UNL     1       2.749   0.653   1.865  0.00  0.00    +0.022 A 
ATOM      8 BR   UNL     1       1.613   1.806   2.843  0.00  0.00    -0.050 Br
ENDBRANCH   1   2
BRANCH   1  10
ATOM      9  C   UNL     1       0.551  -0.535  -1.178  0.00  0.00    -0.013 C 
ATOM     10  C   UNL     1       0.024  -0.023   0.164  0.00  0.00    -0.060 C 
BRANCH  10  11
ATOM     11  N   UNL     1       0.266   1.423   0.266  0.00  0.00    +0.381 N 
ATOM     12  H   UNL     1      -0.265   1.904  -0.444  0.00  0.00    -0.090 HD
ATOM     13  H   UNL     1      -0.018   1.748   1.177  0.00  0.00    -0.090 HD
ATOM     14  H   UNL     1       1.249   1.609   0.134  0.00  0.00    -0.090 HD
ENDBRANCH  10  11
ENDBRANCH   1  10
BRANCH   1  15
ATOM     15  S   UNL     1       0.471  -2.530   1.162  0.00  0.00    -0.078 S 
BRANCH  15  16
ATOM     16  C   UNL     1      -1.236  -2.730   1.549  0.00  0.00    +0.210 A 
ATOM     17  N   UNL     1      -2.105  -1.768   1.771  0.00  0.00    -0.101 NA
ATOM     18  N   UNL     1      -3.264  -2.258   2.026  0.00  0.00    -0.022 NA
ATOM     19  N   UNL     1      -3.224  -3.546   1.987  0.00  0.00    -0.043 NA
ATOM     20  N   UNL     1      -1.902  -3.903   1.669  0.00  0.00    -0.217 N 
BRANCH  20  21
ATOM     21  C   UNL     1      -1.360  -5.254   1.504  0.00  0.00    +0.112 C 
ATOM     22  C   UNL     1      -2.354  -6.417   1.491  0.00  0.00    +0.029 C 
ATOM     23  C   UNL     1      -1.446  -6.200   2.703  0.00  0.00    +0.029 C 
ENDBRANCH  20  21
ENDBRANCH  15  16
ENDBRANCH   1  15
TORSDOF 6
