REMARK  Name = ZINC35158872
REMARK  11 active torsions:
REMARK  status: ('A' for Active; 'I' for Inactive)
REMARK    1  A    between atoms: C_1  and  C_2
REMARK    2  A    between atoms: C_3  and  C_24
REMARK    3  A    between atoms: N_6  and  C_23
REMARK    4  A    between atoms: C_7  and  S_9
REMARK    5  A    between atoms: S_9  and  C_10
REMARK    6  A    between atoms: C_10  and  C_12
REMARK    7  A    between atoms: C_10  and  C_13
REMARK    8  A    between atoms: N_15  and  C_16
REMARK    9  A    between atoms: C_16  and  C_17
REMARK   10  A    between atoms: C_17  and  N_18
REMARK   11  A    between atoms: C_24  and  C_25
REMARK                            x       y       z     vdW  Elec       q    Type
REMARK                         _______ _______ _______ _____ _____    ______ ____
ROOT
ATOM      1  C   UNL     1      -0.018   1.503   0.010  0.00  0.00    +0.066 C 
ATOM      2  C   UNL     1       0.002  -0.004   0.002  0.00  0.00    +0.050 A 
ATOM      3  C   UNL     1      -1.171  -0.701   0.004  0.00  0.00    +0.042 A 
ATOM      4  C   UNL     1      -1.128  -2.107  -0.004  0.00  0.00    +0.258 A 
ATOM      5  O   UNL     1      -2.158  -2.761  -0.004  0.00  0.00    -0.267 OA
ATOM      6  N   UNL     1       0.076  -2.718  -0.014  0.00  0.00    -0.291 N 
ATOM      7  C   UNL     1       1.214  -1.970  -0.015  0.00  0.00    +0.172 A 
ATOM      8  N   UNL     1       1.164  -0.652  -0.013  0.00  0.00    -0.228 NA
ATOM      9  C   UNL     1       0.157  -4.181  -0.022  0.00  0.00    +0.154 C 
ENDROOT
BRANCH   7  10
ATOM     10  S   UNL     1       2.781  -2.777  -0.027  0.00  0.00    -0.075 S 
BRANCH  10  11
ATOM     11  C   UNL     1       3.977  -1.414  -0.025  0.00  0.00    +0.137 C 
ATOM     12  C   UNL     1       3.849  -0.621  -1.328  0.00  0.00    +0.029 C 
BRANCH  11  13
ATOM     13  C   UNL     1       5.373  -1.970   0.089  0.00  0.00    +0.226 C 
ATOM     14  O   UNL     1       5.607  -3.100  -0.283  0.00  0.00    -0.275 OA
ATOM     15  N   UNL     1       6.360  -1.212   0.605  0.00  0.00    -0.316 N 
ATOM     16  H   UNL     1       6.173  -0.308   0.902  0.00  0.00    +0.149 HD
BRANCH  15  17
ATOM     17  C   UNL     1       7.717  -1.752   0.716  0.00  0.00    +0.085 C 
BRANCH  17  18
ATOM     18  C   UNL     1       8.639  -0.696   1.328  0.00  0.00    -0.060 C 
BRANCH  18  19
ATOM     19  N   UNL     1       9.999  -1.238   1.440  0.00  0.00    +0.381 N 
ATOM     20  C   UNL     1      10.591  -1.418   0.089  0.00  0.00    -0.079 C 
ATOM     21  C   UNL     1      12.115  -1.431   0.369  0.00  0.00    -0.020 C 
ATOM     22  C   UNL     1      12.270  -0.379   1.491  0.00  0.00    -0.020 C 
ATOM     23  C   UNL     1      10.877  -0.275   2.139  0.00  0.00    -0.079 C 
ATOM     24  H   UNL     1       9.985  -2.118   1.934  0.00  0.00    -0.082 HD
ENDBRANCH  18  19
ENDBRANCH  17  18
ENDBRANCH  15  17
ENDBRANCH  11  13
ENDBRANCH  10  11
ENDBRANCH   7  10
BRANCH   3  25
ATOM     25  C   UNL     1      -2.493   0.023   0.015  0.00  0.00    +0.077 C 
BRANCH  25  26
ATOM     26  C   UNL     1      -3.000   0.165  -1.397  0.00  0.00    -0.043 A 
ATOM     27  C   UNL     1      -2.655   1.274  -2.147  0.00  0.00    +0.005 A 
ATOM     28  C   UNL     1      -3.119   1.404  -3.443  0.00  0.00    +0.015 A 
ATOM     29  C   UNL     1      -3.930   0.424  -3.988  0.00  0.00    +0.018 A 
ATOM     30  C   UNL     1      -4.275  -0.685  -3.237  0.00  0.00    +0.015 A 
ATOM     31  C   UNL     1      -3.806  -0.816  -1.944  0.00  0.00    +0.005 A 
ATOM     32 BR   UNL     1      -4.566   0.602  -5.760  0.00  0.00    -0.050 Br
ENDBRANCH  25  26
ENDBRANCH   3  25
TORSDOF 8
