REMARK  Name = ZINC41607687
REMARK  5 active torsions:
REMARK  status: ('A' for Active; 'I' for Inactive)
REMARK    1  A    between atoms: C_1  and  C_2
REMARK    2  A    between atoms: C_2  and  C_4
REMARK    3  A    between atoms: C_2  and  S_17
REMARK    4  A    between atoms: N_6  and  C_7
REMARK    5  A    between atoms: S_17  and  C_18
REMARK                            x       y       z     vdW  Elec       q    Type
REMARK                         _______ _______ _______ _____ _____    ______ ____
ROOT
ATOM      1  C   UNL     1      -0.035   1.539   0.005  0.00  0.00    +0.029 C 
ATOM      2  C   UNL     1      -0.003   0.009   0.000  0.00  0.00    +0.137 C 
ENDROOT
BRANCH   2   3
ATOM      3  C   UNL     1      -1.412  -0.523   0.012  0.00  0.00    +0.230 C 
ATOM      4  O   UNL     1      -1.925  -0.905  -1.018  0.00  0.00    -0.274 OA
ATOM      5  N   UNL     1      -2.103  -0.575   1.169  0.00  0.00    -0.284 N 
ATOM      6  H   UNL     1      -1.668  -0.345   2.004  0.00  0.00    +0.155 HD
BRANCH   5   7
ATOM      7  C   UNL     1      -3.445  -0.959   1.163  0.00  0.00    +0.041 A 
ATOM      8  C   UNL     1      -4.211  -0.796   0.029  0.00  0.00    +0.024 A 
ATOM      9  C   UNL     1      -5.550  -1.176   0.013  0.00  0.00    +0.002 A 
ATOM     10  C   UNL     1      -6.140  -1.717   1.114  0.00  0.00    +0.008 A 
ATOM     11  C   UNL     1      -5.394  -1.901   2.291  0.00  0.00    -0.016 A 
ATOM     12  C   UNL     1      -4.029  -1.523   2.318  0.00  0.00    +0.003 A 
ATOM     13  C   UNL     1      -3.284  -1.711   3.493  0.00  0.00    +0.010 A 
ATOM     14  C   UNL     1      -3.881  -2.257   4.588  0.00  0.00    +0.001 A 
ATOM     15  C   UNL     1      -5.222  -2.635   4.561  0.00  0.00    +0.001 A 
ATOM     16  C   UNL     1      -5.977  -2.457   3.443  0.00  0.00    +0.008 A 
ENDBRANCH   5   7
ENDBRANCH   2   3
BRANCH   2  17
ATOM     17  S   UNL     1       0.851  -0.573  -1.491  0.00  0.00    -0.075 S 
BRANCH  17  18
ATOM     18  C   UNL     1       2.504   0.001  -1.288  0.00  0.00    +0.170 A 
ATOM     19  N   UNL     1       3.428  -0.265  -2.252  0.00  0.00    -0.302 N 
ATOM     20  H   UNL     1       3.176  -0.766  -3.044  0.00  0.00    +0.171 HD
ATOM     21  C   UNL     1       4.696   0.173  -2.100  0.00  0.00    +0.255 A 
ATOM     22  O   UNL     1       5.537  -0.055  -2.954  0.00  0.00    -0.267 OA
ATOM     23  C   UNL     1       5.029   0.898  -0.941  0.00  0.00    +0.038 A 
ATOM     24  C   UNL     1       4.063   1.135  -0.008  0.00  0.00    +0.052 A 
ATOM     25  N   UNL     1       2.824   0.685  -0.208  0.00  0.00    -0.228 NA
ATOM     26  C   UNL     1       4.644   1.926   1.145  0.00  0.00    +0.056 C 
ATOM     27  C   UNL     1       6.174   1.770   1.011  0.00  0.00    +0.011 C 
ATOM     28  C   UNL     1       6.342   1.505  -0.501  0.00  0.00    +0.043 C 
ENDBRANCH  17  18
ENDBRANCH   2  17
TORSDOF 4
