REMARK  Name = ZINC59845293
REMARK  7 active torsions:
REMARK  status: ('A' for Active; 'I' for Inactive)
REMARK    1  A    between atoms: C_1  and  C_2
REMARK    2  A    between atoms: C_5  and  C_7
REMARK    3  A    between atoms: C_7  and  C_9
REMARK    4  A    between atoms: C_7  and  S_10
REMARK    5  A    between atoms: S_10  and  C_11
REMARK    6  A    between atoms: C_14  and  C_17
REMARK    7  A    between atoms: N_15  and  N_16
REMARK                            x       y       z     vdW  Elec       q    Type
REMARK                         _______ _______ _______ _____ _____    ______ ____
ROOT
ATOM      1  C   UNL     1       1.226  -5.848   1.880  0.00  0.00    +0.209 A 
ATOM      2  N   UNL     1       0.623  -5.872   3.047  0.00  0.00    -0.121 NA
ATOM      3  N   UNL     1       0.922  -6.951   3.677  0.00  0.00    -0.127 NA
ATOM      4  C   UNL     1       1.735  -7.683   2.951  0.00  0.00    +0.183 A 
ATOM      5  N   UNL     1       1.950  -7.002   1.775  0.00  0.00    -0.224 N 
ENDROOT
BRANCH   4   6
ATOM      6  C   UNL     1       2.307  -8.994   3.324  0.00  0.00    +0.035 A 
ATOM      7  C   UNL     1       3.672  -9.236   3.160  0.00  0.00    +0.013 A 
ATOM      8  C   UNL     1       4.199 -10.462   3.510  0.00  0.00    +0.001 A 
ATOM      9  C   UNL     1       3.378 -11.451   4.024  0.00  0.00    +0.001 A 
ATOM     10  C   UNL     1       2.025 -11.218   4.189  0.00  0.00    +0.016 A 
ATOM     11  C   UNL     1       1.485  -9.994   3.848  0.00  0.00    +0.029 A 
ATOM     12 BR   UNL     1      -0.364  -9.676   4.082  0.00  0.00    -0.050 Br
ENDBRANCH   4   6
BRANCH   5  13
ATOM     13  N   UNL     1       2.728  -7.395   0.724  0.00  0.00    -0.295 N 
ATOM     14  H   UNL     1       3.693  -7.143   0.874  0.00  0.00    +0.163 HD
ATOM     15  H   UNL     1       2.636  -8.386   0.556  0.00  0.00    +0.163 HD
ENDBRANCH   5  13
BRANCH   1  16
ATOM     16  S   UNL     1       1.116  -4.570   0.672  0.00  0.00    -0.072 S 
BRANCH  16  17
ATOM     17  C   UNL     1       0.011  -3.346   1.428  0.00  0.00    +0.139 C 
ATOM     18  C   UNL     1      -1.383  -3.953   1.596  0.00  0.00    +0.029 C 
BRANCH  17  23
ATOM     19  C   UNL     1      -0.101   1.405  -0.236  0.00  0.00    +0.111 C 
ATOM     20  C   UNL     1      -0.122  -0.101  -0.169  0.00  0.00    +0.214 A 
ATOM     21  N   UNL     1      -0.258  -0.915  -1.177  0.00  0.00    -0.113 NA
ATOM     22  N   UNL     1      -0.229  -2.129  -0.752  0.00  0.00    -0.111 NA
ATOM     23  C   UNL     1      -0.073  -2.130   0.542  0.00  0.00    +0.230 A 
ATOM     24  O   UNL     1       0.003  -0.849   0.939  0.00  0.00    -0.424 OA
ENDBRANCH  17  23
ENDBRANCH  16  17
ENDBRANCH   1  16
TORSDOF 5
