REMARK  Name = ZINC11867321
REMARK  11 active torsions:
REMARK  status: ('A' for Active; 'I' for Inactive)
REMARK    1  A    between atoms: C_1  and  C_2
REMARK    2  A    between atoms: C_2  and  C_3
REMARK    3  A    between atoms: C_8  and  C_31
REMARK    4  A    between atoms: C_12  and  C_15
REMARK    5  A    between atoms: C_13  and  O_14
REMARK    6  A    between atoms: C_15  and  C_17
REMARK    7  A    between atoms: C_15  and  N_70
REMARK    8  A    between atoms: C_20  and  C_23
REMARK    9  A    between atoms: C_23  and  C_24
REMARK   10  A    between atoms: C_23  and  C_25
REMARK   11  A    between atoms: C_33  and  C_36
REMARK                            x       y       z     vdW  Elec       q    Type
REMARK                         _______ _______ _______ _____ _____    ______ ____
ROOT
ATOM      1  C   UNL     1      -1.794   3.057   5.056  0.00  0.00    -0.005 A 
ATOM      2  C   UNL     1      -2.093   2.130   6.013  0.00  0.00    +0.022 A 
ATOM      3  C   UNL     1      -1.618   0.825   5.885  0.00  0.00    +0.065 A 
ATOM      4  C   UNL     1      -1.921  -0.202   6.898  0.00  0.00    +0.202 A 
ATOM      5  O   UNL     1      -2.595   0.050   7.882  0.00  0.00    -0.286 OA
ATOM      6  C   UNL     1      -1.371  -1.549   6.664  0.00  0.00    +0.089 A 
ATOM      7  C   UNL     1      -0.626  -1.765   5.545  0.00  0.00    +0.210 A 
ATOM      8  O   UNL     1      -0.376  -0.804   4.653  0.00  0.00    -0.462 OA
ATOM      9  C   UNL     1      -0.834   0.458   4.776  0.00  0.00    +0.144 A 
ATOM     10  C   UNL     1      -0.539   1.413   3.813  0.00  0.00    +0.028 A 
ATOM     11  C   UNL     1      -1.012   2.706   3.957  0.00  0.00    +0.125 A 
ENDROOT
BRANCH   6  12
ATOM     12  C   UNL     1      -1.622  -2.644   7.624  0.00  0.00    +0.115 A 
ATOM     13  N   UNL     1      -1.222  -3.907   7.583  0.00  0.00    -0.244 NA
ATOM     14  C   UNL     1      -1.539  -4.753   8.538  0.00  0.00    +0.046 A 
ATOM     15  C   UNL     1      -2.300  -4.339   9.584  0.00  0.00    +0.070 A 
ATOM     16  S   UNL     1      -2.555  -2.623   9.149  0.00  0.00    -0.075 S 
ATOM     17  C   UNL     1      -1.065  -6.182   8.468  0.00  0.00    +0.066 C 
ENDBRANCH   6  12
BRANCH   1  19
ATOM     18  C   UNL     1      -3.612   4.615   4.409  0.00  0.00    +0.009 C 
ATOM     19  C   UNL     1      -2.306   4.468   5.192  0.00  0.00    +0.035 C 
ENDBRANCH   1  19
BRANCH  11  20
ATOM     20  O   UNL     1      -0.718   3.639   3.016  0.00  0.00    -0.506 OA
ATOM     21  H   UNL     1      -1.403   3.748   2.342  0.00  0.00    +0.292 HD
ENDBRANCH  11  20
BRANCH  10  22
ATOM     22  C   UNL     1       0.299   1.044   2.616  0.00  0.00    +0.000 C 
BRANCH  22  28
ATOM     23  C   UNL     1      -1.659   1.122   1.195  0.00  0.00    -0.078 C 
ATOM     24  C   UNL     1      -2.298   1.854   0.012  0.00  0.00    -0.019 C 
ATOM     25  C   UNL     1      -1.451   1.623  -1.242  0.00  0.00    -0.004 C 
ATOM     26  C   UNL     1      -0.023   2.110  -0.981  0.00  0.00    -0.019 C 
ATOM     27  C   UNL     1       0.550   1.371   0.230  0.00  0.00    -0.078 C 
ATOM     28  N   UNL     1      -0.297   1.654   1.409  0.00  0.00    +0.387 N 
ATOM     29  H   UNL     1      -0.353   2.671   1.542  0.00  0.00    -0.080 HD
ENDBRANCH  22  28
BRANCH  22  30
ATOM     30  C   UNL     1       1.696   1.581   2.796  0.00  0.00    -0.056 A 
ATOM     31  C   UNL     1       1.982   2.890   2.458  0.00  0.00    +0.002 A 
ATOM     32  C   UNL     1       3.262   3.384   2.627  0.00  0.00    +0.004 A 
ATOM     33  C   UNL     1       4.258   2.565   3.126  0.00  0.00    -0.045 A 
ATOM     34  C   UNL     1       3.973   1.254   3.460  0.00  0.00    +0.004 A 
ATOM     35  C   UNL     1       2.692   0.762   3.295  0.00  0.00    +0.002 A 
BRANCH  33  36
ATOM     36  C   UNL     1       5.655   3.101   3.305  0.00  0.00    +0.013 C 
ATOM     37  C   UNL     1       6.201   3.566   1.954  0.00  0.00    +0.012 C 
ATOM     38  C   UNL     1       5.627   4.282   4.278  0.00  0.00    +0.012 C 
ENDBRANCH  33  36
ENDBRANCH  22  30
ENDBRANCH  10  22
TORSDOF 7
