REMARK  Name = ZINC16043147
REMARK  7 active torsions:
REMARK  status: ('A' for Active; 'I' for Inactive)
REMARK    1  A    between atoms: C_1  and  O_2
REMARK    2  A    between atoms: O_2  and  C_3
REMARK    3  A    between atoms: C_6  and  O_39
REMARK    4  A    between atoms: C_7  and  C_9
REMARK    5  A    between atoms: N_28  and  C_31
REMARK    6  A    between atoms: C_31  and  C_32
REMARK    7  A    between atoms: O_39  and  C_40
REMARK                            x       y       z     vdW  Elec       q    Type
REMARK                         _______ _______ _______ _____ _____    ______ ____
ROOT
ATOM      1  C   UNL     1       5.455   3.243  -0.097  0.00  0.00    +0.158 C 
ATOM      2  C   UNL     1       5.562   4.337  -1.135  0.00  0.00    +0.046 A 
ATOM      3  C   UNL     1       4.553   4.677  -1.967  0.00  0.00    -0.015 A 
ATOM      4  C   UNL     1       5.040   5.753  -2.806  0.00  0.00    +0.003 A 
ATOM      5  C   UNL     1       4.451   6.494  -3.835  0.00  0.00    +0.010 A 
ATOM      6  C   UNL     1       5.226   7.459  -4.427  0.00  0.00    +0.001 A 
ATOM      7  C   UNL     1       6.532   7.698  -4.033  0.00  0.00    +0.002 A 
ATOM      8  C   UNL     1       7.141   6.981  -3.017  0.00  0.00    +0.026 A 
ATOM      9  C   UNL     1       6.377   5.994  -2.397  0.00  0.00    +0.047 A 
ATOM     10  N   UNL     1       6.656   5.122  -1.385  0.00  0.00    -0.356 N 
ATOM     11  H   UNL     1       7.502   5.066  -0.914  0.00  0.00    +0.166 HD
ATOM     12  C   UNL     1       3.192   4.029  -1.974  0.00  0.00    +0.069 C 
ATOM     13  C   UNL     1       3.282   2.684  -1.240  0.00  0.00    +0.167 C 
ATOM     14  N   UNL     1       4.029   2.865   0.003  0.00  0.00    -0.276 N 
ATOM     15  C   UNL     1       3.487   2.697   1.211  0.00  0.00    +0.234 C 
ATOM     16  O   UNL     1       4.176   2.940   2.179  0.00  0.00    -0.274 OA
ATOM     17  C   UNL     1       2.086   2.236   1.452  0.00  0.00    +0.204 C 
ATOM     18  N   UNL     1       1.384   1.954   0.211  0.00  0.00    -0.287 N 
ATOM     19  C   UNL     1       1.907   2.150  -0.998  0.00  0.00    +0.237 C 
ATOM     20  O   UNL     1       1.225   1.879  -1.963  0.00  0.00    -0.274 OA
ENDROOT
BRANCH   1  25
ATOM     21  C   UNL     1       7.468   0.852  -2.220  0.00  0.00    +0.121 A 
ATOM     22  C   UNL     1       7.777  -0.142  -1.303  0.00  0.00    +0.049 A 
ATOM     23  C   UNL     1       7.334  -0.039   0.001  0.00  0.00    +0.049 A 
ATOM     24  C   UNL     1       6.585   1.060   0.395  0.00  0.00    +0.126 A 
ATOM     25  C   UNL     1       6.273   2.051  -0.523  0.00  0.00    +0.024 A 
ATOM     26  C   UNL     1       6.716   1.948  -1.828  0.00  0.00    +0.055 A 
BRANCH  21  28
ATOM     27  C   UNL     1       8.674  -0.406  -3.839  0.00  0.00    +0.277 C 
ATOM     28  O   UNL     1       7.904   0.750  -3.504  0.00  0.00    -0.495 OA
ENDBRANCH  21  28
BRANCH  24  29
ATOM     29  O   UNL     1       6.154   1.164   1.681  0.00  0.00    -0.495 OA
ATOM     30  C   UNL     1       6.513   0.107   2.573  0.00  0.00    +0.277 C 
ENDBRANCH  24  29
ENDBRANCH   1  25
BRANCH  18  31
ATOM     31  C   UNL     1       0.019   1.427   0.295  0.00  0.00    +0.146 C 
BRANCH  31  32
ATOM     32  C   UNL     1       0.063  -0.079   0.329  0.00  0.00    +0.005 A 
ATOM     33  C   UNL     1      -0.191  -0.804  -0.820  0.00  0.00    +0.008 A 
ATOM     34  C   UNL     1      -0.145  -2.186  -0.790  0.00  0.00    +0.000 A 
ATOM     35  C   UNL     1       0.144  -2.844   0.392  0.00  0.00    +0.003 A 
ATOM     36  C   UNL     1       0.393  -2.120   1.543  0.00  0.00    +0.038 A 
ATOM     37  C   UNL     1       0.353  -0.737   1.513  0.00  0.00    +0.128 A 
ATOM     38  F   UNL     1       0.596  -0.029   2.637  0.00  0.00    -0.205 F 
ENDBRANCH  31  32
ENDBRANCH  18  31
TORSDOF 5
