REMARK  Name = ZINC00090573
REMARK  4 active torsions:
REMARK  status: ('A' for Active; 'I' for Inactive)
REMARK    1  A    between atoms: C_1  and  S_2
REMARK    2  A    between atoms: S_2  and  C_3
REMARK    3  A    between atoms: C_6  and  C_21
REMARK    4  A    between atoms: C_9  and  C_13
REMARK                            x       y       z     vdW  Elec       q    Type
REMARK                         _______ _______ _______ _____ _____    ______ ____
ROOT
ATOM      1  C   UNL     1      -0.100   4.162   0.024  0.00  0.00    +0.176 C 
ATOM      2  N   UNL     1      -1.212   3.455   0.031  0.00  0.00    -0.231 NA
ATOM      3  C   UNL     1      -1.219   2.130   0.019  0.00  0.00    +0.135 C 
ATOM      4  C   UNL     1      -0.017   1.428   0.010  0.00  0.00    +0.111 C 
ATOM      5  C   UNL     1       1.236   2.207   0.002  0.00  0.00    +0.157 C 
ATOM      6  N   UNL     1       2.484   1.814  -0.011  0.00  0.00    -0.241 NA
ATOM      7  C   UNL     1       3.334   3.013  -0.013  0.00  0.00    +0.226 C 
ATOM      8  N   UNL     1       2.385   4.142   0.001  0.00  0.00    -0.204 NA
ATOM      9  N   UNL     1       1.135   3.581   0.010  0.00  0.00    -0.193 N 
ATOM     10  H   UNL     1       2.511   4.731  -0.808  0.00  0.00    +0.148 HD
ENDROOT
BRANCH   7  11
ATOM     11  C   UNL     1       4.204   3.042   1.217  0.00  0.00    +0.046 A 
ATOM     12  C   UNL     1       4.637   1.857   1.787  0.00  0.00    +0.131 A 
ATOM     13  C   UNL     1       5.437   1.885   2.917  0.00  0.00    +0.039 A 
ATOM     14  C   UNL     1       5.803   3.096   3.474  0.00  0.00    +0.004 A 
ATOM     15  C   UNL     1       5.370   4.279   2.905  0.00  0.00    +0.020 A 
ATOM     16  C   UNL     1       4.575   4.252   1.773  0.00  0.00    +0.050 A 
ATOM     17 CL   UNL     1       4.038   5.739   1.054  0.00  0.00    -0.083 Cl
ATOM     18  F   UNL     1       4.280   0.674   1.241  0.00  0.00    -0.205 F 
ENDBRANCH   7  11
BRANCH   1  20
ATOM     19  C   UNL     1      -2.011   6.121   0.052  0.00  0.00    +0.093 C 
ATOM     20  S   UNL     1      -0.212   5.921   0.034  0.00  0.00    -0.092 S 
ENDBRANCH   1  20
BRANCH   4  21
ATOM     21  C   UNL     1       0.002  -0.004   0.002  0.00  0.00    +0.104 C 
ATOM     22  N   UNL     1       0.018  -1.140  -0.004  0.00  0.00    -0.191 NA
ENDBRANCH   4  21
TORSDOF 3
