REMARK  Name = ZINC59385382
REMARK  7 active torsions:
REMARK  status: ('A' for Active; 'I' for Inactive)
REMARK    1  A    between atoms: C_1  and  C_2
REMARK    2  A    between atoms: C_3  and  C_18
REMARK    3  A    between atoms: C_4  and  C_10
REMARK    4  A    between atoms: C_15  and  O_16
REMARK    5  A    between atoms: O_16  and  C_17
REMARK    6  A    between atoms: N_20  and  N_21
REMARK    7  A    between atoms: C_22  and  C_23
REMARK                            x       y       z     vdW  Elec       q    Type
REMARK                         _______ _______ _______ _____ _____    ______ ____
ROOT
ATOM      1  C   UNL     1      -0.418   1.585  -0.301  0.00  0.00    +0.061 C 
ATOM      2  C   UNL     1      -0.238   0.096  -0.153  0.00  0.00    +0.017 C 
ATOM      3  C   UNL     1      -1.325  -0.705  -0.133  0.00  0.00    +0.057 C 
ATOM      4  C   UNL     1      -1.100  -2.196   0.016  0.00  0.00    +0.143 C 
ATOM      5  N   UNL     1       0.296  -2.652   0.127  0.00  0.00    -0.315 N 
ATOM      6  C   UNL     1       1.277  -1.728   0.090  0.00  0.00    +0.135 C 
ATOM      7  S   UNL     1       2.905  -2.244   0.217  0.00  0.00    -0.019 S 
ATOM      8  N   UNL     1       1.021  -0.422  -0.049  0.00  0.00    -0.300 N 
ATOM      9  H   UNL     1       0.504  -3.594   0.225  0.00  0.00    +0.149 HD
ATOM     10  H   UNL     1       1.772   0.192  -0.073  0.00  0.00    +0.154 HD
ENDROOT
BRANCH   4  11
ATOM     11  C   UNL     1      -1.837  -2.656   1.247  0.00  0.00    +0.019 A 
ATOM     12  C   UNL     1      -2.232  -1.738   2.201  0.00  0.00    +0.009 A 
ATOM     13  C   UNL     1      -2.908  -2.159   3.331  0.00  0.00    +0.001 A 
ATOM     14  C   UNL     1      -3.191  -3.501   3.509  0.00  0.00    +0.004 A 
ATOM     15  C   UNL     1      -2.800  -4.423   2.558  0.00  0.00    +0.046 A 
ATOM     16  C   UNL     1      -2.126  -4.002   1.421  0.00  0.00    +0.125 A 
BRANCH  16  17
ATOM     17  O   UNL     1      -1.744  -4.906   0.481  0.00  0.00    -0.495 OA
ATOM     18  C   UNL     1      -2.170  -6.257   0.670  0.00  0.00    +0.277 C 
ENDBRANCH  16  17
ENDBRANCH   4  11
BRANCH   3  19
ATOM     19  C   UNL     1      -2.631  -0.169  -0.246  0.00  0.00    +0.263 C 
ATOM     20  O   UNL     1      -2.796   1.037  -0.256  0.00  0.00    -0.269 OA
ATOM     21  N   UNL     1      -3.692  -0.995  -0.343  0.00  0.00    -0.203 N 
ATOM     22  H   UNL     1      -3.569  -1.954  -0.263  0.00  0.00    +0.178 HD
BRANCH  21  23
ATOM     23  N   UNL     1      -4.972  -0.469  -0.559  0.00  0.00    -0.187 NA
ATOM     24  C   UNL     1      -6.006  -1.254  -0.554  0.00  0.00    +0.139 C 
BRANCH  24  25
ATOM     25  C   UNL     1      -7.338  -0.720  -0.891  0.00  0.00    +0.013 A 
ATOM     26  C   UNL     1      -8.454  -1.560  -0.882  0.00  0.00    +0.011 A 
ATOM     27  C   UNL     1      -9.697  -1.054  -1.197  0.00  0.00    +0.001 A 
ATOM     28  C   UNL     1      -9.842   0.284  -1.522  0.00  0.00    +0.001 A 
ATOM     29  C   UNL     1      -8.743   1.123  -1.533  0.00  0.00    +0.020 A 
ATOM     30  C   UNL     1      -7.492   0.631  -1.214  0.00  0.00    +0.050 A 
ATOM     31 CL   UNL     1      -6.114   1.687  -1.223  0.00  0.00    -0.083 Cl
ENDBRANCH  24  25
ENDBRANCH  21  23
ENDBRANCH   3  19
TORSDOF 5
