REMARK  Name = ZINC04511083
REMARK  4 active torsions:
REMARK  status: ('A' for Active; 'I' for Inactive)
REMARK    1  A    between atoms: C_1  and  C_2
REMARK    2  A    between atoms: C_2  and  C_29
REMARK    3  A    between atoms: C_10  and  C_12
REMARK    4  A    between atoms: N_17  and  C_19
REMARK                            x       y       z     vdW  Elec       q    Type
REMARK                         _______ _______ _______ _____ _____    ______ ____
ROOT
ATOM      1  C   UNL     1       0.048   1.139   2.526  0.00  0.00    +0.011 C 
ATOM      2  C   UNL     1      -0.670   1.670   1.284  0.00  0.00    -0.022 C 
ATOM      3  C   UNL     1       0.047   1.155   0.032  0.00  0.00    +0.063 C 
ATOM      4  C   UNL     1      -0.713   1.656  -1.190  0.00  0.00    +0.062 A 
ATOM      5  C   UNL     1      -2.086   1.911  -1.073  0.00  0.00    +0.079 A 
ATOM      6  S   UNL     1      -2.510   2.460  -2.699  0.00  0.00    -0.049 S 
ATOM      7  C   UNL     1      -0.922   2.321  -3.394  0.00  0.00    +0.165 A 
ATOM      8  N   UNL     1      -0.197   1.881  -2.375  0.00  0.00    -0.229 NA
ATOM      9  N   UNL     1      -0.517   2.600  -4.686  0.00  0.00    -0.264 N 
ATOM     10  C   UNL     1      -1.411   3.044  -5.592  0.00  0.00    +0.224 C 
ATOM     11  O   UNL     1      -2.571   3.199  -5.273  0.00  0.00    -0.275 OA
ATOM     12  C   UNL     1      -2.845   1.739   0.080  0.00  0.00    +0.172 C 
ATOM     13  O   UNL     1      -4.030   2.003   0.102  0.00  0.00    -0.291 OA
ATOM     14  C   UNL     1      -2.128   1.209   1.308  0.00  0.00    +0.087 C 
ATOM     15  C   UNL     1      -0.626   3.199   1.294  0.00  0.00    +0.011 C 
ATOM     16  H   UNL     1       0.411   2.476  -4.941  0.00  0.00    +0.157 HD
ENDROOT
BRANCH  10  17
ATOM     17  C   UNL     1      -0.970   3.348  -7.000  0.00  0.00    +0.102 C 
ATOM     18  C   UNL     1       0.090   4.474  -7.017  0.00  0.00    +0.110 C 
ATOM     19  C   UNL     1      -0.715   5.738  -7.223  0.00  0.00    +0.221 C 
ATOM     20  O   UNL     1      -0.307   6.862  -7.019  0.00  0.00    -0.275 OA
ATOM     21  N   UNL     1      -1.948   5.435  -7.664  0.00  0.00    -0.271 N 
ATOM     22  C   UNL     1      -2.118   3.985  -7.814  0.00  0.00    +0.127 C 
BRANCH  21  23
ATOM     23  C   UNL     1      -2.942   6.380  -7.944  0.00  0.00    +0.036 A 
ATOM     24  C   UNL     1      -2.729   7.721  -7.652  0.00  0.00    +0.026 A 
ATOM     25  C   UNL     1      -3.709   8.652  -7.933  0.00  0.00    +0.040 A 
ATOM     26  C   UNL     1      -4.907   8.249  -8.497  0.00  0.00    +0.124 A 
ATOM     27  C   UNL     1      -5.124   6.912  -8.785  0.00  0.00    +0.040 A 
ATOM     28  C   UNL     1      -4.144   5.978  -8.510  0.00  0.00    +0.026 A 
ATOM     29  F   UNL     1      -5.867   9.161  -8.767  0.00  0.00    -0.205 F 
ENDBRANCH  21  23
ENDBRANCH  10  17
TORSDOF 2
