REMARK  Name = ZINC23373080
REMARK  5 active torsions:
REMARK  status: ('A' for Active; 'I' for Inactive)
REMARK    1  A    between atoms: C_8  and  N_10
REMARK    2  A    between atoms: C_14  and  N_17
REMARK    3  A    between atoms: N_17  and  C_18
REMARK    4  A    between atoms: C_18  and  C_19
REMARK    5  A    between atoms: C_22  and  C_24
REMARK                            x       y       z     vdW  Elec       q    Type
REMARK                         _______ _______ _______ _____ _____    ______ ____
ROOT
ATOM      1  N   UNL     1       3.632  -3.409   0.207  0.00  0.00    +0.383 N 
ATOM      2  C   UNL     1       2.928  -4.661  -0.098  0.00  0.00    -0.078 C 
ATOM      3  C   UNL     1       3.569  -5.813   0.678  0.00  0.00    -0.017 C 
ATOM      4  C   UNL     1       5.039  -5.941   0.270  0.00  0.00    +0.015 C 
ATOM      5  C   UNL     1       5.747  -4.607   0.522  0.00  0.00    +0.037 C 
ATOM      6  C   UNL     1       5.025  -3.499  -0.248  0.00  0.00    -0.060 C 
ATOM      7  H   UNL     1       3.614  -3.249   1.203  0.00  0.00    -0.081 HD
ENDROOT
BRANCH   1  15
ATOM      8  C   UNL     1      -0.017   1.377   0.010  0.00  0.00    +0.000 A 
ATOM      9  C   UNL     1       1.172   2.083   0.002  0.00  0.00    +0.000 A 
ATOM     10  C   UNL     1       2.376   1.406  -0.013  0.00  0.00    +0.004 A 
ATOM     11  C   UNL     1       2.396   0.021  -0.021  0.00  0.00    -0.046 A 
ATOM     12  C   UNL     1       1.208  -0.685  -0.013  0.00  0.00    -0.046 A 
ATOM     13  C   UNL     1       0.002  -0.004   0.002  0.00  0.00    +0.004 A 
ATOM     14  C   UNL     1       1.496  -2.171  -0.024  0.00  0.00    +0.020 C 
ATOM     15  C   UNL     1       2.966  -2.294  -0.479  0.00  0.00    -0.060 C 
ATOM     16  C   UNL     1       3.564  -0.942  -0.037  0.00  0.00    +0.020 C 
ENDBRANCH   1  15
BRANCH   5  17
ATOM     17  N   UNL     1       7.140  -4.696   0.065  0.00  0.00    -0.311 NA
ATOM     18  H   UNL     1       7.206  -5.222  -0.793  0.00  0.00    +0.122 HD
BRANCH  17  19
ATOM     19  C   UNL     1       8.000  -5.276   1.105  0.00  0.00    +0.123 C 
BRANCH  19  20
ATOM     20  C   UNL     1       9.418  -5.352   0.601  0.00  0.00    +0.004 A 
ATOM     21  C   UNL     1      10.410  -4.431   0.704  0.00  0.00    +0.013 A 
ATOM     22  C   UNL     1      11.646  -4.712   0.164  0.00  0.00    +0.018 A 
ATOM     23  C   UNL     1      11.832  -5.918  -0.461  0.00  0.00    +0.037 A 
ATOM     24  S   UNL     1      10.227  -6.678  -0.279  0.00  0.00    -0.090 S 
BRANCH  23  25
ATOM     25  C   UNL     1      13.043  -6.450  -1.111  0.00  0.00    +0.072 A 
ATOM     26  C   UNL     1      13.169  -7.675  -1.732  0.00  0.00    +0.049 A 
ATOM     27  C   UNL     1      14.475  -7.775  -2.209  0.00  0.00    +0.135 A 
ATOM     28  N   UNL     1      15.120  -6.678  -1.901  0.00  0.00    -0.182 NA
ATOM     29  N   UNL     1      14.249  -5.821  -1.217  0.00  0.00    -0.276 N 
ATOM     30  H   UNL     1      14.466  -4.938  -0.876  0.00  0.00    +0.189 HD
ENDBRANCH  23  25
ENDBRANCH  19  20
ENDBRANCH  17  19
ENDBRANCH   5  17
TORSDOF 5
