REMARK  Name = ZINC09263162
REMARK  4 active torsions:
REMARK  status: ('A' for Active; 'I' for Inactive)
REMARK    1  A    between atoms: C_4  and  S_7
REMARK    2  A    between atoms: S_7  and  C_8
REMARK    3  A    between atoms: C_11  and  C_13
REMARK    4  A    between atoms: N_20  and  C_23
REMARK                            x       y       z     vdW  Elec       q    Type
REMARK                         _______ _______ _______ _____ _____    ______ ____
ROOT
ATOM      1  C   UNL     1      -1.153   2.133  -0.021  0.00  0.00    +0.064 C 
ATOM      2  C   UNL     1      -2.405   1.527  -0.168  0.00  0.00    +0.103 C 
ATOM      3  C   UNL     1      -3.648   2.307  -0.085  0.00  0.00    +0.257 C 
ATOM      4  O   UNL     1      -3.620   3.507   0.116  0.00  0.00    -0.270 OA
ATOM      5  N   UNL     1      -4.821   1.659  -0.242  0.00  0.00    -0.235 N 
ATOM      6  C   UNL     1      -4.866   0.337  -0.458  0.00  0.00    +0.320 C 
ATOM      7  O   UNL     1      -5.954  -0.190  -0.587  0.00  0.00    -0.251 OA
ATOM      8  N   UNL     1      -3.772  -0.435  -0.539  0.00  0.00    -0.188 N 
ATOM      9  C   UNL     1      -2.534   0.083  -0.406  0.00  0.00    +0.264 C 
ATOM     10  O   UNL     1      -1.548  -0.628  -0.482  0.00  0.00    -0.269 OA
ATOM     11  H   UNL     1      -5.650   2.160  -0.194  0.00  0.00    +0.159 HD
ENDROOT
BRANCH   8  12
ATOM     12  C   UNL     1      -3.919  -1.810  -0.767  0.00  0.00    +0.065 A 
ATOM     13  C   UNL     1      -4.132  -2.673   0.299  0.00  0.00    +0.025 A 
ATOM     14  C   UNL     1      -4.283  -4.027   0.071  0.00  0.00    +0.003 A 
ATOM     15  C   UNL     1      -4.210  -4.526  -1.216  0.00  0.00    +0.021 A 
ATOM     16  C   UNL     1      -3.992  -3.671  -2.282  0.00  0.00    +0.061 A 
ATOM     17  C   UNL     1      -3.846  -2.313  -2.060  0.00  0.00    +0.081 A 
ATOM     18 CL   UNL     1      -3.573  -1.239  -3.396  0.00  0.00    -0.080 Cl
ATOM     19 CL   UNL     1      -3.902  -4.301  -3.897  0.00  0.00    -0.082 Cl
ENDBRANCH   8  12
BRANCH   1  23
ATOM     20  C   UNL     1       1.433   0.028  -1.226  0.00  0.00    +0.167 A 
ATOM     21  C   UNL     1       2.077   0.579  -0.135  0.00  0.00    +0.057 A 
ATOM     22  C   UNL     1       1.183   1.450   0.472  0.00  0.00    +0.050 A 
ATOM     23  C   UNL     1       0.007   1.405  -0.275  0.00  0.00    +0.130 A 
ATOM     24  O   UNL     1       0.192   0.535  -1.295  0.00  0.00    -0.449 OA
BRANCH  20  25
ATOM     25  S   UNL     1       2.126  -1.147  -2.343  0.00  0.00    -0.052 S 
BRANCH  25  29
ATOM     26  C   UNL     1       4.234   1.649  -5.215  0.00  0.00    +0.000 A 
ATOM     27  C   UNL     1       4.206   0.290  -5.471  0.00  0.00    +0.001 A 
ATOM     28  C   UNL     1       3.564  -0.565  -4.597  0.00  0.00    +0.015 A 
ATOM     29  C   UNL     1       2.946  -0.059  -3.460  0.00  0.00    +0.016 A 
ATOM     30  C   UNL     1       2.972   1.308  -3.209  0.00  0.00    +0.015 A 
ATOM     31  C   UNL     1       3.620   2.156  -4.085  0.00  0.00    +0.001 A 
ENDBRANCH  25  29
ENDBRANCH  20  25
ENDBRANCH   1  23
TORSDOF 4
