REMARK  Name = ZINC49569420
REMARK  3 active torsions:
REMARK  status: ('A' for Active; 'I' for Inactive)
REMARK    1  A    between atoms: C_1  and  C_2
REMARK    2  A    between atoms: C_2  and  C_4
REMARK    3  A    between atoms: C_2  and  N_11
REMARK                            x       y       z     vdW  Elec       q    Type
REMARK                         _______ _______ _______ _____ _____    ______ ____
ROOT
ATOM      1  N   UNL     1       0.846  -0.467   1.107  0.00  0.00    -0.305 N 
ATOM      2  C   UNL     1       1.490   0.331   2.039  0.00  0.00    +0.071 A 
ATOM      3  C   UNL     1       1.587   1.701   2.229  0.00  0.00    +0.029 A 
ATOM      4  C   UNL     1       2.326   2.198   3.282  0.00  0.00    +0.017 A 
ATOM      5  C   UNL     1       2.975   1.335   4.154  0.00  0.00    +0.020 A 
ATOM      6  C   UNL     1       2.890  -0.029   3.980  0.00  0.00    +0.045 A 
ATOM      7  C   UNL     1       2.144  -0.547   2.918  0.00  0.00    +0.092 A 
ATOM      8  N   UNL     1       1.877  -1.811   2.494  0.00  0.00    -0.215 NA
ATOM      9  C   UNL     1       1.110  -1.766   1.434  0.00  0.00    +0.195 A 
ATOM     10  N   UNL     1       0.642  -2.866   0.747  0.00  0.00    -0.329 N 
ATOM     11 BR   UNL     1       3.985   2.037   5.591  0.00  0.00    -0.050 Br
ATOM     12  H   UNL     1       0.013  -2.752   0.018  0.00  0.00    +0.145 HD
ATOM     13  H   UNL     1       0.943  -3.755   0.993  0.00  0.00    +0.145 HD
ENDROOT
BRANCH   1  15
ATOM     14  C   UNL     1      -0.145   1.515   0.071  0.00  0.00    +0.036 C 
ATOM     15  C   UNL     1       0.028  -0.003  -0.017  0.00  0.00    +0.117 C 
BRANCH  15  16
ATOM     16  C   UNL     1       0.710  -0.356  -1.314  0.00  0.00    -0.024 A 
ATOM     17  C   UNL     1       2.019   0.030  -1.534  0.00  0.00    +0.006 A 
ATOM     18  C   UNL     1       2.645  -0.294  -2.723  0.00  0.00    +0.001 A 
ATOM     19  C   UNL     1       1.962  -1.003  -3.693  0.00  0.00    +0.015 A 
ATOM     20  C   UNL     1       0.652  -1.389  -3.473  0.00  0.00    +0.018 A 
ATOM     21  C   UNL     1       0.028  -1.070  -2.281  0.00  0.00    +0.021 A 
ATOM     22 BR   UNL     1      -0.283  -2.359  -4.800  0.00  0.00    -0.050 Br
ENDBRANCH  15  16
ENDBRANCH   1  15
TORSDOF 2
