REMARK  Name = ZINC36203440
REMARK  11 active torsions:
REMARK  status: ('A' for Active; 'I' for Inactive)
REMARK    1  A    between atoms: C_1  and  C_2
REMARK    2  A    between atoms: C_6  and  C_8
REMARK    3  A    between atoms: C_8  and  N_9
REMARK    4  A    between atoms: N_9  and  C_10
REMARK    5  A    between atoms: N_9  and  C_16
REMARK    6  A    between atoms: C_10  and  C_11
REMARK    7  A    between atoms: C_16  and  C_17
REMARK    8  A    between atoms: C_20  and  C_22
REMARK    9  A    between atoms: C_22  and  C_23
REMARK   10  A    between atoms: C_22  and  C_30
REMARK   11  A    between atoms: C_22  and  O_37
REMARK                            x       y       z     vdW  Elec       q    Type
REMARK                         _______ _______ _______ _____ _____    ______ ____
ROOT
ATOM      1  C   UNL     1       2.920  -3.174   5.422  0.00  0.00    +0.089 A 
ATOM      2  C   UNL     1       3.811  -2.644   6.279  0.00  0.00    +0.043 A 
ATOM      3  C   UNL     1       5.013  -3.372   6.122  0.00  0.00    +0.048 A 
ATOM      4  C   UNL     1       4.785  -4.302   5.178  0.00  0.00    +0.146 A 
ATOM      5  O   UNL     1       3.514  -4.182   4.762  0.00  0.00    -0.463 OA
ENDROOT
BRANCH   1   6
ATOM      6  C   UNL     1       1.496  -2.718   5.237  0.00  0.00    -0.002 C 
BRANCH   6   7
ATOM      7  N   UNL     1       1.443  -1.684   4.196  0.00  0.00    +0.392 N 
ATOM      8  H   UNL     1       2.078  -0.936   4.432  0.00  0.00    -0.080 HD
BRANCH   7   9
ATOM      9  C   UNL     1       0.076  -1.155   4.099  0.00  0.00    -0.042 C 
BRANCH   9  15
ATOM     10  C   UNL     1      -2.071  -1.126   8.619  0.00  0.00    +0.044 C 
ATOM     11  C   UNL     1      -1.301  -0.416   7.536  0.00  0.00    -0.050 A 
ATOM     12  C   UNL     1      -0.914   0.900   7.711  0.00  0.00    +0.003 A 
ATOM     13  C   UNL     1      -0.208   1.551   6.717  0.00  0.00    +0.000 A 
ATOM     14  C   UNL     1       0.113   0.886   5.548  0.00  0.00    +0.002 A 
ATOM     15  C   UNL     1      -0.273  -0.430   5.373  0.00  0.00    -0.064 A 
ATOM     16  C   UNL     1      -0.976  -1.082   6.369  0.00  0.00    +0.005 A 
ENDBRANCH   9  15
ENDBRANCH   7   9
BRANCH   7  17
ATOM     17  C   UNL     1       1.834  -2.268   2.906  0.00  0.00    -0.002 C 
BRANCH  17  18
ATOM     18  C   UNL     1       1.915  -1.181   1.865  0.00  0.00    +0.089 A 
ATOM     19  C   UNL     1       2.978  -0.391   1.634  0.00  0.00    +0.042 A 
ATOM     20  C   UNL     1       2.619   0.480   0.580  0.00  0.00    +0.041 A 
ATOM     21  C   UNL     1       1.358   0.170   0.230  0.00  0.00    +0.195 A 
ATOM     22  O   UNL     1       0.938  -0.841   1.008  0.00  0.00    -0.470 OA
ENDBRANCH  17  18
ENDBRANCH   7  17
ENDBRANCH   6   7
ENDBRANCH   1   6
BRANCH   4  23
ATOM     23  C   UNL     1       5.785  -5.313   4.677  0.00  0.00    +0.174 C 
BRANCH  23  24
ATOM     24  C   UNL     1       5.062  -6.561   4.242  0.00  0.00    -0.002 A 
ATOM     25  C   UNL     1       5.229  -7.738   4.948  0.00  0.00    +0.007 A 
ATOM     26  C   UNL     1       4.566  -8.884   4.550  0.00  0.00    +0.003 A 
ATOM     27  C   UNL     1       3.736  -8.855   3.445  0.00  0.00    +0.038 A 
ATOM     28  C   UNL     1       3.569  -7.677   2.737  0.00  0.00    +0.124 A 
ATOM     29  C   UNL     1       4.228  -6.528   3.140  0.00  0.00    +0.045 A 
ATOM     30  F   UNL     1       2.758  -7.647   1.657  0.00  0.00    -0.205 F 
ENDBRANCH  23  24
BRANCH  23  31
ATOM     31  C   UNL     1       6.539  -4.735   3.507  0.00  0.00    -0.002 A 
ATOM     32  C   UNL     1       5.873  -3.981   2.560  0.00  0.00    +0.007 A 
ATOM     33  C   UNL     1       6.563  -3.450   1.486  0.00  0.00    +0.003 A 
ATOM     34  C   UNL     1       7.921  -3.675   1.359  0.00  0.00    +0.038 A 
ATOM     35  C   UNL     1       8.590  -4.430   2.307  0.00  0.00    +0.124 A 
ATOM     36  C   UNL     1       7.898  -4.955   3.385  0.00  0.00    +0.045 A 
ATOM     37  F   UNL     1       9.917  -4.650   2.183  0.00  0.00    -0.205 F 
ENDBRANCH  23  31
BRANCH  23  38
ATOM     38  O   UNL     1       6.703  -5.634   5.724  0.00  0.00    -0.372 OA
ATOM     39  H   UNL     1       7.204  -4.876   6.054  0.00  0.00    +0.212 HD
ENDBRANCH  23  38
ENDBRANCH   4  23
TORSDOF 10
