REMARK  Name = ZINC12847465
REMARK  2 active torsions:
REMARK  status: ('A' for Active; 'I' for Inactive)
REMARK    1  A    between atoms: C_6  and  O_7
REMARK    2  A    between atoms: O_7  and  C_8
REMARK                            x       y       z     vdW  Elec       q    Type
REMARK                         _______ _______ _______ _____ _____    ______ ____
ROOT
ATOM      1  C   UNL     1       2.343   5.387  -0.210  0.00  0.00    +0.048 A 
ATOM      2  C   UNL     1       2.365   4.006  -0.233  0.00  0.00    +0.027 A 
ATOM      3  C   UNL     1       1.205   3.290   0.031  0.00  0.00    +0.037 A 
ATOM      4  C   UNL     1       0.024   3.962   0.318  0.00  0.00    -0.022 A 
ATOM      5  C   UNL     1       0.003   5.342   0.341  0.00  0.00    +0.051 A 
ATOM      6  C   UNL     1       1.163   6.058   0.076  0.00  0.00    +0.131 A 
ATOM      7  C   UNL     1      -1.232   3.182   0.605  0.00  0.00    +0.046 C 
ATOM      8  C   UNL     1      -1.244   1.905  -0.242  0.00  0.00    +0.101 C 
ATOM      9  C   UNL     1       0.076   1.195  -0.109  0.00  0.00    +0.218 C 
ATOM     10  O   UNL     1       0.108  -0.017  -0.112  0.00  0.00    -0.275 OA
ATOM     11  N   UNL     1       1.223   1.890   0.009  0.00  0.00    -0.285 N 
ATOM     12  H   UNL     1       2.067   1.418   0.079  0.00  0.00    +0.155 HD
ENDROOT
BRANCH   6  13
ATOM     13  O   UNL     1       1.142   7.417   0.098  0.00  0.00    -0.437 OA
BRANCH  13  14
ATOM     14  C   UNL     1       1.257   8.074  -1.081  0.00  0.00    +0.232 A 
ATOM     15  C   UNL     1       1.368   9.489  -1.107  0.00  0.00    +0.070 A 
ATOM     16  C   UNL     1       1.380  10.441  -0.010  0.00  0.00    +0.023 A 
ATOM     17  C   UNL     1       1.495  11.750  -0.280  0.00  0.00    +0.048 A 
ATOM     18  S   UNL     1       1.597  11.802  -2.059  0.00  0.00    -0.077 S 
ATOM     19  C   UNL     1       1.483  10.064  -2.393  0.00  0.00    +0.115 A 
ATOM     20  N   UNL     1       1.485   9.320  -3.481  0.00  0.00    -0.228 NA
ATOM     21  C   UNL     1       1.380   8.008  -3.391  0.00  0.00    +0.226 A 
ATOM     22  N   UNL     1       1.273   7.404  -2.220  0.00  0.00    -0.201 NA
ENDBRANCH  13  14
ENDBRANCH   6  13
TORSDOF 2
