REMARK  Name = ZINC38879216
REMARK  2 active torsions:
REMARK  status: ('A' for Active; 'I' for Inactive)
REMARK    1  A    between atoms: N_9  and  C_12
REMARK    2  A    between atoms: C_12  and  C_19
REMARK                            x       y       z     vdW  Elec       q    Type
REMARK                         _______ _______ _______ _____ _____    ______ ____
ROOT
ATOM      1  C   UNL     1       3.709  -3.428  -0.053  0.00  0.00    +0.215 C 
ATOM      2  C   UNL     1       5.207  -3.114  -0.056  0.00  0.00    +0.046 C 
ATOM      3  C   UNL     1       5.580  -2.544  -1.430  0.00  0.00    +0.022 C 
ATOM      4  C   UNL     1       5.431  -3.650  -2.475  0.00  0.00    +0.104 C 
ATOM      5  N   UNL     1       4.125  -4.285  -2.363  0.00  0.00    -0.313 N 
ATOM      6  C   UNL     1       3.350  -4.215  -1.280  0.00  0.00    +0.246 C 
ATOM      7  O   UNL     1       2.298  -4.820  -1.287  0.00  0.00    -0.273 OA
ATOM      8  H   UNL     1       3.799  -4.791  -3.124  0.00  0.00    +0.149 HD
ENDROOT
BRANCH   1  17
ATOM      9  C   UNL     1      -0.017   1.382   0.010  0.00  0.00    +0.001 A 
ATOM     10  C   UNL     1       1.165   2.099   0.002  0.00  0.00    +0.001 A 
ATOM     11  C   UNL     1       2.385   1.442  -0.013  0.00  0.00    +0.014 A 
ATOM     12  C   UNL     1       2.420   0.056  -0.021  0.00  0.00    +0.049 A 
ATOM     13  C   UNL     1       1.215  -0.675  -0.013  0.00  0.00    +0.049 A 
ATOM     14  C   UNL     1       0.002  -0.004   0.002  0.00  0.00    +0.014 A 
ATOM     15  C   UNL     1       1.606  -2.100  -0.025  0.00  0.00    +0.255 C 
ATOM     16  O   UNL     1       0.843  -3.045  -0.023  0.00  0.00    -0.269 OA
ATOM     17  N   UNL     1       2.949  -2.175  -0.039  0.00  0.00    -0.211 N 
ATOM     18  C   UNL     1       3.503  -0.949  -0.038  0.00  0.00    +0.255 C 
ATOM     19  O   UNL     1       4.693  -0.709  -0.049  0.00  0.00    -0.269 OA
ENDBRANCH   1  17
BRANCH   1  20
ATOM     20  C   UNL     1       3.365  -4.245   1.194  0.00  0.00    +0.420 C 
ATOM     21  F   UNL     1       1.995  -4.530   1.202  0.00  0.00    -0.168 F 
ATOM     22  F   UNL     1       4.090  -5.442   1.182  0.00  0.00    -0.168 F 
ATOM     23  F   UNL     1       3.695  -3.511   2.338  0.00  0.00    -0.168 F 
ENDBRANCH   1  20
TORSDOF 2
