REMARK  Name = ZINC06601063
REMARK  13 active torsions:
REMARK  status: ('A' for Active; 'I' for Inactive)
REMARK    1  A    between atoms: C_1  and  C_2
REMARK    2  A    between atoms: C_2  and  O_3
REMARK    3  A    between atoms: O_3  and  C_4
REMARK    4  A    between atoms: C_7  and  N_10
REMARK    5  A    between atoms: N_10  and  C_11
REMARK    6  A    between atoms: C_11  and  C_13
REMARK    7  A    between atoms: C_11  and  C_19
REMARK    8  A    between atoms: C_16  and  C_18
REMARK    9  A    between atoms: N_21  and  C_22
REMARK   10  A    between atoms: C_22  and  C_23
REMARK   11  A    between atoms: C_29  and  C_31
REMARK   12  A    between atoms: C_32  and  N_39
REMARK   13  A    between atoms: C_33  and  C_36
REMARK                            x       y       z     vdW  Elec       q    Type
REMARK                         _______ _______ _______ _____ _____    ______ ____
ROOT
ATOM      1  N   UNL     1       1.213  -5.775  -1.843  0.00  0.00    -0.248 N 
ATOM      2  C   UNL     1       0.610  -6.695  -1.065  0.00  0.00    +0.262 C 
ATOM      3  O   UNL     1       0.613  -7.867  -1.393  0.00  0.00    -0.269 OA
ENDROOT
BRANCH   1   7
ATOM      4  C   UNL     1       1.367  -1.791  -0.624  0.00  0.00    +0.121 A 
ATOM      5  C   UNL     1       2.100  -2.752   0.056  0.00  0.00    +0.047 A 
ATOM      6  C   UNL     1       2.050  -4.072  -0.347  0.00  0.00    +0.027 A 
ATOM      7  C   UNL     1       1.265  -4.436  -1.433  0.00  0.00    +0.038 A 
ATOM      8  C   UNL     1       0.531  -3.473  -2.113  0.00  0.00    +0.027 A 
ATOM      9  C   UNL     1       0.578  -2.155  -1.705  0.00  0.00    +0.047 A 
BRANCH   4  10
ATOM     10  O   UNL     1       1.418  -0.491  -0.226  0.00  0.00    -0.492 OA
BRANCH  10  12
ATOM     11  C   UNL     1       2.179   1.312   1.191  0.00  0.00    +0.048 C 
ATOM     12  C   UNL     1       2.251  -0.188   0.894  0.00  0.00    +0.225 C 
ENDBRANCH  10  12
ENDBRANCH   4  10
ENDBRANCH   1   7
BRANCH   2  13
ATOM     13  C   UNL     1      -0.050  -6.285   0.176  0.00  0.00    +0.116 A 
ATOM     14  C   UNL     1      -0.617  -7.073   1.179  0.00  0.00    +0.076 A 
ATOM     15  C   UNL     1      -1.161  -6.333   2.226  0.00  0.00    +0.155 A 
ATOM     16  N   UNL     1      -1.102  -5.018   2.190  0.00  0.00    -0.203 NA
ATOM     17  S   UNL     1      -0.338  -4.646   0.814  0.00  0.00    +0.019 S 
BRANCH  15  18
ATOM     18  C   UNL     1      -1.800  -7.016   3.365  0.00  0.00    +0.262 C 
ATOM     19  O   UNL     1      -1.788  -8.231   3.430  0.00  0.00    -0.269 OA
ATOM     20  N   UNL     1      -2.397  -6.295   4.335  0.00  0.00    -0.324 N 
ATOM     21  H   UNL     1      -2.406  -5.327   4.284  0.00  0.00    +0.145 HD
ATOM     22  H   UNL     1      -2.817  -6.745   5.085  0.00  0.00    +0.145 HD
ENDBRANCH  15  18
BRANCH  14  23
ATOM     23  N   UNL     1      -0.637  -8.461   1.136  0.00  0.00    -0.355 N 
ATOM     24  H   UNL     1      -0.147  -8.932   0.444  0.00  0.00    +0.142 HD
ATOM     25  H   UNL     1      -1.142  -8.959   1.798  0.00  0.00    +0.142 HD
ENDBRANCH  14  23
ENDBRANCH   2  13
BRANCH   1  26
ATOM     26  C   UNL     1       1.815  -6.174  -3.117  0.00  0.00    +0.233 C 
BRANCH  26  27
ATOM     27  C   UNL     1       0.747  -6.725  -4.027  0.00  0.00    +0.135 A 
ATOM     28  C   UNL     1       0.652  -6.507  -5.351  0.00  0.00    +0.047 A 
ATOM     29  C   UNL     1      -0.491  -7.208  -5.800  0.00  0.00    +0.045 A 
ATOM     30  C   UNL     1      -1.026  -7.812  -4.724  0.00  0.00    +0.102 A 
ATOM     31  O   UNL     1      -0.269  -7.521  -3.653  0.00  0.00    -0.462 OA
ATOM     32  C   UNL     1      -2.262  -8.675  -4.721  0.00  0.00    +0.086 C 
ENDBRANCH  26  27
BRANCH  26  33
ATOM     33  C   UNL     1       2.859  -7.233  -2.870  0.00  0.00    +0.242 C 
ATOM     34  O   UNL     1       3.078  -7.616  -1.740  0.00  0.00    -0.273 OA
ATOM     35  N   UNL     1       3.548  -7.754  -3.904  0.00  0.00    -0.311 N 
ATOM     36  H   UNL     1       3.373  -7.448  -4.807  0.00  0.00    +0.149 HD
BRANCH  35  37
ATOM     37  C   UNL     1       4.563  -8.783  -3.663  0.00  0.00    +0.135 C 
BRANCH  37  38
ATOM     38  C   UNL     1       5.191  -9.200  -4.994  0.00  0.00    +0.135 C 
ATOM     39  C   UNL     1       6.244 -10.315  -4.766  0.00  0.00    +0.035 C 
ATOM     40  C   UNL     1       6.252 -11.002  -6.158  0.00  0.00    +0.031 C 
ATOM     41  C   UNL     1       4.779 -10.866  -6.600  0.00  0.00    +0.160 C 
ATOM     42  O   UNL     1       4.200  -9.788  -5.851  0.00  0.00    -0.375 OA
ENDBRANCH  37  38
ENDBRANCH  35  37
ENDBRANCH  26  33
ENDBRANCH   1  26
TORSDOF 11
