REMARK  Name = ZINC08847610
REMARK  5 active torsions:
REMARK  status: ('A' for Active; 'I' for Inactive)
REMARK    1  A    between atoms: C_4  and  C_7
REMARK    2  A    between atoms: C_7  and  S_8
REMARK    3  A    between atoms: S_8  and  C_9
REMARK    4  A    between atoms: C_10  and  C_27
REMARK    5  A    between atoms: C_11  and  N_15
REMARK                            x       y       z     vdW  Elec       q    Type
REMARK                         _______ _______ _______ _____ _____    ______ ____
ROOT
ATOM      1  C   UNL     1       5.731  -1.892  -1.607  0.00  0.00    +0.138 A 
ATOM      2  C   UNL     1       6.522  -2.381  -2.680  0.00  0.00    +0.125 A 
ATOM      3  C   UNL     1       7.673  -2.924  -2.121  0.00  0.00    +0.149 A 
ATOM      4  N   UNL     1       7.577  -2.779  -0.785  0.00  0.00    -0.261 N 
ATOM      5  H   UNL     1       8.256  -3.079  -0.115  0.00  0.00    +0.190 HD
ATOM      6  N   UNL     1       6.369  -2.138  -0.490  0.00  0.00    -0.165 NA
ENDROOT
BRANCH   3   7
ATOM      7  N   UNL     1       8.725  -3.513  -2.812  0.00  0.00    -0.185 N 
ATOM      8  C   UNL     1       9.799  -2.848  -3.275  0.00  0.00    +0.259 C 
ATOM      9  O   UNL     1       9.999  -1.656  -3.157  0.00  0.00    -0.269 OA
ATOM     10  C   UNL     1      10.694  -3.809  -3.950  0.00  0.00    +0.050 A 
ATOM     11  C   UNL     1      11.914  -3.705  -4.599  0.00  0.00    +0.015 A 
ATOM     12  C   UNL     1      12.505  -4.836  -5.139  0.00  0.00    +0.016 A 
ATOM     13  C   UNL     1      11.885  -6.068  -5.035  0.00  0.00    +0.019 A 
ATOM     14  C   UNL     1      10.664  -6.188  -4.388  0.00  0.00    +0.029 A 
ATOM     15  C   UNL     1      10.062  -5.066  -3.843  0.00  0.00    +0.051 A 
ATOM     16  C   UNL     1       8.806  -4.824  -3.102  0.00  0.00    +0.259 C 
ATOM     17  O   UNL     1       7.984  -5.668  -2.806  0.00  0.00    -0.269 OA
ATOM     18 BR   UNL     1      12.708  -7.599  -5.780  0.00  0.00    -0.050 Br
ENDBRANCH   3   7
BRANCH   2  19
ATOM     19  C   UNL     1       6.197  -2.322  -4.074  0.00  0.00    +0.105 C 
ATOM     20  N   UNL     1       5.939  -2.275  -5.179  0.00  0.00    -0.191 NA
ENDBRANCH   2  19
BRANCH   1  21
ATOM     21  S   UNL     1       4.164  -1.100  -1.752  0.00  0.00    -0.098 S 
BRANCH  21  22
ATOM     22  C   UNL     1       3.695  -0.737  -0.038  0.00  0.00    +0.111 C 
BRANCH  22  26
ATOM     23  C   UNL     1      -0.105   1.213   0.016  0.00  0.00    +0.000 A 
ATOM     24  C   UNL     1       1.054   1.961  -0.069  0.00  0.00    +0.000 A 
ATOM     25  C   UNL     1       2.284   1.330  -0.087  0.00  0.00    +0.004 A 
ATOM     26  C   UNL     1       2.355  -0.049  -0.019  0.00  0.00    -0.037 A 
ATOM     27  C   UNL     1       1.195  -0.796   0.067  0.00  0.00    +0.004 A 
ATOM     28  C   UNL     1      -0.035  -0.166   0.084  0.00  0.00    +0.000 A 
ENDBRANCH  22  26
ENDBRANCH  21  22
ENDBRANCH   1  21
TORSDOF 5
