REMARK  Name = ZINC10078875
REMARK  5 active torsions:
REMARK  status: ('A' for Active; 'I' for Inactive)
REMARK    1  A    between atoms: C_1  and  C_2
REMARK    2  A    between atoms: N_7  and  S_9
REMARK    3  A    between atoms: S_9  and  C_12
REMARK    4  A    between atoms: C_15  and  N_18
REMARK    5  A    between atoms: C_19  and  C_21
REMARK                            x       y       z     vdW  Elec       q    Type
REMARK                         _______ _______ _______ _____ _____    ______ ____
ROOT
ATOM      1  N   UNL     1       0.080  -1.789   5.655  0.00  0.00    -0.285 N 
ATOM      2  C   UNL     1       1.252  -2.073   6.255  0.00  0.00    +0.220 C 
ATOM      3  O   UNL     1       2.297  -1.877   5.670  0.00  0.00    -0.275 OA
ATOM      4  H   UNL     1      -0.751  -1.873   6.148  0.00  0.00    +0.155 HD
ENDROOT
BRANCH   2   5
ATOM      5  C   UNL     1       1.266  -2.634   7.654  0.00  0.00    +0.078 C 
ATOM      6  C   UNL     1       0.595  -1.644   8.609  0.00  0.00    +0.032 C 
ATOM      7  C   UNL     1       0.667  -2.191  10.037  0.00  0.00    +0.110 C 
ATOM      8  N   UNL     1       2.072  -2.392  10.416  0.00  0.00    -0.285 N 
ATOM      9  C   UNL     1       2.722  -3.375   9.542  0.00  0.00    +0.110 C 
ATOM     10  C   UNL     1       2.713  -2.863   8.100  0.00  0.00    +0.032 C 
ATOM     11  C   UNL     1       2.178  -2.760  11.738  0.00  0.00    +0.291 A 
ATOM     12  N   UNL     1       1.695  -2.081  12.747  0.00  0.00    -0.195 NA
ATOM     13  C   UNL     1       1.987  -2.745  13.899  0.00  0.00    +0.111 A 
ATOM     14  C   UNL     1       1.727  -2.495  15.248  0.00  0.00    +0.031 A 
ATOM     15  C   UNL     1       2.167  -3.383  16.204  0.00  0.00    +0.002 A 
ATOM     16  C   UNL     1       2.866  -4.522  15.835  0.00  0.00    +0.004 A 
ATOM     17  C   UNL     1       3.130  -4.781  14.505  0.00  0.00    +0.048 A 
ATOM     18  C   UNL     1       2.694  -3.898  13.530  0.00  0.00    +0.157 A 
ATOM     19  O   UNL     1       2.788  -3.874  12.181  0.00  0.00    -0.424 OA
ENDBRANCH   2   5
BRANCH   1  23
ATOM     20  C   UNL     1       0.024  -0.549   1.678  0.00  0.00    +0.106 A 
ATOM     21  C   UNL     1      -0.909  -0.052   2.568  0.00  0.00    +0.030 A 
ATOM     22  C   UNL     1      -0.897  -0.465   3.886  0.00  0.00    +0.025 A 
ATOM     23  C   UNL     1       0.061  -1.373   4.319  0.00  0.00    +0.034 A 
ATOM     24  C   UNL     1       1.001  -1.865   3.423  0.00  0.00    +0.025 A 
ATOM     25  C   UNL     1       0.980  -1.452   2.105  0.00  0.00    +0.030 A 
BRANCH  20  26
ATOM     26  S   UNL     1       0.002  -0.024  -0.004  0.00  0.00    +0.061 S 
ATOM     27  O   UNL     1       1.317  -0.211  -0.506  0.00  0.00    -0.153 OA
ATOM     28  O   UNL     1      -0.649   1.240  -0.026  0.00  0.00    -0.153 OA
BRANCH  26  34
ATOM     29  C   UNL     1      -4.681  -1.843  -0.728  0.00  0.00    +0.009 C 
ATOM     30  C   UNL     1      -3.186  -2.043  -0.475  0.00  0.00    +0.002 C 
ATOM     31  C   UNL     1      -2.700  -3.279  -1.236  0.00  0.00    +0.006 C 
ATOM     32  C   UNL     1      -1.212  -3.499  -0.957  0.00  0.00    +0.017 C 
ATOM     33  C   UNL     1      -0.417  -2.282  -1.455  0.00  0.00    +0.109 C 
ATOM     34  N   UNL     1      -0.975  -1.074  -0.832  0.00  0.00    -0.176 NA
ATOM     35  C   UNL     1      -2.415  -0.812  -0.962  0.00  0.00    +0.112 C 
ENDBRANCH  26  34
ENDBRANCH  20  26
ENDBRANCH   1  23
TORSDOF 4
