REMARK  Name = ZINC38776782
REMARK  9 active torsions:
REMARK  status: ('A' for Active; 'I' for Inactive)
REMARK    1  A    between atoms: C_1  and  C_2
REMARK    2  A    between atoms: C_3  and  C_24
REMARK    3  A    between atoms: C_4  and  C_8
REMARK    4  A    between atoms: C_11  and  O_15
REMARK    5  A    between atoms: C_13  and  O_14
REMARK    6  A    between atoms: O_15  and  C_16
REMARK    7  A    between atoms: C_16  and  C_17
REMARK    8  A    between atoms: C_29  and  O_30
REMARK    9  A    between atoms: O_30  and  C_31
REMARK                            x       y       z     vdW  Elec       q    Type
REMARK                         _______ _______ _______ _____ _____    ______ ____
ROOT
ATOM      1  C   UNL     1      -0.954  -2.953   1.229  0.00  0.00    +0.022 A 
ATOM      2  C   UNL     1      -0.121  -2.989   2.331  0.00  0.00    +0.013 A 
ATOM      3  C   UNL     1      -0.503  -3.679   3.466  0.00  0.00    +0.046 A 
ATOM      4  C   UNL     1      -1.725  -4.337   3.502  0.00  0.00    +0.124 A 
ATOM      5  C   UNL     1      -2.562  -4.302   2.397  0.00  0.00    +0.091 A 
ATOM      6  C   UNL     1      -2.179  -3.604   1.262  0.00  0.00    +0.126 A 
ENDROOT
BRANCH   1  10
ATOM      7  C   UNL     1      -0.018   1.503   0.010  0.00  0.00    +0.068 C 
ATOM      8  C   UNL     1       0.002  -0.004   0.002  0.00  0.00    +0.064 C 
ATOM      9  C   UNL     1      -1.101  -0.791   0.003  0.00  0.00    +0.014 C 
ATOM     10  C   UNL     1      -0.535  -2.200  -0.007  0.00  0.00    +0.164 C 
ATOM     11  N   UNL     1       0.920  -1.969  -0.013  0.00  0.00    -0.297 N 
ATOM     12  N   UNL     1       1.112  -0.751  -0.013  0.00  0.00    -0.182 NA
ATOM     13  H   UNL     1       1.606  -2.654  -0.020  0.00  0.00    +0.183 HD
BRANCH   9  14
ATOM     14  C   UNL     1      -2.512  -0.378   0.013  0.00  0.00    +0.024 A 
ATOM     15  C   UNL     1      -3.283  -0.480  -1.150  0.00  0.00    +0.012 A 
ATOM     16  C   UNL     1      -4.605  -0.091  -1.134  0.00  0.00    +0.001 A 
ATOM     17  C   UNL     1      -5.174   0.401   0.030  0.00  0.00    +0.004 A 
ATOM     18  C   UNL     1      -4.425   0.507   1.185  0.00  0.00    +0.046 A 
ATOM     19  C   UNL     1      -3.095   0.115   1.190  0.00  0.00    +0.128 A 
BRANCH  19  20
ATOM     20  O   UNL     1      -2.360   0.213   2.326  0.00  0.00    -0.495 OA
ATOM     21  C   UNL     1      -3.021   0.724   3.486  0.00  0.00    +0.277 C 
ENDBRANCH  19  20
ENDBRANCH   9  14
ENDBRANCH   1  10
BRANCH   6  22
ATOM     22  O   UNL     1      -3.000  -3.563   0.180  0.00  0.00    -0.506 OA
ATOM     23  H   UNL     1      -2.857  -4.283  -0.450  0.00  0.00    +0.292 HD
ENDBRANCH   6  22
BRANCH   4  24
ATOM     24  O   UNL     1      -2.099  -5.015   4.618  0.00  0.00    -0.487 OA
BRANCH  24  25
ATOM     25  C   UNL     1      -1.187  -5.009   5.718  0.00  0.00    +0.264 C 
BRANCH  25  26
ATOM     26  C   UNL     1      -1.768  -5.805   6.857  0.00  0.00    -0.010 A 
ATOM     27  C   UNL     1      -2.560  -5.182   7.803  0.00  0.00    +0.008 A 
ATOM     28  C   UNL     1      -3.094  -5.912   8.848  0.00  0.00    +0.015 A 
ATOM     29  C   UNL     1      -2.836  -7.267   8.947  0.00  0.00    +0.018 A 
ATOM     30  C   UNL     1      -2.043  -7.891   8.001  0.00  0.00    +0.015 A 
ATOM     31  C   UNL     1      -1.514  -7.161   6.953  0.00  0.00    +0.008 A 
ATOM     32 BR   UNL     1      -3.565  -8.267  10.377  0.00  0.00    -0.050 Br
ENDBRANCH  25  26
ENDBRANCH  24  25
ENDBRANCH   4  24
TORSDOF 7
