REMARK  Name = ZINC57475734
REMARK  4 active torsions:
REMARK  status: ('A' for Active; 'I' for Inactive)
REMARK    1  A    between atoms: C_1  and  C_2
REMARK    2  A    between atoms: C_10  and  C_11
REMARK    3  A    between atoms: N_13  and  C_14
REMARK    4  A    between atoms: C_14  and  C_21
REMARK                            x       y       z     vdW  Elec       q    Type
REMARK                         _______ _______ _______ _____ _____    ______ ____
ROOT
ATOM      1  C   UNL     1       0.031  -0.382   2.484  0.00  0.00    +0.280 C 
ATOM      2  O   UNL     1       0.017   0.806   2.745  0.00  0.00    -0.267 OA
ATOM      3  N   UNL     1       0.053  -1.291   3.479  0.00  0.00    -0.302 N 
ATOM      4  H   UNL     1       0.065  -2.238   3.270  0.00  0.00    +0.150 HD
ENDROOT
BRANCH   1  14
ATOM      5  C   UNL     1      -0.018   1.503   0.010  0.00  0.00    +0.048 C 
ATOM      6  C   UNL     1       0.002  -0.004   0.002  0.00  0.00    +0.008 A 
ATOM      7  C   UNL     1       0.009  -0.877  -1.171  0.00  0.00    +0.024 A 
ATOM      8  C   UNL     1      -0.001  -0.654  -2.551  0.00  0.00    +0.012 A 
ATOM      9  C   UNL     1       0.009  -1.718  -3.408  0.00  0.00    +0.001 A 
ATOM     10  C   UNL     1       0.029  -3.017  -2.918  0.00  0.00    +0.004 A 
ATOM     11  C   UNL     1       0.039  -3.257  -1.561  0.00  0.00    +0.047 A 
ATOM     12  C   UNL     1       0.030  -2.191  -0.669  0.00  0.00    +0.136 A 
ATOM     13  O   UNL     1       0.035  -2.113   0.676  0.00  0.00    -0.450 OA
ATOM     14  C   UNL     1       0.024  -0.826   1.083  0.00  0.00    +0.193 A 
ENDBRANCH   1  14
BRANCH   3  15
ATOM     15  C   UNL     1       0.060  -0.848   4.875  0.00  0.00    +0.053 C 
ATOM     16  C   UNL     1       1.250   0.088   5.086  0.00  0.00    +0.049 C 
ATOM     17  C   UNL     1       1.731   0.024   6.563  0.00  0.00    +0.168 C 
ATOM     18  S   UNL     1       1.546  -1.788   6.868  0.00  0.00    -0.029 S 
ATOM     19  O   UNL     1       2.673  -2.469   6.333  0.00  0.00    -0.174 OA
ATOM     20  O   UNL     1       1.177  -1.998   8.224  0.00  0.00    -0.174 OA
ATOM     21  C   UNL     1       0.087  -2.090   5.787  0.00  0.00    +0.191 C 
ATOM     22  C   UNL     1      -1.227  -0.067   5.147  0.00  0.00    +0.033 C 
ENDBRANCH   3  15
TORSDOF 2
