REMARK  Name = ZINC45626221
REMARK  4 active torsions:
REMARK  status: ('A' for Active; 'I' for Inactive)
REMARK    1  A    between atoms: C_1  and  C_2
REMARK    2  A    between atoms: C_7  and  N_10
REMARK    3  A    between atoms: C_11  and  C_15
REMARK    4  A    between atoms: C_17  and  N_22
REMARK                            x       y       z     vdW  Elec       q    Type
REMARK                         _______ _______ _______ _____ _____    ______ ____
ROOT
ATOM      1  N   UNL     1       1.478  -2.552   2.406  0.00  0.00    -0.222 N 
ATOM      2  C   UNL     1       0.959  -3.247   3.448  0.00  0.00    +0.183 A 
ATOM      3  N   UNL     1       1.936  -3.441   4.308  0.00  0.00    -0.108 NA
ATOM      4  N   UNL     1       3.026  -2.916   3.876  0.00  0.00    -0.023 NA
ATOM      5  N   UNL     1       2.834  -2.363   2.728  0.00  0.00    -0.043 NA
ENDROOT
BRANCH   1  11
ATOM      6  C   UNL     1       0.011   1.430  -0.131  0.00  0.00    +0.007 C 
ATOM      7  C   UNL     1       0.030  -0.100  -0.095  0.00  0.00    -0.012 C 
ATOM      8  C   UNL     1       0.754  -0.630  -1.334  0.00  0.00    +0.003 C 
ATOM      9  C   UNL     1       0.773  -2.160  -1.298  0.00  0.00    +0.002 C 
ATOM     10  C   UNL     1       1.503  -2.631  -0.039  0.00  0.00    +0.027 C 
ATOM     11  C   UNL     1       0.779  -2.101   1.200  0.00  0.00    +0.111 C 
ATOM     12  C   UNL     1       0.760  -0.571   1.164  0.00  0.00    +0.030 C 
ENDBRANCH   1  11
BRANCH   2  13
ATOM     13  C   UNL     1      -0.442  -3.701   3.591  0.00  0.00    +0.036 A 
ATOM     14  C   UNL     1      -1.073  -4.367   2.541  0.00  0.00    +0.035 A 
ATOM     15  C   UNL     1      -2.385  -4.790   2.682  0.00  0.00    +0.025 A 
ATOM     16  C   UNL     1      -3.069  -4.550   3.869  0.00  0.00    +0.024 A 
ATOM     17  C   UNL     1      -2.445  -3.891   4.910  0.00  0.00    +0.018 A 
ATOM     18  C   UNL     1      -1.135  -3.470   4.781  0.00  0.00    +0.029 A 
ATOM     19 BR   UNL     1      -0.283  -2.575   6.212  0.00  0.00    -0.050 Br
BRANCH  15  20
ATOM     20  N   UNL     1      -3.021  -5.457   1.632  0.00  0.00    -0.358 N 
ATOM     21  H   UNL     1      -2.545  -5.624   0.804  0.00  0.00    +0.142 HD
ATOM     22  H   UNL     1      -3.940  -5.753   1.731  0.00  0.00    +0.142 HD
ENDBRANCH  15  20
ENDBRANCH   2  13
TORSDOF 3
