REMARK  Name = ZINC05492515
REMARK  9 active torsions:
REMARK  status: ('A' for Active; 'I' for Inactive)
REMARK    1  A    between atoms: C_4  and  C_7
REMARK    2  A    between atoms: C_7  and  N_8
REMARK    3  A    between atoms: N_8  and  C_9
REMARK    4  A    between atoms: C_9  and  C_10
REMARK    5  A    between atoms: C_16  and  C_18
REMARK    6  A    between atoms: C_24  and  C_26
REMARK    7  A    between atoms: N_28  and  C_29
REMARK    8  A    between atoms: C_32  and  S_35
REMARK    9  A    between atoms: S_35  and  N_38
REMARK                            x       y       z     vdW  Elec       q    Type
REMARK                         _______ _______ _______ _____ _____    ______ ____
ROOT
ATOM      1  C   UNL     1      -5.975   0.548  -5.735  0.00  0.00    +0.091 C 
ATOM      2  C   UNL     1      -6.605   1.666  -6.569  0.00  0.00    +0.040 C 
ATOM      3  C   UNL     1      -7.439   2.556  -5.694  0.00  0.00    -0.030 C 
ATOM      4  C   UNL     1      -7.348   2.594  -4.403  0.00  0.00    -0.030 C 
ATOM      5  C   UNL     1      -6.405   1.746  -3.600  0.00  0.00    +0.040 C 
ATOM      6  C   UNL     1      -5.310   1.177  -4.504  0.00  0.00    +0.091 C 
ENDROOT
BRANCH   6   7
ATOM      7  C   UNL     1      -4.532   0.124  -3.756  0.00  0.00    +0.221 C 
ATOM      8  O   UNL     1      -4.509  -1.018  -4.164  0.00  0.00    -0.275 OA
ATOM      9  N   UNL     1      -3.862   0.453  -2.634  0.00  0.00    -0.285 N 
ATOM     10  H   UNL     1      -3.933   1.349  -2.271  0.00  0.00    +0.155 HD
BRANCH   9  11
ATOM     11  C   UNL     1      -3.063  -0.500  -1.992  0.00  0.00    +0.034 A 
ATOM     12  C   UNL     1      -3.451  -1.834  -1.973  0.00  0.00    +0.025 A 
ATOM     13  C   UNL     1      -2.660  -2.772  -1.338  0.00  0.00    +0.030 A 
ATOM     14  C   UNL     1      -1.484  -2.384  -0.722  0.00  0.00    +0.105 A 
ATOM     15  C   UNL     1      -1.099  -1.056  -0.735  0.00  0.00    +0.030 A 
ATOM     16  C   UNL     1      -1.882  -0.114  -1.373  0.00  0.00    +0.025 A 
BRANCH  14  17
ATOM     17  S   UNL     1      -0.479  -3.584   0.087  0.00  0.00    +0.056 S 
ATOM     18  O   UNL     1       0.291  -2.883   1.054  0.00  0.00    -0.153 OA
ATOM     19  O   UNL     1      -1.335  -4.665   0.433  0.00  0.00    -0.153 OA
BRANCH  17  20
ATOM     20  N   UNL     1       0.588  -4.167  -1.036  0.00  0.00    -0.204 NA
ATOM     21  H   UNL     1       0.353  -4.938  -1.575  0.00  0.00    +0.144 HD
ATOM     22  H   UNL     1       1.450  -3.736  -1.156  0.00  0.00    +0.144 HD
ENDBRANCH  17  20
ENDBRANCH  14  17
ENDBRANCH   9  11
ENDBRANCH   6   7
BRANCH   1  24
ATOM     23  N   UNL     1      -5.312  -0.876  -7.646  0.00  0.00    -0.293 N 
ATOM     24  C   UNL     1      -4.940  -0.178  -6.555  0.00  0.00    +0.220 C 
ATOM     25  O   UNL     1      -3.771  -0.135  -6.233  0.00  0.00    -0.275 OA
BRANCH  23  26
ATOM     26  C   UNL     1      -4.300  -1.531  -8.478  0.00  0.00    +0.143 C 
BRANCH  26  30
ATOM     27  C   UNL     1      -3.630  -5.500  -7.048  0.00  0.00    +0.000 A 
ATOM     28  C   UNL     1      -4.599  -5.265  -8.006  0.00  0.00    +0.000 A 
ATOM     29  C   UNL     1      -4.815  -3.980  -8.469  0.00  0.00    +0.005 A 
ATOM     30  C   UNL     1      -4.064  -2.931  -7.973  0.00  0.00    -0.030 A 
ATOM     31  C   UNL     1      -3.091  -3.167  -7.019  0.00  0.00    +0.005 A 
ATOM     32  C   UNL     1      -2.878  -4.451  -6.553  0.00  0.00    +0.000 A 
ENDBRANCH  26  30
ENDBRANCH  23  26
BRANCH  23  33
ATOM     33  C   UNL     1      -6.730  -0.980  -8.000  0.00  0.00    +0.143 C 
BRANCH  33  34
ATOM     34  C   UNL     1      -6.905  -0.681  -9.467  0.00  0.00    -0.030 A 
ATOM     35  C   UNL     1      -6.979   0.629  -9.901  0.00  0.00    +0.005 A 
ATOM     36  C   UNL     1      -7.135   0.904 -11.247  0.00  0.00    +0.000 A 
ATOM     37  C   UNL     1      -7.225  -0.132 -12.158  0.00  0.00    +0.000 A 
ATOM     38  C   UNL     1      -7.156  -1.443 -11.723  0.00  0.00    +0.000 A 
ATOM     39  C   UNL     1      -6.996  -1.717 -10.378  0.00  0.00    +0.005 A 
ENDBRANCH  33  34
ENDBRANCH  23  33
ENDBRANCH   1  24
TORSDOF 9
