REMARK  Name = ZINC14075297
REMARK  6 active torsions:
REMARK  status: ('A' for Active; 'I' for Inactive)
REMARK    1  A    between atoms: C_4  and  C_7
REMARK    2  A    between atoms: C_7  and  C_8
REMARK    3  A    between atoms: C_7  and  N_14
REMARK    4  A    between atoms: C_20  and  C_22
REMARK    5  A    between atoms: C_25  and  S_28
REMARK    6  A    between atoms: S_28  and  N_31
REMARK                            x       y       z     vdW  Elec       q    Type
REMARK                         _______ _______ _______ _____ _____    ______ ____
ROOT
ATOM      1  N   UNL     1      -0.282  -0.987   1.031  0.00  0.00    -0.289 NA
ATOM      2  C   UNL     1      -0.129  -0.449   2.390  0.00  0.00    +0.104 C 
ATOM      3  C   UNL     1      -1.473  -0.531   3.122  0.00  0.00    +0.123 C 
ATOM      4  N   UNL     1      -1.960  -1.917   3.053  0.00  0.00    -0.295 N 
ATOM      5  C   UNL     1      -2.011  -2.571   1.736  0.00  0.00    +0.123 C 
ATOM      6  C   UNL     1      -0.646  -2.409   1.059  0.00  0.00    +0.104 C 
ATOM      7  C   UNL     1      -2.348  -2.570   4.166  0.00  0.00    +0.247 C 
ATOM      8  O   UNL     1      -2.813  -3.690   4.082  0.00  0.00    -0.270 OA
ENDROOT
BRANCH   7   9
ATOM      9  C   UNL     1      -2.209  -1.924   5.488  0.00  0.00    +0.037 A 
ATOM     10  C   UNL     1      -1.613  -2.613   6.545  0.00  0.00    +0.015 A 
ATOM     11  C   UNL     1      -1.482  -2.003   7.776  0.00  0.00    +0.029 A 
ATOM     12  C   UNL     1      -1.950  -0.715   7.966  0.00  0.00    +0.106 A 
ATOM     13  C   UNL     1      -2.547  -0.029   6.924  0.00  0.00    +0.029 A 
ATOM     14  C   UNL     1      -2.680  -0.625   5.687  0.00  0.00    +0.015 A 
BRANCH  12  15
ATOM     15  S   UNL     1      -1.784   0.055   9.542  0.00  0.00    +0.061 S 
ATOM     16  O   UNL     1      -0.702  -0.592  10.198  0.00  0.00    -0.153 OA
ATOM     17  O   UNL     1      -1.807   1.457   9.314  0.00  0.00    -0.153 OA
BRANCH  15  18
ATOM     18  N   UNL     1      -3.147  -0.307  10.410  0.00  0.00    -0.177 NA
ATOM     19  C   UNL     1      -4.279   0.589  10.327  0.00  0.00    +0.109 C 
ATOM     20  C   UNL     1      -4.163   1.683  11.409  0.00  0.00    +0.017 C 
ATOM     21  C   UNL     1      -4.404   1.110  12.742  0.00  0.00    +0.001 C 
ATOM     22  C   UNL     1      -3.389   0.051  13.163  0.00  0.00    +0.001 C 
ATOM     23  C   UNL     1      -3.809  -1.290  12.614  0.00  0.00    +0.017 C 
ATOM     24  C   UNL     1      -3.155  -1.527  11.240  0.00  0.00    +0.109 C 
ENDBRANCH  15  18
ENDBRANCH  12  15
ENDBRANCH   7   9
BRANCH   1  25
ATOM     25  C   UNL     1       0.936  -0.770   0.239  0.00  0.00    +0.117 C 
BRANCH  25  29
ATOM     26  C   UNL     1       1.903   3.391   0.224  0.00  0.00    +0.000 A 
ATOM     27  C   UNL     1       2.908   2.448   0.334  0.00  0.00    +0.000 A 
ATOM     28  C   UNL     1       2.595   1.101   0.340  0.00  0.00    +0.005 A 
ATOM     29  C   UNL     1       1.277   0.698   0.234  0.00  0.00    -0.026 A 
ATOM     30  C   UNL     1       0.273   1.641   0.117  0.00  0.00    +0.005 A 
ATOM     31  C   UNL     1       0.586   2.987   0.117  0.00  0.00    +0.000 A 
ENDBRANCH  25  29
BRANCH  25  32
ATOM     32  C   UNL     1       0.705  -1.237  -1.175  0.00  0.00    -0.026 A 
ATOM     33  C   UNL     1      -0.508  -0.998  -1.793  0.00  0.00    +0.005 A 
ATOM     34  C   UNL     1      -0.719  -1.422  -3.092  0.00  0.00    +0.000 A 
ATOM     35  C   UNL     1       0.281  -2.094  -3.769  0.00  0.00    +0.000 A 
ATOM     36  C   UNL     1       1.493  -2.339  -3.150  0.00  0.00    +0.000 A 
ATOM     37  C   UNL     1       1.704  -1.910  -1.853  0.00  0.00    +0.005 A 
ENDBRANCH  25  32
ENDBRANCH   1  25
TORSDOF 6
