REMARK  Name = ZINC36207536
REMARK  15 active torsions:
REMARK  status: ('A' for Active; 'I' for Inactive)
REMARK    1  A    between atoms: C_1  and  C_2
REMARK    2  A    between atoms: C_8  and  C_17
REMARK    3  A    between atoms: C_12  and  C_13
REMARK    4  A    between atoms: C_13  and  O_15
REMARK    5  A    between atoms: O_15  and  C_16
REMARK    6  A    between atoms: C_17  and  N_18
REMARK    7  A    between atoms: N_18  and  C_19
REMARK    8  A    between atoms: N_18  and  C_32
REMARK    9  A    between atoms: C_19  and  C_20
REMARK   10  A    between atoms: C_20  and  C_22
REMARK   11  A    between atoms: C_20  and  O_31
REMARK   12  A    between atoms: C_22  and  O_23
REMARK   13  A    between atoms: O_23  and  C_24
REMARK   14  A    between atoms: C_32  and  C_33
REMARK   15  A    between atoms: C_32  and  C_34
REMARK                            x       y       z     vdW  Elec       q    Type
REMARK                         _______ _______ _______ _____ _____    ______ ____
ROOT
ATOM      1  N   UNL     1       0.045  -4.720  -4.170  0.00  0.00    +0.388 N 
ATOM      2  H   UNL     1       0.696  -4.953  -3.435  0.00  0.00    -0.081 HD
ENDROOT
BRANCH   1   3
ATOM      3  C   UNL     1      -1.324  -5.003  -3.719  0.00  0.00    -0.074 C 
ATOM      4  C   UNL     1      -1.670  -4.092  -2.539  0.00  0.00    -0.014 C 
ATOM      5  C   UNL     1      -2.303  -4.745  -4.866  0.00  0.00    -0.014 C 
ENDBRANCH   1   3
BRANCH   1   6
ATOM      6  C   UNL     1       0.168  -3.294  -4.499  0.00  0.00    -0.003 C 
BRANCH   6  14
ATOM      7  C   UNL     1       1.288   0.927   0.520  0.00  0.00    +0.046 C 
ATOM      8  C   UNL     1       1.242  -0.567   0.333  0.00  0.00    -0.015 A 
ATOM      9  C   UNL     1       0.963  -1.107  -0.925  0.00  0.00    +0.076 A 
ATOM     10  C   UNL     1       0.684  -0.410  -2.201  0.00  0.00    +0.260 A 
ATOM     11  O   UNL     1       0.676   0.807  -2.260  0.00  0.00    -0.267 OA
ATOM     12  N   UNL     1       0.441  -1.156  -3.296  0.00  0.00    -0.312 N 
ATOM     13  H   UNL     1       0.257  -0.715  -4.140  0.00  0.00    +0.170 HD
ATOM     14  C   UNL     1       0.448  -2.511  -3.242  0.00  0.00    +0.094 A 
ATOM     15  N   UNL     1       0.689  -3.156  -2.134  0.00  0.00    -0.229 NA
ATOM     16  C   UNL     1       0.942  -2.518  -0.998  0.00  0.00    +0.116 A 
ATOM     17  S   UNL     1       1.306  -3.019   0.665  0.00  0.00    -0.062 S 
ATOM     18  C   UNL     1       1.478  -1.397   1.390  0.00  0.00    +0.102 A 
BRANCH  18  19
ATOM     19  C   UNL     1       1.792  -1.044   2.777  0.00  0.00    +0.346 C 
ATOM     20  O   UNL     1       1.869   0.125   3.104  0.00  0.00    -0.244 OA
BRANCH  19  21
ATOM     21  O   UNL     1       1.995  -2.015   3.691  0.00  0.00    -0.464 OA
ATOM     22  C   UNL     1       2.297  -1.599   5.024  0.00  0.00    +0.280 C 
ENDBRANCH  19  21
ENDBRANCH  18  19
ENDBRANCH   6  14
ENDBRANCH   1   6
BRANCH   1  23
ATOM     23  C   UNL     1       0.344  -5.526  -5.362  0.00  0.00    -0.043 C 
BRANCH  23  24
ATOM     24  C   UNL     1       0.391  -7.006  -4.979  0.00  0.00    +0.135 C 
BRANCH  24  25
ATOM     25  O   UNL     1      -0.920  -7.446  -4.616  0.00  0.00    -0.390 OA
ATOM     26  H   UNL     1      -1.555  -7.430  -5.345  0.00  0.00    +0.210 HD
ENDBRANCH  24  25
BRANCH  24  27
ATOM     27  C   UNL     1       0.893  -7.825  -6.169  0.00  0.00    +0.258 C 
BRANCH  27  28
ATOM     28  O   UNL     1       1.048  -9.190  -5.777  0.00  0.00    -0.489 OA
BRANCH  28  29
ATOM     29  C   UNL     1       1.490 -10.059  -6.724  0.00  0.00    +0.121 A 
ATOM     30  C   UNL     1       1.774  -9.604  -8.004  0.00  0.00    +0.047 A 
ATOM     31  C   UNL     1       2.223 -10.489  -8.966  0.00  0.00    +0.023 A 
ATOM     32  C   UNL     1       2.389 -11.826  -8.654  0.00  0.00    +0.041 A 
ATOM     33  C   UNL     1       2.106 -12.281  -7.378  0.00  0.00    +0.023 A 
ATOM     34  C   UNL     1       1.663 -11.399  -6.412  0.00  0.00    +0.047 A 
ATOM     35 CL   UNL     1       2.953 -12.935  -9.864  0.00  0.00    -0.084 Cl
ENDBRANCH  28  29
ENDBRANCH  27  28
ENDBRANCH  24  27
ENDBRANCH  23  24
ENDBRANCH   1  23
TORSDOF 11
