REMARK  Name = ZINC20757451
REMARK  8 active torsions:
REMARK  status: ('A' for Active; 'I' for Inactive)
REMARK    1  A    between atoms: C_1  and  C_2
REMARK    2  A    between atoms: C_7  and  C_8
REMARK    3  A    between atoms: C_17  and  C_20
REMARK    4  A    between atoms: C_20  and  C_21
REMARK    5  A    between atoms: N_33  and  C_36
REMARK    6  A    between atoms: C_36  and  C_37
REMARK    7  A    between atoms: C_37  and  O_38
REMARK    8  A    between atoms: O_38  and  C_39
REMARK                            x       y       z     vdW  Elec       q    Type
REMARK                         _______ _______ _______ _____ _____    ______ ____
ROOT
ATOM      1  C   UNL     1      -0.018   1.503   0.010  0.00  0.00    +0.044 C 
ATOM      2  C   UNL     1       0.002  -0.004   0.002  0.00  0.00    -0.046 A 
ATOM      3  C   UNL     1       0.006  -0.686  -1.201  0.00  0.00    +0.004 A 
ATOM      4  C   UNL     1       0.025  -2.069  -1.209  0.00  0.00    +0.008 A 
ATOM      5  C   UNL     1       0.040  -2.765  -0.021  0.00  0.00    +0.004 A 
ATOM      6  C   UNL     1       0.036  -2.090   1.196  0.00  0.00    +0.042 A 
ATOM      7  C   UNL     1       0.023  -0.697   1.194  0.00  0.00    -0.026 A 
ATOM      8  C   UNL     1       0.026   0.056   2.500  0.00  0.00    +0.046 C 
ATOM      9  N   UNL     1       0.052  -3.001   2.254  0.00  0.00    -0.283 N 
ATOM     10  C   UNL     1       0.067  -4.278   1.824  0.00  0.00    +0.243 C 
ATOM     11  O   UNL     1       0.080  -5.274   2.515  0.00  0.00    -0.273 OA
ATOM     12  C   UNL     1       0.064  -4.228   0.321  0.00  0.00    +0.136 C 
ATOM     13  C   UNL     1      -1.149  -4.962  -0.263  0.00  0.00    +0.122 C 
ATOM     14  C   UNL     1      -0.605  -6.361  -0.664  0.00  0.00    +0.107 C 
ATOM     15  C   UNL     1       0.888  -6.331  -0.274  0.00  0.00    +0.072 C 
ATOM     16  N   UNL     1       1.252  -4.896  -0.242  0.00  0.00    -0.295 NA
ATOM     17  C   UNL     1      -1.354  -7.302   0.252  0.00  0.00    +0.227 C 
ATOM     18  O   UNL     1      -1.230  -8.508   0.271  0.00  0.00    -0.275 OA
ATOM     19  N   UNL     1      -2.173  -6.597   1.040  0.00  0.00    -0.239 N 
ATOM     20  C   UNL     1      -2.145  -5.260   0.835  0.00  0.00    +0.228 C 
ATOM     21  O   UNL     1      -2.803  -4.433   1.428  0.00  0.00    -0.275 OA
ATOM     22  H   UNL     1       0.053  -2.745   3.190  0.00  0.00    +0.155 HD
ATOM     23  H   UNL     1       1.447  -4.562  -1.174  0.00  0.00    +0.124 HD
ENDROOT
BRANCH  15  24
ATOM     24  C   UNL     1       1.724  -7.088  -1.308  0.00  0.00    +0.056 C 
BRANCH  24  25
ATOM     25  C   UNL     1       3.157  -7.152  -0.845  0.00  0.00    -0.021 A 
ATOM     26  C   UNL     1       4.144  -6.307  -1.183  0.00  0.00    +0.087 A 
ATOM     27  N   UNL     1       5.309  -6.680  -0.571  0.00  0.00    -0.360 N 
ATOM     28  H   UNL     1       6.158  -6.222  -0.663  0.00  0.00    +0.165 HD
ATOM     29  C   UNL     1       5.095  -7.804   0.197  0.00  0.00    +0.047 A 
ATOM     30  C   UNL     1       3.736  -8.145   0.063  0.00  0.00    +0.003 A 
ATOM     31  C   UNL     1       3.226  -9.253   0.742  0.00  0.00    +0.010 A 
ATOM     32  C   UNL     1       4.050  -9.999   1.537  0.00  0.00    +0.001 A 
ATOM     33  C   UNL     1       5.389  -9.665   1.676  0.00  0.00    +0.002 A 
ATOM     34  C   UNL     1       5.916  -8.581   1.007  0.00  0.00    +0.026 A 
ENDBRANCH  24  25
ENDBRANCH  15  24
BRANCH  19  35
ATOM     35  C   UNL     1      -3.039  -7.221   2.043  0.00  0.00    +0.144 C 
BRANCH  35  36
ATOM     36  C   UNL     1      -2.292  -7.316   3.375  0.00  0.00    +0.179 C 
BRANCH  36  37
ATOM     37  O   UNL     1      -2.029  -6.001   3.869  0.00  0.00    -0.381 OA
ATOM     38  C   UNL     1      -1.330  -5.977   5.115  0.00  0.00    +0.194 C 
ENDBRANCH  36  37
ENDBRANCH  35  36
ENDBRANCH  19  35
TORSDOF 5
