REMARK  Name = ZINC18581034
REMARK  14 active torsions:
REMARK  status: ('A' for Active; 'I' for Inactive)
REMARK    1  A    between atoms: C_1  and  C_2
REMARK    2  A    between atoms: C_2  and  C_3
REMARK    3  A    between atoms: C_3  and  C_5
REMARK    4  A    between atoms: C_3  and  C_6
REMARK    5  A    between atoms: C_6  and  C_7
REMARK    6  A    between atoms: C_8  and  C_32
REMARK    7  A    between atoms: C_16  and  S_18
REMARK    8  A    between atoms: S_18  and  C_19
REMARK    9  A    between atoms: C_19  and  C_21
REMARK   10  A    between atoms: C_19  and  C_22
REMARK   11  A    between atoms: N_27  and  C_28
REMARK   12  A    between atoms: C_28  and  C_29
REMARK   13  A    between atoms: C_28  and  C_30
REMARK   14  A    between atoms: C_28  and  C_31
REMARK                            x       y       z     vdW  Elec       q    Type
REMARK                         _______ _______ _______ _____ _____    ______ ____
ROOT
ATOM      1  C   UNL     1      -8.153  -2.163   0.691  0.00  0.00    -0.023 A 
ATOM      2  C   UNL     1      -7.737  -3.373   0.289  0.00  0.00    -0.007 A 
ATOM      3  S   UNL     1      -6.011  -3.116  -0.079  0.00  0.00    -0.073 S 
ATOM      4  C   UNL     1      -5.899  -1.390   0.318  0.00  0.00    +0.117 A 
ATOM      5  C   UNL     1      -7.206  -1.062   0.725  0.00  0.00    +0.075 A 
ATOM      6  C   UNL     1      -7.413   0.299   1.113  0.00  0.00    +0.261 A 
ATOM      7  O   UNL     1      -8.513   0.676   1.480  0.00  0.00    -0.267 OA
ATOM      8  N   UNL     1      -6.379   1.159   1.066  0.00  0.00    -0.301 N 
ATOM      9  H   UNL     1      -6.516   2.083   1.328  0.00  0.00    +0.171 HD
ATOM     10  C   UNL     1      -5.141   0.755   0.658  0.00  0.00    +0.171 A 
ATOM     11  N   UNL     1      -4.923  -0.491   0.291  0.00  0.00    -0.216 NA
ATOM     12  C   UNL     1      -8.536  -4.645   0.175  0.00  0.00    +0.052 C 
ENDROOT
BRANCH   1  13
ATOM     13  C   UNL     1      -9.587  -1.948   1.102  0.00  0.00    +0.040 C 
BRANCH  13  14
ATOM     14  C   UNL     1     -10.412  -1.540  -0.119  0.00  0.00    -0.010 C 
ATOM     15  C   UNL     1     -10.448  -2.697  -1.121  0.00  0.00    +0.008 C 
BRANCH  14  17
ATOM     16  C   UNL     1     -12.629  -0.675  -0.880  0.00  0.00    +0.004 C 
ATOM     17  C   UNL     1     -11.839  -1.202   0.319  0.00  0.00    +0.000 C 
ENDBRANCH  14  17
ENDBRANCH  13  14
ENDBRANCH   1  13
BRANCH  10  18
ATOM     18  S   UNL     1      -3.818   1.918   0.614  0.00  0.00    -0.075 S 
BRANCH  18  19
ATOM     19  C   UNL     1      -2.482   0.853   0.018  0.00  0.00    +0.137 C 
ATOM     20  C   UNL     1      -2.799   0.384  -1.403  0.00  0.00    +0.029 C 
BRANCH  19  21
ATOM     21  C   UNL     1      -1.187   1.624   0.017  0.00  0.00    +0.233 C 
ATOM     22  O   UNL     1      -1.204   2.836   0.023  0.00  0.00    -0.274 OA
ATOM     23  N   UNL     1      -0.011   0.966   0.007  0.00  0.00    -0.239 N 
ATOM     24  C   UNL     1       1.147   1.655   0.000  0.00  0.00    +0.306 C 
ATOM     25  O   UNL     1       1.130   2.871   0.007  0.00  0.00    -0.252 OA
ATOM     26  N   UNL     1       2.323   0.998  -0.015  0.00  0.00    -0.294 N 
ATOM     27  H   UNL     1       0.002  -0.004   0.002  0.00  0.00    +0.159 HD
ATOM     28  H   UNL     1       2.336   0.028  -0.020  0.00  0.00    +0.151 HD
BRANCH  26  29
ATOM     29  C   UNL     1       3.582   1.747  -0.023  0.00  0.00    +0.028 C 
ATOM     30  C   UNL     1       3.663   2.621   1.230  0.00  0.00    +0.031 C 
ATOM     31  C   UNL     1       4.758   0.769  -0.039  0.00  0.00    +0.031 C 
ATOM     32  C   UNL     1       3.639   2.635  -1.268  0.00  0.00    +0.031 C 
ENDBRANCH  26  29
ENDBRANCH  19  21
ENDBRANCH  18  19
ENDBRANCH  10  18
TORSDOF 7
