REMARK  Name = ZINC36007772
REMARK  9 active torsions:
REMARK  status: ('A' for Active; 'I' for Inactive)
REMARK    1  A    between atoms: C_1  and  C_2
REMARK    2  A    between atoms: C_7  and  C_8
REMARK    3  A    between atoms: C_7  and  C_9
REMARK    4  A    between atoms: C_11  and  N_13
REMARK    5  A    between atoms: C_14  and  C_16
REMARK    6  A    between atoms: C_16  and  S_17
REMARK    7  A    between atoms: S_17  and  C_18
REMARK    8  A    between atoms: C_21  and  C_24
REMARK    9  A    between atoms: N_22  and  N_23
REMARK                            x       y       z     vdW  Elec       q    Type
REMARK                         _______ _______ _______ _____ _____    ______ ____
ROOT
ATOM      1  S   UNL     1       0.530  -0.669  -6.318  0.00  0.00    -0.075 S 
ENDROOT
BRANCH   1   2
ATOM      2  C   UNL     1      -0.640  -0.687  -7.635  0.00  0.00    +0.209 A 
ATOM      3  N   UNL     1      -1.949  -0.708  -7.515  0.00  0.00    -0.121 NA
ATOM      4  N   UNL     1      -2.498  -0.717  -8.677  0.00  0.00    -0.127 NA
ATOM      5  C   UNL     1      -1.575  -0.701  -9.610  0.00  0.00    +0.183 A 
ATOM      6  N   UNL     1      -0.356  -0.675  -8.971  0.00  0.00    -0.224 N 
BRANCH   5   7
ATOM      7  C   UNL     1      -1.801  -0.704 -11.070  0.00  0.00    +0.035 A 
ATOM      8  C   UNL     1      -1.089  -1.582 -11.889  0.00  0.00    +0.013 A 
ATOM      9  C   UNL     1      -1.305  -1.580 -13.251  0.00  0.00    +0.001 A 
ATOM     10  C   UNL     1      -2.226  -0.710 -13.807  0.00  0.00    +0.001 A 
ATOM     11  C   UNL     1      -2.936   0.164 -13.003  0.00  0.00    +0.016 A 
ATOM     12  C   UNL     1      -2.733   0.169 -11.637  0.00  0.00    +0.029 A 
ATOM     13 BR   UNL     1      -3.709   1.358 -10.538  0.00  0.00    -0.050 Br
ENDBRANCH   5   7
BRANCH   6  14
ATOM     14  N   UNL     1       0.880  -0.647  -9.552  0.00  0.00    -0.295 N 
ATOM     15  H   UNL     1       1.190  -1.578  -9.787  0.00  0.00    +0.163 HD
ATOM     16  H   UNL     1       0.884  -0.048 -10.364  0.00  0.00    +0.163 HD
ENDBRANCH   6  14
ENDBRANCH   1   2
BRANCH   1  17
ATOM     17  C   UNL     1      -0.494  -0.696  -4.821  0.00  0.00    +0.173 C 
BRANCH  17  19
ATOM     18  N   UNL     1      -0.150  -0.700  -2.371  0.00  0.00    -0.311 N 
ATOM     19  C   UNL     1       0.395  -0.683  -3.604  0.00  0.00    +0.224 C 
ATOM     20  O   UNL     1       1.600  -0.658  -3.734  0.00  0.00    -0.275 OA
ATOM     21  H   UNL     1      -1.115  -0.720  -2.267  0.00  0.00    +0.149 HD
BRANCH  18  31
ATOM     22  C   UNL     1       2.153   1.471  -1.546  0.00  0.00    +0.013 C 
ATOM     23  C   UNL     1       1.034   0.778  -0.765  0.00  0.00    -0.008 C 
ATOM     24  C   UNL     1      -0.342   1.511  -0.752  0.00  0.00    +0.009 C 
ATOM     25  C   UNL     1      -1.088   0.919   0.466  0.00  0.00    +0.005 C 
ATOM     26  C   UNL     1      -0.093  -0.116   1.073  0.00  0.00    -0.003 C 
ATOM     27  C   UNL     1       1.277   0.589   0.774  0.00  0.00    -0.025 C 
ATOM     28  C   UNL     1       1.404   1.928   1.504  0.00  0.00    +0.012 C 
ATOM     29  C   UNL     1       2.468  -0.328   1.059  0.00  0.00    +0.012 C 
ATOM     30  C   UNL     1      -0.069  -1.286   0.043  0.00  0.00    +0.027 C 
ATOM     31  C   UNL     1       0.714  -0.688  -1.188  0.00  0.00    +0.080 C 
ENDBRANCH  18  31
ENDBRANCH  17  19
ENDBRANCH   1  17
TORSDOF 6
