REMARK  Name = ZINC60348709
REMARK  11 active torsions:
REMARK  status: ('A' for Active; 'I' for Inactive)
REMARK    1  A    between atoms: C_1  and  C_2
REMARK    2  A    between atoms: C_2  and  C_4
REMARK    3  A    between atoms: C_2  and  N_8
REMARK    4  A    between atoms: C_4  and  C_5
REMARK    5  A    between atoms: C_5  and  C_6
REMARK    6  A    between atoms: C_5  and  C_7
REMARK    7  A    between atoms: N_8  and  C_9
REMARK    8  A    between atoms: N_8  and  S_19
REMARK    9  A    between atoms: S_19  and  C_22
REMARK   10  A    between atoms: C_25  and  S_28
REMARK   11  A    between atoms: S_28  and  N_31
REMARK                            x       y       z     vdW  Elec       q    Type
REMARK                         _______ _______ _______ _____ _____    ______ ____
ROOT
ATOM      1  N   UNL     1       0.580  -0.478  -1.258  0.00  0.00    -0.200 N 
ENDROOT
BRANCH   1   2
ATOM      2  C   UNL     1       1.922  -0.215  -1.560  0.00  0.00    +0.052 A 
ATOM      3  C   UNL     1       2.756  -1.253  -1.974  0.00  0.00    +0.027 A 
ATOM      4  C   UNL     1       4.078  -1.012  -2.275  0.00  0.00    +0.028 A 
ATOM      5  C   UNL     1       4.592   0.276  -2.167  0.00  0.00    +0.047 A 
ATOM      6  C   UNL     1       3.754   1.325  -1.751  0.00  0.00    +0.001 A 
ATOM      7  C   UNL     1       2.413   1.072  -1.453  0.00  0.00    +0.034 A 
ATOM      8  C   UNL     1       4.586   2.531  -1.742  0.00  0.00    +0.027 A 
ATOM      9  C   UNL     1       5.817   2.162  -2.132  0.00  0.00    +0.083 A 
ATOM     10  N   UNL     1       5.840   0.819  -2.391  0.00  0.00    -0.361 N 
ATOM     11  H   UNL     1       6.619   0.322  -2.688  0.00  0.00    +0.165 HD
ENDBRANCH   1   2
BRANCH   1  12
ATOM     12  S   UNL     1      -0.474  -0.896  -2.464  0.00  0.00    +0.075 S 
ATOM     13  O   UNL     1       0.317  -1.325  -3.564  0.00  0.00    -0.150 OA
ATOM     14  O   UNL     1      -1.464  -1.724  -1.870  0.00  0.00    -0.150 OA
BRANCH  12  15
ATOM     15  C   UNL     1      -1.292   0.578  -2.976  0.00  0.00    +0.109 A 
ATOM     16  C   UNL     1      -2.466   0.968  -2.358  0.00  0.00    +0.031 A 
ATOM     17  C   UNL     1      -3.107   2.124  -2.760  0.00  0.00    +0.030 A 
ATOM     18  C   UNL     1      -2.575   2.892  -3.779  0.00  0.00    +0.105 A 
ATOM     19  C   UNL     1      -1.401   2.503  -4.396  0.00  0.00    +0.030 A 
ATOM     20  C   UNL     1      -0.757   1.349  -3.992  0.00  0.00    +0.031 A 
BRANCH  18  21
ATOM     21  S   UNL     1      -3.393   4.366  -4.292  0.00  0.00    +0.056 S 
ATOM     22  O   UNL     1      -2.983   4.613  -5.630  0.00  0.00    -0.153 OA
ATOM     23  O   UNL     1      -4.759   4.219  -3.928  0.00  0.00    -0.153 OA
BRANCH  21  24
ATOM     24  N   UNL     1      -2.789   5.605  -3.374  0.00  0.00    -0.204 NA
ATOM     25  H   UNL     1      -2.749   6.503  -3.739  0.00  0.00    +0.144 HD
ATOM     26  H   UNL     1      -2.476   5.433  -2.473  0.00  0.00    +0.144 HD
ENDBRANCH  21  24
ENDBRANCH  18  21
ENDBRANCH  12  15
ENDBRANCH   1  12
BRANCH   1  28
ATOM     27  C   UNL     1       0.228   1.066   0.606  0.00  0.00    +0.030 C 
ATOM     28  C   UNL     1       0.109  -0.382   0.126  0.00  0.00    +0.095 C 
BRANCH  28  29
ATOM     29  C   UNL     1       0.961  -1.286   1.018  0.00  0.00    +0.027 C 
BRANCH  29  30
ATOM     30  C   UNL     1       0.746  -2.747   0.618  0.00  0.00    -0.015 C 
ATOM     31  C   UNL     1       1.689  -3.642   1.425  0.00  0.00    +0.007 C 
ATOM     32  C   UNL     1      -0.703  -3.146   0.903  0.00  0.00    +0.007 C 
ENDBRANCH  29  30
ENDBRANCH  28  29
ENDBRANCH   1  28
TORSDOF 8
