REMARK  Name = ZINC65259958
REMARK  2 active torsions:
REMARK  status: ('A' for Active; 'I' for Inactive)
REMARK    1  A    between atoms: C_14  and  C_16
REMARK    2  A    between atoms: N_23  and  C_24
REMARK                            x       y       z     vdW  Elec       q    Type
REMARK                         _______ _______ _______ _____ _____    ______ ____
ROOT
ATOM      1  C   UNL     1      -1.302   0.342   3.456  0.00  0.00    +0.002 A 
ATOM      2  C   UNL     1      -0.336   1.328   3.528  0.00  0.00    +0.002 A 
ATOM      3  C   UNL     1       0.899   1.137   2.936  0.00  0.00    +0.025 A 
ATOM      4  C   UNL     1       1.170  -0.047   2.268  0.00  0.00    +0.053 A 
ATOM      5  C   UNL     1       0.197  -1.043   2.199  0.00  0.00    +0.049 A 
ATOM      6  C   UNL     1      -1.040  -0.842   2.793  0.00  0.00    +0.025 A 
ATOM      7  N   UNL     1       0.466  -2.252   1.538  0.00  0.00    -0.329 N 
ATOM      8  C   UNL     1       1.602  -2.309   0.610  0.00  0.00    +0.102 C 
ATOM      9  C   UNL     1       1.208  -1.699  -0.733  0.00  0.00    +0.036 C 
ATOM     10  C   UNL     1       0.042  -2.489  -1.334  0.00  0.00    +0.021 C 
ATOM     11  C   UNL     1       0.477  -3.939  -1.562  0.00  0.00    +0.108 C 
ATOM     12  N   UNL     1       0.982  -4.487  -0.295  0.00  0.00    -0.295 N 
ATOM     13  C   UNL     1       2.043  -3.759   0.416  0.00  0.00    +0.141 C 
ATOM     14  C   UNL     1       0.481  -5.634   0.205  0.00  0.00    +0.253 C 
ATOM     15  O   UNL     1       0.948  -6.109   1.224  0.00  0.00    -0.269 OA
ATOM     16  C   UNL     1       2.735  -1.510   1.218  0.00  0.00    +0.098 C 
ATOM     17  N   UNL     1       2.422  -0.236   1.659  0.00  0.00    -0.301 N 
ATOM     18  N   UNL     1       3.932  -1.991   1.321  0.00  0.00    -0.372 N 
ATOM     19  H   UNL     1      -0.088  -3.033   1.692  0.00  0.00    +0.147 HD
ATOM     20  H   UNL     1       4.122  -2.888   1.003  0.00  0.00    +0.161 HD
ATOM     21  H   UNL     1       3.044   0.500   1.551  0.00  0.00    +0.153 HD
ENDROOT
BRANCH  14  22
ATOM     22  C   UNL     1      -0.627  -6.309  -0.477  0.00  0.00    +0.074 A 
ATOM     23  C   UNL     1      -1.727  -6.954   0.069  0.00  0.00    +0.021 A 
ATOM     24  C   UNL     1      -2.608  -7.499  -0.834  0.00  0.00    +0.008 A 
ATOM     25  C   UNL     1      -2.354  -7.375  -2.160  0.00  0.00    +0.046 A 
ATOM     26  S   UNL     1      -0.915  -6.510  -2.224  0.00  0.00    -0.092 S 
ENDBRANCH  14  22
BRANCH  18  27
ATOM     27  C   UNL     1       4.998  -1.183   1.916  0.00  0.00    +0.080 C 
ATOM     28  C   UNL     1       5.674  -0.318   0.832  0.00  0.00    +0.024 C 
ATOM     29  C   UNL     1       7.171  -0.311   1.230  0.00  0.00    +0.002 C 
ATOM     30  C   UNL     1       7.395  -1.756   1.741  0.00  0.00    +0.002 C 
ATOM     31  C   UNL     1       6.093  -2.098   2.494  0.00  0.00    +0.024 C 
ENDBRANCH  18  27
TORSDOF 2
