REMARK  Name = ZINC35685648
REMARK  7 active torsions:
REMARK  status: ('A' for Active; 'I' for Inactive)
REMARK    1  A    between atoms: C_1  and  C_2
REMARK    2  A    between atoms: C_4  and  C_25
REMARK    3  A    between atoms: C_5  and  N_9
REMARK    4  A    between atoms: C_6  and  C_8
REMARK    5  A    between atoms: N_9  and  S_10
REMARK    6  A    between atoms: S_10  and  C_13
REMARK    7  A    between atoms: N_21  and  C_24
REMARK                            x       y       z     vdW  Elec       q    Type
REMARK                         _______ _______ _______ _____ _____    ______ ____
ROOT
ATOM      1  S   UNL     1       0.089  -4.946   1.326  0.00  0.00    +0.072 S 
ATOM      2  O   UNL     1      -0.014  -6.304   0.920  0.00  0.00    -0.150 OA
ATOM      3  O   UNL     1       1.146  -4.475   2.151  0.00  0.00    -0.150 OA
ENDROOT
BRANCH   1   4
ATOM      4  C   UNL     1      -1.413  -4.554   2.159  0.00  0.00    +0.109 A 
ATOM      5  C   UNL     1      -1.465  -3.458   3.000  0.00  0.00    +0.029 A 
ATOM      6  C   UNL     1      -2.639  -3.137   3.663  0.00  0.00    +0.016 A 
ATOM      7  C   UNL     1      -3.768  -3.920   3.481  0.00  0.00    +0.050 A 
ATOM      8  C   UNL     1      -3.714  -5.037   2.623  0.00  0.00    +0.051 A 
ATOM      9  C   UNL     1      -2.535  -5.343   1.963  0.00  0.00    +0.042 A 
ATOM     10  C   UNL     1      -5.064  -5.638   2.658  0.00  0.00    +0.254 C 
ATOM     11  O   UNL     1      -5.416  -6.625   2.044  0.00  0.00    -0.270 OA
ATOM     12  N   UNL     1      -5.837  -4.910   3.483  0.00  0.00    -0.237 N 
ATOM     13  C   UNL     1      -5.148  -3.880   4.008  0.00  0.00    +0.254 C 
ATOM     14  O   UNL     1      -5.587  -3.056   4.785  0.00  0.00    -0.270 OA
ATOM     15  C   UNL     1      -7.244  -5.199   3.772  0.00  0.00    +0.142 C 
ENDBRANCH   1   4
BRANCH   1  16
ATOM     16  N   UNL     1       0.131  -4.040  -0.060  0.00  0.00    -0.216 N 
ATOM     17  H   UNL     1       0.083  -4.475  -0.925  0.00  0.00    +0.174 HD
BRANCH  16  22
ATOM     18  C   UNL     1       0.556   1.606   0.255  0.00  0.00    +0.044 C 
ATOM     19  C   UNL     1       0.443   0.106   0.171  0.00  0.00    -0.050 A 
ATOM     20  C   UNL     1       1.513  -0.688   0.541  0.00  0.00    +0.008 A 
ATOM     21  C   UNL     1       1.413  -2.063   0.465  0.00  0.00    -0.028 A 
ATOM     22  C   UNL     1       0.236  -2.649   0.018  0.00  0.00    +0.054 A 
ATOM     23  C   UNL     1      -0.838  -1.849  -0.352  0.00  0.00    -0.028 A 
ATOM     24  C   UNL     1      -0.733  -0.474  -0.269  0.00  0.00    +0.008 A 
ATOM     25  C   UNL     1      -2.117  -2.480  -0.839  0.00  0.00    +0.046 C 
ATOM     26  C   UNL     1       2.580  -2.928   0.868  0.00  0.00    +0.046 C 
ENDBRANCH  16  22
ENDBRANCH   1  16
TORSDOF 3
