REMARK  Name = ZINC39665696
REMARK  10 active torsions:
REMARK  status: ('A' for Active; 'I' for Inactive)
REMARK    1  A    between atoms: C_1  and  C_2
REMARK    2  A    between atoms: C_6  and  C_9
REMARK    3  A    between atoms: C_13  and  C_22
REMARK    4  A    between atoms: N_24  and  C_25
REMARK    5  A    between atoms: C_25  and  C_26
REMARK    6  A    between atoms: C_26  and  C_28
REMARK    7  A    between atoms: C_26  and  O_29
REMARK    8  A    between atoms: O_29  and  C_30
REMARK    9  A    between atoms: C_33  and  O_36
REMARK   10  A    between atoms: O_36  and  C_37
REMARK                            x       y       z     vdW  Elec       q    Type
REMARK                         _______ _______ _______ _____ _____    ______ ____
ROOT
ATOM      1  C   UNL     1       0.049  -2.815   2.414  0.00  0.00    +0.252 C 
ATOM      2  O   UNL     1       1.113  -3.113   2.923  0.00  0.00    -0.270 OA
ATOM      3  N   UNL     1      -1.106  -3.183   3.003  0.00  0.00    -0.296 N 
ATOM      4  C   UNL     1      -2.487  -2.920   2.535  0.00  0.00    +0.121 C 
ATOM      5  C   UNL     1      -3.259  -4.222   2.848  0.00  0.00    +0.100 C 
ATOM      6  C   UNL     1      -2.464  -4.886   3.984  0.00  0.00    -0.004 C 
ATOM      7  C   UNL     1      -1.282  -3.946   4.261  0.00  0.00    +0.115 C 
ATOM      8  C   UNL     1      -3.335  -5.022   5.229  0.00  0.00    -0.010 C 
ATOM      9  C   UNL     1      -2.542  -5.737   6.327  0.00  0.00    -0.082 C 
ATOM     10  N   UNL     1      -2.127  -7.062   5.848  0.00  0.00    +0.379 N 
ATOM     11  C   UNL     1      -1.215  -6.919   4.707  0.00  0.00    -0.082 C 
ATOM     12  C   UNL     1      -1.952  -6.253   3.542  0.00  0.00    -0.010 C 
ATOM     13  H   UNL     1      -1.658  -7.555   6.593  0.00  0.00    -0.086 HD
ATOM     14  H   UNL     1      -2.941  -7.585   5.563  0.00  0.00    -0.086 HD
ENDROOT
BRANCH   1  20
ATOM     15  C   UNL     1      -0.048   1.562   0.014  0.00  0.00    +0.047 C 
ATOM     16  C   UNL     1      -0.023   0.056  -0.010  0.00  0.00    -0.014 A 
ATOM     17  C   UNL     1      -0.025  -0.615  -1.220  0.00  0.00    +0.009 A 
ATOM     18  C   UNL     1      -0.003  -1.997  -1.253  0.00  0.00    +0.039 A 
ATOM     19  C   UNL     1       0.021  -2.721  -0.076  0.00  0.00    +0.138 A 
ATOM     20  C   UNL     1       0.024  -2.051   1.152  0.00  0.00    +0.107 A 
ATOM     21  C   UNL     1       0.007  -0.652   1.177  0.00  0.00    +0.141 A 
ATOM     22  F   UNL     1       0.015   0.005   2.357  0.00  0.00    -0.204 F 
ATOM     23  F   UNL     1       0.042  -4.071  -0.111  0.00  0.00    -0.205 F 
ENDBRANCH   1  20
BRANCH   5  24
ATOM     24  C   UNL     1      -4.661  -3.905   3.300  0.00  0.00    +0.218 C 
ATOM     25  O   UNL     1      -4.876  -2.907   3.957  0.00  0.00    -0.275 OA
ATOM     26  N   UNL     1      -5.677  -4.729   2.976  0.00  0.00    -0.312 N 
ATOM     27  H   UNL     1      -5.505  -5.527   2.451  0.00  0.00    +0.149 HD
BRANCH  26  28
ATOM     28  C   UNL     1      -7.040  -4.421   3.416  0.00  0.00    +0.148 C 
BRANCH  28  29
ATOM     29  C   UNL     1      -7.995  -5.508   2.919  0.00  0.00    +0.187 C 
ATOM     30  C   UNL     1      -9.418  -5.186   3.378  0.00  0.00    +0.053 C 
BRANCH  29  31
ATOM     31  O   UNL     1      -7.955  -5.559   1.491  0.00  0.00    -0.488 OA
BRANCH  31  32
ATOM     32  C   UNL     1      -8.298  -6.738   0.906  0.00  0.00    +0.121 A 
ATOM     33  C   UNL     1      -8.166  -6.896  -0.466  0.00  0.00    +0.049 A 
ATOM     34  C   UNL     1      -8.514  -8.093  -1.060  0.00  0.00    +0.049 A 
ATOM     35  C   UNL     1      -8.995  -9.138  -0.285  0.00  0.00    +0.120 A 
ATOM     36  C   UNL     1      -9.126  -8.981   1.087  0.00  0.00    +0.049 A 
ATOM     37  C   UNL     1      -8.774  -7.785   1.682  0.00  0.00    +0.049 A 
BRANCH  35  38
ATOM     38  O   UNL     1      -9.339 -10.316  -0.870  0.00  0.00    -0.495 OA
ATOM     39  C   UNL     1      -9.827 -11.349  -0.011  0.00  0.00    +0.277 C 
ENDBRANCH  35  38
ENDBRANCH  31  32
ENDBRANCH  29  31
ENDBRANCH  28  29
ENDBRANCH  26  28
ENDBRANCH   5  24
TORSDOF 7
