REMARK  Name = ZINC64664284
REMARK  7 active torsions:
REMARK  status: ('A' for Active; 'I' for Inactive)
REMARK    1  A    between atoms: C_1  and  C_2
REMARK    2  A    between atoms: C_7  and  C_8
REMARK    3  A    between atoms: C_11  and  C_13
REMARK    4  A    between atoms: C_14  and  N_26
REMARK    5  A    between atoms: N_15  and  C_18
REMARK    6  A    between atoms: C_23  and  O_24
REMARK    7  A    between atoms: O_24  and  C_25
REMARK                            x       y       z     vdW  Elec       q    Type
REMARK                         _______ _______ _______ _____ _____    ______ ____
ROOT
ATOM      1  C   UNL     1      -0.118   3.658   3.649  0.00  0.00    +0.159 A 
ATOM      2  C   UNL     1      -0.077   4.365   4.839  0.00  0.00    +0.150 A 
ATOM      3  N   UNL     1      -0.098   5.686   4.500  0.00  0.00    -0.195 N 
ATOM      4  N   UNL     1      -0.152   5.741   3.101  0.00  0.00    -0.058 NA
ATOM      5  N   UNL     1      -0.157   4.540   2.638  0.00  0.00    -0.125 NA
ENDROOT
BRANCH   3   6
ATOM      6  C   UNL     1      -0.071   6.777   5.382  0.00  0.00    +0.111 A 
ATOM      7  C   UNL     1       0.855   6.816   6.413  0.00  0.00    +0.031 A 
ATOM      8  C   UNL     1       0.879   7.892   7.280  0.00  0.00    +0.002 A 
ATOM      9  C   UNL     1      -0.018   8.932   7.122  0.00  0.00    +0.004 A 
ATOM     10  C   UNL     1      -0.944   8.901   6.096  0.00  0.00    +0.048 A 
ATOM     11  C   UNL     1      -0.972   7.828   5.220  0.00  0.00    +0.145 A 
BRANCH  11  12
ATOM     12  O   UNL     1      -1.878   7.798   4.207  0.00  0.00    -0.493 OA
ATOM     13  C   UNL     1      -2.770   8.909   4.102  0.00  0.00    +0.277 C 
ENDBRANCH  11  12
ENDBRANCH   3   6
BRANCH   1  17
ATOM     14  C   UNL     1      -0.136   0.126   2.485  0.00  0.00    +0.079 A 
ATOM     15  C   UNL     1      -0.091  -0.486   3.708  0.00  0.00    +0.075 A 
ATOM     16  S   UNL     1      -0.063   0.936   4.791  0.00  0.00    -0.073 S 
ATOM     17  C   UNL     1      -0.113   2.188   3.516  0.00  0.00    +0.132 A 
ATOM     18  N   UNL     1      -0.141   1.446   2.419  0.00  0.00    -0.237 NA
BRANCH  14  25
ATOM     19  C   UNL     1      -2.058   0.756   0.416  0.00  0.00    +0.044 C 
ATOM     20  C   UNL     1      -1.094  -0.390   0.241  0.00  0.00    -0.041 A 
ATOM     21  C   UNL     1      -1.119  -1.145  -0.914  0.00  0.00    +0.004 A 
ATOM     22  C   UNL     1      -0.236  -2.196  -1.076  0.00  0.00    +0.000 A 
ATOM     23  C   UNL     1       0.678  -2.498  -0.082  0.00  0.00    +0.001 A 
ATOM     24  C   UNL     1       0.713  -1.750   1.077  0.00  0.00    +0.010 A 
ATOM     25  C   UNL     1      -0.172  -0.685   1.243  0.00  0.00    +0.004 A 
ENDBRANCH  14  25
ENDBRANCH   1  17
BRANCH   2  26
ATOM     26  N   UNL     1      -0.025   3.835   6.120  0.00  0.00    -0.341 N 
ATOM     27  H   UNL     1       0.069   2.878   6.245  0.00  0.00    +0.144 HD
ATOM     28  H   UNL     1      -0.083   4.422   6.890  0.00  0.00    +0.144 HD
ENDBRANCH   2  26
TORSDOF 5
