REMARK  Name = ZINC66240035
REMARK  8 active torsions:
REMARK  status: ('A' for Active; 'I' for Inactive)
REMARK    1  A    between atoms: C_1  and  C_2
REMARK    2  A    between atoms: C_2  and  C_3
REMARK    3  A    between atoms: C_3  and  C_5
REMARK    4  A    between atoms: C_3  and  N_12
REMARK    5  A    between atoms: C_13  and  C_15
REMARK    6  A    between atoms: C_18  and  N_21
REMARK    7  A    between atoms: C_22  and  N_28
REMARK    8  A    between atoms: C_23  and  C_26
REMARK                            x       y       z     vdW  Elec       q    Type
REMARK                         _______ _______ _______ _____ _____    ______ ____
ROOT
ATOM      1  C   UNL     1       3.935   1.526   1.538  0.00  0.00    +0.037 A 
ATOM      2  C   UNL     1       4.891   0.653   1.013  0.00  0.00    +0.015 A 
ATOM      3  C   UNL     1       6.212   1.039   0.949  0.00  0.00    +0.028 A 
ATOM      4  C   UNL     1       6.593   2.297   1.405  0.00  0.00    +0.067 A 
ATOM      5  C   UNL     1       5.644   3.168   1.927  0.00  0.00    +0.028 A 
ATOM      6  C   UNL     1       4.321   2.791   1.990  0.00  0.00    +0.015 A 
ENDROOT
BRANCH   4   7
ATOM      7  N   UNL     1       7.934   2.685   1.338  0.00  0.00    -0.218 N 
ATOM      8  C   UNL     1       8.387   3.943   1.094  0.00  0.00    +0.137 A 
ATOM      9  C   UNL     1       9.778   3.885   1.116  0.00  0.00    +0.111 A 
ATOM     10  C   UNL     1      10.133   2.542   1.382  0.00  0.00    +0.155 A 
ATOM     11  N   UNL     1       9.040   1.846   1.516  0.00  0.00    -0.172 NA
BRANCH   8  12
ATOM     12  N   UNL     1       7.614   5.065   0.868  0.00  0.00    -0.342 N 
ATOM     13  H   UNL     1       6.646   4.996   0.873  0.00  0.00    +0.144 HD
ATOM     14  H   UNL     1       8.039   5.921   0.703  0.00  0.00    +0.144 HD
ENDBRANCH   8  12
BRANCH   9  15
ATOM     15  C   UNL     1      10.678   4.979   0.908  0.00  0.00    +0.104 C 
ATOM     16  N   UNL     1      11.392   5.847   0.743  0.00  0.00    -0.191 NA
ENDBRANCH   9  15
ENDBRANCH   4   7
BRANCH   1  18
ATOM     17  N   UNL     1       2.148  -0.104   1.172  0.00  0.00    -0.305 N 
ATOM     18  C   UNL     1       2.518   1.116   1.608  0.00  0.00    +0.245 C 
ATOM     19  O   UNL     1       1.686   1.879   2.060  0.00  0.00    -0.270 OA
ATOM     20  H   UNL     1       2.812  -0.712   0.811  0.00  0.00    +0.150 HD
BRANCH  17  21
ATOM     21  C   UNL     1       0.742  -0.511   1.242  0.00  0.00    +0.103 C 
BRANCH  21  22
ATOM     22  C   UNL     1       0.657  -2.014   1.298  0.00  0.00    -0.027 A 
ATOM     23  C   UNL     1       1.506  -2.784   0.525  0.00  0.00    +0.007 A 
ATOM     24  C   UNL     1       1.428  -4.163   0.576  0.00  0.00    +0.020 A 
ATOM     25  C   UNL     1       0.500  -4.773   1.401  0.00  0.00    +0.041 A 
ATOM     26  C   UNL     1      -0.350  -4.002   2.174  0.00  0.00    +0.020 A 
ATOM     27  C   UNL     1      -0.267  -2.623   2.126  0.00  0.00    +0.007 A 
ATOM     28 CL   UNL     1       0.401  -6.505   1.465  0.00  0.00    -0.084 Cl
ENDBRANCH  21  22
BRANCH  21  30
ATOM     29  C   UNL     1      -0.019   1.526   0.010  0.00  0.00    +0.006 C 
ATOM     30  C   UNL     1       0.002  -0.004   0.002  0.00  0.00    +0.024 C 
ENDBRANCH  21  30
ENDBRANCH  17  21
ENDBRANCH   1  18
TORSDOF 7
