REMARK  Name = ZINC19817952
REMARK  10 active torsions:
REMARK  status: ('A' for Active; 'I' for Inactive)
REMARK    1  A    between atoms: C_1  and  C_2
REMARK    2  A    between atoms: C_4  and  C_29
REMARK    3  A    between atoms: C_5  and  N_9
REMARK    4  A    between atoms: C_6  and  C_8
REMARK    5  A    between atoms: C_10  and  C_12
REMARK    6  A    between atoms: C_13  and  N_14
REMARK    7  A    between atoms: C_13  and  C_28
REMARK    8  A    between atoms: N_14  and  N_15
REMARK    9  A    between atoms: C_16  and  C_18
REMARK   10  A    between atoms: C_21  and  N_25
REMARK                            x       y       z     vdW  Elec       q    Type
REMARK                         _______ _______ _______ _____ _____    ______ ____
ROOT
ATOM      1  C   UNL     1      -4.746   1.073  -0.559  0.00  0.00    +0.087 C 
ATOM      2  C   UNL     1      -5.958   1.963  -0.456  0.00  0.00    +0.024 C 
ATOM      3  C   UNL     1      -5.794   3.423  -0.121  0.00  0.00    +0.062 C 
ENDROOT
BRANCH   1   5
ATOM      4  N   UNL     1      -2.294   1.291  -0.322  0.00  0.00    -0.281 N 
ATOM      5  C   UNL     1      -3.504   1.882  -0.285  0.00  0.00    +0.243 C 
ATOM      6  O   UNL     1      -3.595   3.064  -0.031  0.00  0.00    -0.270 OA
ATOM      7  H   UNL     1      -2.217   0.203  -0.461  0.00  0.00    +0.155 HD
BRANCH   4  12
ATOM      8  C   UNL     1       2.413   4.408   0.244  0.00  0.00    +0.044 C 
ATOM      9  C   UNL     1       1.161   3.583   0.092  0.00  0.00    -0.050 A 
ATOM     10  C   UNL     1       0.190   3.614   1.076  0.00  0.00    +0.008 A 
ATOM     11  C   UNL     1      -0.958   2.859   0.940  0.00  0.00    -0.029 A 
ATOM     12  C   UNL     1      -1.134   2.062  -0.184  0.00  0.00    +0.040 A 
ATOM     13  C   UNL     1      -0.160   2.038  -1.173  0.00  0.00    -0.029 A 
ATOM     14  C   UNL     1       0.986   2.795  -1.031  0.00  0.00    +0.008 A 
ATOM     15  C   UNL     1      -0.350   1.180  -2.398  0.00  0.00    +0.045 C 
ATOM     16  C   UNL     1      -2.016   2.893   2.013  0.00  0.00    +0.045 C 
ENDBRANCH   4  12
ENDBRANCH   1   5
BRANCH   2  17
ATOM     17  N   UNL     1      -7.127   1.478  -0.652  0.00  0.00    -0.268 N 
ATOM     18  H   UNL     1      -7.246   0.412  -0.897  0.00  0.00    +0.170 HD
BRANCH  17  19
ATOM     19  N   UNL     1      -8.253   2.305  -0.557  0.00  0.00    -0.233 N 
ATOM     20  C   UNL     1      -9.483   1.795  -0.764  0.00  0.00    +0.261 C 
ATOM     21  O   UNL     1      -9.615   0.617  -1.034  0.00  0.00    -0.269 OA
ATOM     22  H   UNL     1      -8.134   3.371  -0.312  0.00  0.00    +0.173 HD
BRANCH  20  23
ATOM     23  C   UNL     1     -10.671   2.667  -0.663  0.00  0.00    +0.057 A 
ATOM     24  C   UNL     1     -10.524   4.021  -0.353  0.00  0.00    +0.017 A 
ATOM     25  C   UNL     1     -11.637   4.830  -0.260  0.00  0.00    +0.033 A 
ATOM     26  C   UNL     1     -12.899   4.303  -0.473  0.00  0.00    +0.128 A 
ATOM     27  C   UNL     1     -13.054   2.964  -0.780  0.00  0.00    +0.053 A 
ATOM     28  C   UNL     1     -11.948   2.143  -0.882  0.00  0.00    +0.055 A 
ATOM     29 CL   UNL     1     -12.143   0.464  -1.275  0.00  0.00    -0.083 Cl
BRANCH  26  30
ATOM     30  N   UNL     1     -14.088   5.178  -0.372  0.00  0.00    +0.056 N 
ATOM     31  O   UNL     1     -13.955   6.358  -0.102  0.00  0.00    -0.126 OA
ATOM     32  O   UNL     1     -15.201   4.718  -0.559  0.00  0.00    -0.126 OA
ENDBRANCH  26  30
ENDBRANCH  20  23
ENDBRANCH  17  19
ENDBRANCH   2  17
TORSDOF 6
