REMARK  Name = ZINC20072320
REMARK  7 active torsions:
REMARK  status: ('A' for Active; 'I' for Inactive)
REMARK    1  A    between atoms: C_1  and  C_2
REMARK    2  A    between atoms: C_2  and  C_4
REMARK    3  A    between atoms: C_2  and  S_15
REMARK    4  A    between atoms: C_7  and  C_9
REMARK    5  A    between atoms: S_15  and  C_16
REMARK    6  A    between atoms: N_29  and  C_30
REMARK    7  A    between atoms: C_30  and  C_31
REMARK                            x       y       z     vdW  Elec       q    Type
REMARK                         _______ _______ _______ _____ _____    ______ ____
ROOT
ATOM      1  C   UNL     1      -0.135   6.327   0.033  0.00  0.00    +0.174 A 
ATOM      2  N   UNL     1      -1.047   5.363   0.038  0.00  0.00    -0.216 NA
ATOM      3  C   UNL     1      -0.609   4.111   0.029  0.00  0.00    +0.117 A 
ATOM      4  C   UNL     1       0.759   3.752   0.014  0.00  0.00    +0.076 A 
ATOM      5  C   UNL     1       1.046   2.328   0.005  0.00  0.00    -0.023 A 
ATOM      6  C   UNL     1      -0.018   1.493   0.010  0.00  0.00    -0.004 A 
ATOM      7  S   UNL     1      -1.441   2.555   0.022  0.00  0.00    -0.073 S 
ATOM      8  C   UNL     1       0.002  -0.004   0.002  0.00  0.00    +0.043 C 
ATOM      9  C   UNL     1       1.412  -0.469  -0.389  0.00  0.00    +0.005 C 
ATOM     10  C   UNL     1       2.433   0.311   0.444  0.00  0.00    +0.005 C 
ATOM     11  C   UNL     1       2.467   1.770  -0.011  0.00  0.00    +0.037 C 
ATOM     12  C   UNL     1       1.715   4.820   0.009  0.00  0.00    +0.264 A 
ATOM     13  O   UNL     1       2.916   4.612  -0.004  0.00  0.00    -0.267 OA
ATOM     14  N   UNL     1       1.202   6.073   0.019  0.00  0.00    -0.280 N 
ENDROOT
BRANCH   1  15
ATOM     15  S   UNL     1      -0.677   8.003   0.045  0.00  0.00    -0.075 S 
BRANCH  15  17
ATOM     16  C   UNL     1      -2.878   7.075   1.370  0.00  0.00    +0.029 C 
ATOM     17  C   UNL     1      -2.470   7.754   0.061  0.00  0.00    +0.139 C 
BRANCH  17  18
ATOM     18  C   UNL     1      -3.163   9.087  -0.050  0.00  0.00    +0.231 A 
ATOM     19  N   UNL     1      -2.858  10.171   0.607  0.00  0.00    -0.111 NA
ATOM     20  N   UNL     1      -3.657  11.120   0.265  0.00  0.00    -0.107 NA
ATOM     21  C   UNL     1      -4.505  10.671  -0.629  0.00  0.00    +0.248 A 
ATOM     22  O   UNL     1      -4.204   9.376  -0.850  0.00  0.00    -0.419 OA
BRANCH  21  23
ATOM     23  C   UNL     1      -5.586  11.444  -1.279  0.00  0.00    +0.038 A 
ATOM     24  C   UNL     1      -6.413  10.834  -2.223  0.00  0.00    +0.013 A 
ATOM     25  C   UNL     1      -7.424  11.558  -2.821  0.00  0.00    +0.001 A 
ATOM     26  C   UNL     1      -7.609  12.890  -2.495  0.00  0.00    +0.000 A 
ATOM     27  C   UNL     1      -6.789  13.502  -1.565  0.00  0.00    +0.001 A 
ATOM     28  C   UNL     1      -5.779  12.787  -0.955  0.00  0.00    +0.013 A 
ENDBRANCH  21  23
ENDBRANCH  17  18
ENDBRANCH  15  17
ENDBRANCH   1  15
BRANCH  14  29
ATOM     29  C   UNL     1       2.129   7.207   0.016  0.00  0.00    +0.201 C 
BRANCH  29  30
ATOM     30  C   UNL     1       2.461   7.590   1.435  0.00  0.00    +0.125 A 
ATOM     31  C   UNL     1       3.475   7.095   2.167  0.00  0.00    +0.046 A 
ATOM     32  C   UNL     1       3.416   7.729   3.430  0.00  0.00    +0.041 A 
ATOM     33  C   UNL     1       2.364   8.566   3.397  0.00  0.00    +0.195 A 
ATOM     34  O   UNL     1       1.789   8.478   2.186  0.00  0.00    -0.466 OA
ENDBRANCH  29  30
ENDBRANCH  14  29
TORSDOF 6
