REMARK  Name = ZINC03427147
REMARK  4 active torsions:
REMARK  status: ('A' for Active; 'I' for Inactive)
REMARK    1  A    between atoms: C_11  and  C_13
REMARK    2  A    between atoms: C_13  and  N_14
REMARK    3  A    between atoms: C_17  and  C_22
REMARK    4  A    between atoms: C_22  and  C_23
REMARK                            x       y       z     vdW  Elec       q    Type
REMARK                         _______ _______ _______ _____ _____    ______ ____
ROOT
ATOM      1  N   UNL     1      -0.829   0.428  -3.195  0.00  0.00    -0.216 N 
ATOM      2  C   UNL     1       0.003   1.222  -2.492  0.00  0.00    +0.244 C 
ATOM      3  O   UNL     1       1.122   1.569  -2.804  0.00  0.00    -0.273 OA
ATOM      4  C   UNL     1      -0.753   1.593  -1.232  0.00  0.00    +0.165 C 
ATOM      5  N   UNL     1      -2.043   0.899  -1.385  0.00  0.00    -0.287 N 
ATOM      6  C   UNL     1      -1.992   0.246  -2.560  0.00  0.00    +0.310 C 
ATOM      7  O   UNL     1      -2.902  -0.431  -2.997  0.00  0.00    -0.252 OA
ATOM      8  H   UNL     1      -2.785   0.910  -0.760  0.00  0.00    +0.151 HD
ENDROOT
BRANCH   1   9
ATOM      9  C   UNL     1      -0.499  -0.164  -4.494  0.00  0.00    +0.213 C 
BRANCH   9  20
ATOM     10  C   UNL     1      -1.160  -4.850  -9.259  0.00  0.00    +0.000 A 
ATOM     11  C   UNL     1      -1.132  -3.535  -9.686  0.00  0.00    +0.000 A 
ATOM     12  C   UNL     1      -0.643  -2.554  -8.848  0.00  0.00    +0.005 A 
ATOM     13  C   UNL     1      -0.181  -2.877  -7.579  0.00  0.00    -0.027 A 
ATOM     14  C   UNL     1      -0.215  -4.185  -7.150  0.00  0.00    -0.041 A 
ATOM     15  C   UNL     1      -0.704  -5.172  -7.998  0.00  0.00    +0.004 A 
ATOM     16  C   UNL     1       0.253  -4.609  -5.783  0.00  0.00    +0.054 C 
ATOM     17  C   UNL     1       1.184  -3.554  -5.174  0.00  0.00    +0.113 C 
ATOM     18  N   UNL     1       0.541  -2.240  -5.346  0.00  0.00    -0.296 N 
ATOM     19  C   UNL     1       0.349  -1.759  -6.718  0.00  0.00    +0.143 C 
ATOM     20  C   UNL     1       0.150  -1.508  -4.284  0.00  0.00    +0.234 C 
ATOM     21  O   UNL     1       0.321  -1.929  -3.160  0.00  0.00    -0.274 OA
ENDBRANCH   9  20
ENDBRANCH   1   9
BRANCH   4  22
ATOM     22  C   UNL     1      -0.013   1.086   0.008  0.00  0.00    +0.069 C 
BRANCH  22  23
ATOM     23  C   UNL     1      -0.718   1.572   1.248  0.00  0.00    -0.020 A 
ATOM     24  C   UNL     1      -0.420   2.672   1.957  0.00  0.00    +0.087 A 
ATOM     25  N   UNL     1      -1.277   2.791   3.017  0.00  0.00    -0.360 N 
ATOM     26  H   UNL     1      -1.258   3.506   3.672  0.00  0.00    +0.165 HD
ATOM     27  C   UNL     1      -2.171   1.743   3.016  0.00  0.00    +0.047 A 
ATOM     28  C   UNL     1      -1.863   0.937   1.904  0.00  0.00    +0.003 A 
ATOM     29  C   UNL     1      -2.611  -0.215   1.651  0.00  0.00    +0.010 A 
ATOM     30  C   UNL     1      -3.645  -0.548   2.480  0.00  0.00    +0.001 A 
ATOM     31  C   UNL     1      -3.956   0.247   3.575  0.00  0.00    +0.002 A 
ATOM     32  C   UNL     1      -3.228   1.385   3.846  0.00  0.00    +0.026 A 
ENDBRANCH  22  23
ENDBRANCH   4  22
TORSDOF 4
