REMARK  Name = ZINC22518059
REMARK  10 active torsions:
REMARK  status: ('A' for Active; 'I' for Inactive)
REMARK    1  A    between atoms: C_1  and  C_2
REMARK    2  A    between atoms: C_3  and  C_7
REMARK    3  A    between atoms: C_10  and  S_13
REMARK    4  A    between atoms: N_11  and  N_12
REMARK    5  A    between atoms: S_13  and  C_14
REMARK    6  A    between atoms: C_14  and  C_16
REMARK    7  A    between atoms: C_14  and  C_17
REMARK    8  A    between atoms: N_19  and  C_20
REMARK    9  A    between atoms: C_20  and  C_22
REMARK   10  A    between atoms: C_20  and  C_23
REMARK                            x       y       z     vdW  Elec       q    Type
REMARK                         _______ _______ _______ _____ _____    ______ ____
ROOT
ATOM      1  C   UNL     1      -5.461   5.028  -0.698  0.00  0.00    +0.137 C 
ATOM      2  C   UNL     1      -5.143   5.729  -2.020  0.00  0.00    +0.029 C 
ENDROOT
BRANCH   1   3
ATOM      3  C   UNL     1      -6.864   5.373  -0.271  0.00  0.00    +0.227 C 
ATOM      4  O   UNL     1      -7.769   4.590  -0.471  0.00  0.00    -0.275 OA
ATOM      5  N   UNL     1      -7.114   6.551   0.333  0.00  0.00    -0.308 N 
ATOM      6  H   UNL     1      -6.293   7.261   0.515  0.00  0.00    +0.149 HD
BRANCH   5   7
ATOM      7  C   UNL     1      -8.478   6.887   0.749  0.00  0.00    +0.102 C 
ATOM      8  C   UNL     1      -8.734   6.336   2.153  0.00  0.00    +0.033 C 
BRANCH   7   9
ATOM      9  C   UNL     1      -8.646   8.384   0.758  0.00  0.00    -0.009 A 
ATOM     10  C   UNL     1      -7.551   9.202   0.965  0.00  0.00    +0.008 A 
ATOM     11  C   UNL     1      -7.704  10.575   0.974  0.00  0.00    +0.020 A 
ATOM     12  C   UNL     1      -8.955  11.133   0.776  0.00  0.00    +0.042 A 
ATOM     13  C   UNL     1     -10.052  10.316   0.568  0.00  0.00    +0.040 A 
ATOM     14  C   UNL     1      -9.896   8.941   0.554  0.00  0.00    +0.047 A 
ATOM     15 CL   UNL     1     -11.271   7.915   0.286  0.00  0.00    -0.083 Cl
ATOM     16 CL   UNL     1      -9.148  12.858   0.787  0.00  0.00    -0.083 Cl
ENDBRANCH   7   9
ENDBRANCH   5   7
ENDBRANCH   1   3
BRANCH   1  17
ATOM     17  S   UNL     1      -5.320   3.236  -0.917  0.00  0.00    -0.072 S 
BRANCH  17  21
ATOM     18  C   UNL     1      -1.601   2.338  -1.713  0.00  0.00    +0.185 A 
ATOM     19  N   UNL     1      -1.561   3.643  -1.575  0.00  0.00    -0.127 NA
ATOM     20  N   UNL     1      -2.735   4.094  -1.311  0.00  0.00    -0.121 NA
ATOM     21  C   UNL     1      -3.596   3.104  -1.255  0.00  0.00    +0.209 A 
ATOM     22  N   UNL     1      -2.905   1.952  -1.508  0.00  0.00    -0.224 N 
BRANCH  18  25
ATOM     23  C   UNL     1       1.368   3.228  -2.184  0.00  0.00    +0.087 C 
ATOM     24  C   UNL     1       0.834   1.819  -2.232  0.00  0.00    +0.112 A 
ATOM     25  C   UNL     1      -0.459   1.451  -2.022  0.00  0.00    +0.061 A 
ATOM     26  C   UNL     1      -0.487  -0.009  -2.173  0.00  0.00    +0.053 A 
ATOM     27  C   UNL     1       0.774  -0.377  -2.455  0.00  0.00    +0.196 A 
ATOM     28  O   UNL     1       1.552   0.716  -2.488  0.00  0.00    -0.467 OA
ENDBRANCH  18  25
BRANCH  22  29
ATOM     29  N   UNL     1      -3.406   0.681  -1.551  0.00  0.00    -0.295 N 
ATOM     30  H   UNL     1      -4.476   0.506  -1.368  0.00  0.00    +0.163 HD
ATOM     31  H   UNL     1      -2.738  -0.166  -1.767  0.00  0.00    +0.163 HD
ENDBRANCH  22  29
ENDBRANCH  17  21
ENDBRANCH   1  17
TORSDOF 7
