REMARK  Name = ZINC09255354
REMARK  11 active torsions:
REMARK  status: ('A' for Active; 'I' for Inactive)
REMARK    1  A    between atoms: C_1  and  C_2
REMARK    2  A    between atoms: C_4  and  C_14
REMARK    3  A    between atoms: C_5  and  C_13
REMARK    4  A    between atoms: N_6  and  C_7
REMARK    5  A    between atoms: C_7  and  C_8
REMARK    6  A    between atoms: C_15  and  C_16
REMARK    7  A    between atoms: N_18  and  C_19
REMARK    8  A    between atoms: N_18  and  C_20
REMARK    9  A    between atoms: C_21  and  N_36
REMARK   10  A    between atoms: N_22  and  C_29
REMARK   11  A    between atoms: C_29  and  C_30
REMARK                            x       y       z     vdW  Elec       q    Type
REMARK                         _______ _______ _______ _____ _____    ______ ____
ROOT
ATOM      1  C   UNL     1       5.191   3.352   2.396  0.00  0.00    +0.244 C 
ATOM      2  O   UNL     1       5.766   3.539   1.339  0.00  0.00    -0.270 OA
ATOM      3  N   UNL     1       3.894   2.986   2.403  0.00  0.00    -0.264 N 
ATOM      4  C   UNL     1       3.172   2.870   3.673  0.00  0.00    +0.139 C 
ENDROOT
BRANCH   3   5
ATOM      5  C   UNL     1       3.232   2.712   1.188  0.00  0.00    +0.140 A 
ATOM      6  C   UNL     1       2.196   3.516   0.757  0.00  0.00    +0.128 A 
ATOM      7  N   UNL     1       1.566   3.221  -0.429  0.00  0.00    -0.276 N 
ATOM      8  C   UNL     1       1.962   2.168  -1.167  0.00  0.00    +0.331 A 
ATOM      9  O   UNL     1       1.395   1.926  -2.215  0.00  0.00    -0.246 OA
ATOM     10  N   UNL     1       2.973   1.377  -0.766  0.00  0.00    -0.273 N 
ATOM     11  H   UNL     1       3.248   0.601  -1.333  0.00  0.00    +0.173 HD
ATOM     12  C   UNL     1       3.620   1.619   0.391  0.00  0.00    +0.277 A 
ATOM     13  O   UNL     1       4.535   0.895   0.746  0.00  0.00    -0.266 OA
BRANCH   6  14
ATOM     14  N   UNL     1       1.795   4.596   1.508  0.00  0.00    -0.343 N 
ATOM     15  H   UNL     1       1.100   5.185   1.177  0.00  0.00    +0.144 HD
ATOM     16  H   UNL     1       2.207   4.768   2.369  0.00  0.00    +0.144 HD
ENDBRANCH   6  14
BRANCH   7  17
ATOM     17  C   UNL     1       0.461   4.062  -0.895  0.00  0.00    +0.163 C 
BRANCH  17  18
ATOM     18  C   UNL     1      -0.842   3.520  -0.365  0.00  0.00    -0.028 A 
ATOM     19  C   UNL     1      -1.553   2.589  -1.099  0.00  0.00    +0.005 A 
ATOM     20  C   UNL     1      -2.745   2.088  -0.610  0.00  0.00    +0.000 A 
ATOM     21  C   UNL     1      -3.231   2.526   0.608  0.00  0.00    +0.000 A 
ATOM     22  C   UNL     1      -2.522   3.461   1.339  0.00  0.00    +0.000 A 
ATOM     23  C   UNL     1      -1.328   3.958   0.853  0.00  0.00    +0.005 A 
ENDBRANCH  17  18
ENDBRANCH   7  17
ENDBRANCH   3   5
BRANCH   1  25
ATOM     24  C   UNL     1       7.187   3.889   3.612  0.00  0.00    +0.015 C 
ATOM     25  C   UNL     1       5.886   3.522   3.620  0.00  0.00    +0.068 C 
BRANCH  24  29
ATOM     26  C   UNL     1       8.296   4.093   8.585  0.00  0.00    +0.063 C 
ATOM     27  C   UNL     1       8.380   4.150   7.081  0.00  0.00    +0.017 A 
ATOM     28  C   UNL     1       7.369   3.889   6.234  0.00  0.00    +0.030 A 
ATOM     29  C   UNL     1       7.907   4.065   4.880  0.00  0.00    -0.004 A 
ATOM     30  C   UNL     1       9.227   4.434   5.041  0.00  0.00    +0.023 A 
ATOM     31  N   UNL     1       9.491   4.480   6.363  0.00  0.00    -0.340 N 
ATOM     32  C   UNL     1      10.203   4.734   3.933  0.00  0.00    +0.064 C 
BRANCH  31  33
ATOM     33  C   UNL     1      10.789   4.834   6.945  0.00  0.00    +0.196 C 
BRANCH  33  34
ATOM     34  C   UNL     1      10.847   6.322   7.175  0.00  0.00    +0.124 A 
ATOM     35  C   UNL     1      10.461   6.961   8.293  0.00  0.00    +0.046 A 
ATOM     36  C   UNL     1      10.690   8.340   8.078  0.00  0.00    +0.041 A 
ATOM     37  C   UNL     1      11.195   8.461   6.837  0.00  0.00    +0.195 A 
ATOM     38  O   UNL     1      11.287   7.236   6.294  0.00  0.00    -0.466 OA
ENDBRANCH  33  34
ENDBRANCH  31  33
ENDBRANCH  24  29
ENDBRANCH   1  25
TORSDOF 8
