REMARK  Name = ZINC35643974
REMARK  13 active torsions:
REMARK  status: ('A' for Active; 'I' for Inactive)
REMARK    1  A    between atoms: C_2  and  C_3
REMARK    2  A    between atoms: C_3  and  O_4
REMARK    3  A    between atoms: O_4  and  C_5
REMARK    4  A    between atoms: C_5  and  C_7
REMARK    5  A    between atoms: C_9  and  O_39
REMARK    6  A    between atoms: C_11  and  O_38
REMARK    7  A    between atoms: C_13  and  O_37
REMARK    8  A    between atoms: C_15  and  O_18
REMARK    9  A    between atoms: O_18  and  C_19
REMARK   10  A    between atoms: C_19  and  C_21
REMARK   11  A    between atoms: C_21  and  C_22
REMARK   12  A    between atoms: C_27  and  N_28
REMARK   13  A    between atoms: N_28  and  C_29
REMARK                            x       y       z     vdW  Elec       q    Type
REMARK                         _______ _______ _______ _____ _____    ______ ____
ROOT
ATOM      1  O   UNL     1      -3.164  -6.569  -2.737  0.00  0.00    -0.432 OA
ENDROOT
BRANCH   1   6
ATOM      2  C   UNL     1      -3.309  -3.790  -2.346  0.00  0.00    +0.261 C 
ATOM      3  C   UNL     1      -3.402  -3.287  -3.789  0.00  0.00    +0.185 C 
ATOM      4  C   UNL     1      -3.377  -4.486  -4.742  0.00  0.00    +0.180 C 
ATOM      5  C   UNL     1      -4.525  -5.434  -4.382  0.00  0.00    +0.214 C 
ATOM      6  C   UNL     1      -4.388  -5.854  -2.916  0.00  0.00    +0.343 C 
ATOM      7  O   UNL     1      -4.387  -4.691  -2.086  0.00  0.00    -0.322 OA
BRANCH   2   8
ATOM      8  C   UNL     1      -3.392  -2.620  -1.400  0.00  0.00    +0.339 C 
ATOM      9  O   UNL     1      -4.332  -2.517  -0.648  0.00  0.00    -0.248 OA
BRANCH   8  10
ATOM     10  O   UNL     1      -2.421  -1.693  -1.393  0.00  0.00    -0.459 OA
BRANCH  10  11
ATOM     11  C   UNL     1      -2.565  -0.611  -0.470  0.00  0.00    +0.259 C 
BRANCH  11  13
ATOM     12  C   UNL     1      -1.584   1.618  -0.643  0.00  0.00    +0.007 C 
ATOM     13  C   UNL     1      -1.390   0.323  -0.604  0.00  0.00    +0.006 C 
ENDBRANCH  11  13
ENDBRANCH  10  11
ENDBRANCH   8  10
ENDBRANCH   2   8
BRANCH   5  14
ATOM     14  O   UNL     1      -4.469  -6.591  -5.219  0.00  0.00    -0.383 OA
ATOM     15  H   UNL     1      -5.168  -7.236  -5.045  0.00  0.00    +0.210 HD
ENDBRANCH   5  14
BRANCH   4  16
ATOM     16  O   UNL     1      -2.130  -5.172  -4.615  0.00  0.00    -0.386 OA
ATOM     17  H   UNL     1      -2.046  -5.944  -5.191  0.00  0.00    +0.210 HD
ENDBRANCH   4  16
BRANCH   3  18
ATOM     18  O   UNL     1      -4.620  -2.561  -3.964  0.00  0.00    -0.386 OA
ATOM     19  H   UNL     1      -4.705  -1.790  -3.388  0.00  0.00    +0.210 HD
ENDBRANCH   3  18
ENDBRANCH   1   6
BRANCH   1  20
ATOM     20  C   UNL     1      -2.985  -7.186  -1.559  0.00  0.00    +0.314 C 
ATOM     21  O   UNL     1      -3.840  -7.122  -0.708  0.00  0.00    -0.250 OA
BRANCH  20  22
ATOM     22  C   UNL     1      -1.718  -7.959  -1.298  0.00  0.00    +0.157 C 
BRANCH  22  23
ATOM     23  C   UNL     1      -1.767  -8.550   0.087  0.00  0.00    -0.016 A 
ATOM     24  C   UNL     1      -1.190  -7.878   1.147  0.00  0.00    +0.006 A 
ATOM     25  C   UNL     1      -1.234  -8.420   2.418  0.00  0.00    +0.000 A 
ATOM     26  C   UNL     1      -1.856  -9.637   2.633  0.00  0.00    +0.002 A 
ATOM     27  C   UNL     1      -2.434 -10.315   1.579  0.00  0.00    +0.023 A 
ATOM     28  C   UNL     1      -2.396  -9.770   0.301  0.00  0.00    +0.035 A 
BRANCH  28  29
ATOM     29  N   UNL     1      -2.985 -10.450  -0.768  0.00  0.00    -0.312 N 
ATOM     30  H   UNL     1      -3.950 -10.543  -0.811  0.00  0.00    +0.152 HD
BRANCH  29  31
ATOM     31  C   UNL     1      -2.184 -10.997  -1.775  0.00  0.00    +0.068 A 
ATOM     32  C   UNL     1      -0.877 -11.378  -1.496  0.00  0.00    +0.063 A 
ATOM     33  C   UNL     1      -0.088 -11.918  -2.495  0.00  0.00    +0.022 A 
ATOM     34  C   UNL     1      -0.599 -12.080  -3.770  0.00  0.00    +0.003 A 
ATOM     35  C   UNL     1      -1.899 -11.703  -4.051  0.00  0.00    +0.022 A 
ATOM     36  C   UNL     1      -2.696 -11.167  -3.057  0.00  0.00    +0.063 A 
ATOM     37 CL   UNL     1      -4.330 -10.701  -3.409  0.00  0.00    -0.082 Cl
ATOM     38 CL   UNL     1      -0.235 -11.174   0.104  0.00  0.00    -0.082 Cl
ENDBRANCH  29  31
ENDBRANCH  28  29
ENDBRANCH  22  23
ENDBRANCH  20  22
ENDBRANCH   1  20
TORSDOF 13
