REMARK  Name = ZINC28057133
REMARK  9 active torsions:
REMARK  status: ('A' for Active; 'I' for Inactive)
REMARK    1  A    between atoms: C_1  and  C_2
REMARK    2  A    between atoms: C_2  and  O_3
REMARK    3  A    between atoms: O_3  and  C_4
REMARK    4  A    between atoms: C_7  and  C_12
REMARK    5  A    between atoms: C_9  and  O_10
REMARK    6  A    between atoms: O_10  and  C_11
REMARK    7  A    between atoms: C_30  and  C_32
REMARK    8  A    between atoms: C_36  and  O_38
REMARK    9  A    between atoms: O_38  and  C_39
REMARK                            x       y       z     vdW  Elec       q    Type
REMARK                         _______ _______ _______ _____ _____    ______ ____
ROOT
ATOM      1  C   UNL     1       0.208   6.050  -0.473  0.00  0.00    +0.234 C 
ATOM      2  C   UNL     1      -0.871   6.421  -1.465  0.00  0.00    +0.025 C 
ATOM      3  C   UNL     1      -1.651   7.474  -1.215  0.00  0.00    +0.050 C 
ATOM      4  C   UNL     1      -1.411   8.252   0.024  0.00  0.00    +0.039 A 
ATOM      5  C   UNL     1      -2.362   9.132   0.525  0.00  0.00    +0.033 A 
ATOM      6  C   UNL     1      -2.094   9.838   1.683  0.00  0.00    +0.042 A 
ATOM      7  C   UNL     1      -0.886   9.669   2.340  0.00  0.00    +0.023 A 
ATOM      8  C   UNL     1       0.066   8.795   1.847  0.00  0.00    +0.048 A 
ATOM      9  C   UNL     1      -0.190   8.083   0.690  0.00  0.00    +0.131 A 
ATOM     10  O   UNL     1       0.718   7.215   0.174  0.00  0.00    -0.479 OA
ATOM     11 CL   UNL     1      -3.276  10.940   2.317  0.00  0.00    -0.084 Cl
ATOM     12  N   UNL     1      -2.686   7.860  -2.076  0.00  0.00    -0.282 N 
ATOM     13  C   UNL     1      -3.056   6.965  -3.066  0.00  0.00    +0.240 A 
ATOM     14  N   UNL     1      -4.096   6.931  -3.849  0.00  0.00    -0.092 NA
ATOM     15  N   UNL     1      -4.038   5.902  -4.623  0.00  0.00    -0.021 NA
ATOM     16  N   UNL     1      -2.964   5.220  -4.387  0.00  0.00    -0.042 NA
ATOM     17  N   UNL     1      -2.285   5.887  -3.369  0.00  0.00    -0.201 N 
ATOM     18  C   UNL     1      -1.024   5.581  -2.710  0.00  0.00    +0.174 C 
ATOM     19  H   UNL     1      -3.169   8.840  -1.951  0.00  0.00    +0.155 HD
ENDROOT
BRANCH   1  23
ATOM     20  C   UNL     1      -1.432   3.411   2.465  0.00  0.00    +0.162 A 
ATOM     21  C   UNL     1      -1.701   4.769   2.522  0.00  0.00    +0.050 A 
ATOM     22  C   UNL     1      -1.171   5.619   1.570  0.00  0.00    +0.011 A 
ATOM     23  C   UNL     1      -0.368   5.119   0.562  0.00  0.00    +0.001 A 
ATOM     24  C   UNL     1      -0.091   3.766   0.502  0.00  0.00    +0.057 A 
ATOM     25  C   UNL     1      -0.619   2.908   1.453  0.00  0.00    +0.162 A 
BRANCH  25  26
ATOM     26  O   UNL     1      -0.348   1.576   1.396  0.00  0.00    -0.491 OA
ATOM     27  C   UNL     1       0.489   1.130   0.327  0.00  0.00    +0.277 C 
ENDBRANCH  25  26
BRANCH  20  28
ATOM     28  O   UNL     1      -1.957   2.572   3.397  0.00  0.00    -0.489 OA
BRANCH  28  30
ATOM     29  C   UNL     1      -3.278   2.067   5.357  0.00  0.00    +0.048 C 
ATOM     30  C   UNL     1      -2.783   3.158   4.406  0.00  0.00    +0.226 C 
ENDBRANCH  28  30
ENDBRANCH  20  28
ENDBRANCH   1  23
BRANCH  18  31
ATOM     31  C   UNL     1       0.116   5.876  -3.651  0.00  0.00    -0.015 A 
ATOM     32  C   UNL     1       0.291   7.156  -4.144  0.00  0.00    +0.006 A 
ATOM     33  C   UNL     1       1.339   7.431  -5.003  0.00  0.00    +0.004 A 
ATOM     34  C   UNL     1       2.207   6.425  -5.380  0.00  0.00    +0.045 A 
ATOM     35  C   UNL     1       2.030   5.139  -4.891  0.00  0.00    +0.120 A 
ATOM     36  C   UNL     1       0.981   4.867  -4.025  0.00  0.00    +0.051 A 
BRANCH  35  37
ATOM     37  O   UNL     1       2.883   4.147  -5.261  0.00  0.00    -0.495 OA
ATOM     38  C   UNL     1       3.940   4.500  -6.155  0.00  0.00    +0.277 C 
ENDBRANCH  35  37
ENDBRANCH  18  31
TORSDOF 6
