REMARK  Name = ZINC04133860
REMARK  2 active torsions:
REMARK  status: ('A' for Active; 'I' for Inactive)
REMARK    1  A    between atoms: C_1  and  C_2
REMARK    2  A    between atoms: C_3  and  C_11
REMARK                            x       y       z     vdW  Elec       q    Type
REMARK                         _______ _______ _______ _____ _____    ______ ____
ROOT
ATOM      1  C   UNL     1       1.704   3.192   0.018  0.00  0.00    +0.099 A 
ATOM      2  C   UNL     1       2.935   3.532   0.508  0.00  0.00    +0.078 A 
ATOM      3  S   UNL     1       2.918   5.302   0.256  0.00  0.00    -0.060 S 
ATOM      4  C   UNL     1       1.288   5.411  -0.469  0.00  0.00    +0.164 A 
ATOM      5  N   UNL     1       0.910   4.146  -0.465  0.00  0.00    -0.223 NA
ATOM      6  N   UNL     1       0.603   6.529  -0.921  0.00  0.00    -0.279 N 
ATOM      7  C   UNL     1       1.145   7.798  -0.739  0.00  0.00    +0.124 A 
ATOM      8  C   UNL     1       0.404   8.921  -1.094  0.00  0.00    +0.044 A 
ATOM      9  C   UNL     1       0.953  10.176  -0.903  0.00  0.00    +0.005 A 
ATOM     10  C   UNL     1       2.233  10.266  -0.371  0.00  0.00    +0.020 A 
ATOM     11  C   UNL     1       2.913   9.110  -0.046  0.00  0.00    +0.113 A 
ATOM     12  N   UNL     1       2.362   7.925  -0.234  0.00  0.00    -0.240 NA
ATOM     13  H   UNL     1      -0.254   6.427  -1.365  0.00  0.00    +0.155 HD
ENDROOT
BRANCH   1  16
ATOM     14  C   UNL     1      -1.261   2.199   0.035  0.00  0.00    +0.068 C 
ATOM     15  C   UNL     1      -0.028   1.333   0.030  0.00  0.00    +0.066 A 
ATOM     16  C   UNL     1       1.261   1.781   0.020  0.00  0.00    +0.095 A 
ATOM     17  N   UNL     1       2.070   0.669   0.013  0.00  0.00    -0.298 N 
ATOM     18  C   UNL     1       3.426   0.513   0.002  0.00  0.00    +0.093 A 
ATOM     19  C   UNL     1       3.975  -0.720  -0.004  0.00  0.00    +0.018 A 
ATOM     20  C   UNL     1       3.155  -1.861   0.000  0.00  0.00    +0.005 A 
ATOM     21  C   UNL     1       1.802  -1.720   0.011  0.00  0.00    +0.047 A 
ATOM     22  C   UNL     1       1.243  -0.426   0.018  0.00  0.00    +0.138 A 
ATOM     23  N   UNL     1      -0.013   0.001   0.028  0.00  0.00    -0.232 NA
ENDBRANCH   1  16
TORSDOF 1
