REMARK  Name = ZINC52397285
REMARK  3 active torsions:
REMARK  status: ('A' for Active; 'I' for Inactive)
REMARK    1  A    between atoms: C_3  and  C_6
REMARK    2  A    between atoms: N_10  and  C_14
REMARK    3  A    between atoms: C_14  and  C_15
REMARK                            x       y       z     vdW  Elec       q    Type
REMARK                         _______ _______ _______ _____ _____    ______ ____
ROOT
ATOM      1  C   UNL     1       3.678   1.649  -0.025  0.00  0.00    +0.035 C 
ATOM      2  C   UNL     1       4.666   0.710  -0.039  0.00  0.00    +0.080 C 
ATOM      3  C   UNL     1       6.083   0.882  -0.046  0.00  0.00    +0.261 C 
ATOM      4  O   UNL     1       6.580   1.994  -0.039  0.00  0.00    -0.269 OA
ATOM      5  N   UNL     1       6.840  -0.201  -0.060  0.00  0.00    -0.219 N 
ATOM      6  C   UNL     1       6.289  -1.435  -0.068  0.00  0.00    +0.286 C 
ATOM      7  O   UNL     1       6.843  -2.518  -0.081  0.00  0.00    -0.262 OA
ATOM      8  S   UNL     1       4.540  -1.073  -0.046  0.00  0.00    -0.026 S 
ENDROOT
BRANCH   1  11
ATOM      9  C   UNL     1      -0.016   1.352   0.009  0.00  0.00    +0.008 A 
ATOM     10  C   UNL     1       1.175   2.037   0.002  0.00  0.00    +0.015 A 
ATOM     11  C   UNL     1       2.322   1.249  -0.013  0.00  0.00    +0.013 A 
ATOM     12  S   UNL     1       1.635  -0.396  -0.016  0.00  0.00    -0.097 S 
ATOM     13  C   UNL     1       0.002  -0.004   0.002  0.00  0.00    +0.046 A 
ENDBRANCH   1  11
BRANCH   5  14
ATOM     14  C   UNL     1       8.299  -0.062  -0.069  0.00  0.00    +0.213 C 
BRANCH  14  15
ATOM     15  C   UNL     1       8.808  -0.027   1.349  0.00  0.00    +0.237 C 
ATOM     16  O   UNL     1       8.029  -0.110   2.276  0.00  0.00    -0.274 OA
ATOM     17  N   UNL     1      10.129   0.096   1.588  0.00  0.00    -0.263 N 
ATOM     18  C   UNL     1      10.598   0.129   2.896  0.00  0.00    +0.165 A 
ATOM     19  N   UNL     1       9.913   0.048   4.010  0.00  0.00    -0.229 NA
ATOM     20  C   UNL     1      10.504   0.092   5.213  0.00  0.00    +0.054 A 
ATOM     21  C   UNL     1      11.849   0.229   5.179  0.00  0.00    +0.014 A 
ATOM     22  S   UNL     1      12.186   0.275   3.435  0.00  0.00    -0.057 S 
ATOM     23  C   UNL     1      12.447   0.278   6.552  0.00  0.00    +0.045 C 
ATOM     24  C   UNL     1      11.254   0.581   7.487  0.00  0.00    +0.011 C 
ATOM     25  C   UNL     1      10.066   0.026   6.674  0.00  0.00    +0.056 C 
ATOM     26  H   UNL     1      10.751   0.163   0.848  0.00  0.00    +0.157 HD
ENDBRANCH  14  15
ENDBRANCH   5  14
TORSDOF 3
