REMARK  Name = ZINC13635459
REMARK  8 active torsions:
REMARK  status: ('A' for Active; 'I' for Inactive)
REMARK    1  A    between atoms: C_1  and  C_2
REMARK    2  A    between atoms: C_2  and  C_3
REMARK    3  A    between atoms: C_3  and  C_4
REMARK    4  A    between atoms: C_4  and  C_5
REMARK    5  A    between atoms: C_5  and  N_6
REMARK    6  A    between atoms: N_31  and  C_32
REMARK    7  A    between atoms: C_32  and  C_33
REMARK    8  A    between atoms: C_33  and  C_34
REMARK                            x       y       z     vdW  Elec       q    Type
REMARK                         _______ _______ _______ _____ _____    ______ ____
ROOT
ATOM      1  N   UNL     1      -0.392   6.912   0.493  0.00  0.00    -0.269 N 
ATOM      2  C   UNL     1      -0.578   6.846  -0.877  0.00  0.00    +0.042 A 
ATOM      3  C   UNL     1      -0.285   7.795  -1.857  0.00  0.00    +0.024 A 
ATOM      4  C   UNL     1      -0.578   7.462  -3.170  0.00  0.00    +0.002 A 
ATOM      5  C   UNL     1      -1.135   6.245  -3.508  0.00  0.00    +0.000 A 
ATOM      6  C   UNL     1      -1.431   5.291  -2.541  0.00  0.00    +0.008 A 
ATOM      7  C   UNL     1      -1.143   5.615  -1.232  0.00  0.00    +0.012 A 
ATOM      8  C   UNL     1      -1.321   4.856   0.042  0.00  0.00    +0.183 C 
ATOM      9  C   UNL     1      -0.800   5.785   1.114  0.00  0.00    +0.254 C 
ATOM     10  O   UNL     1      -0.757   5.561   2.306  0.00  0.00    -0.272 OA
ATOM     11  C   UNL     1      -0.532   3.573   0.032  0.00  0.00    +0.058 A 
ATOM     12  C   UNL     1      -1.111   2.351   0.025  0.00  0.00    -0.015 A 
ATOM     13  C   UNL     1      -0.041   1.375   0.003  0.00  0.00    +0.003 A 
ATOM     14  C   UNL     1      -0.033  -0.023  -0.016  0.00  0.00    +0.010 A 
ATOM     15  C   UNL     1       1.195  -0.637  -0.027  0.00  0.00    +0.001 A 
ATOM     16  C   UNL     1       2.378   0.084  -0.020  0.00  0.00    +0.002 A 
ATOM     17  C   UNL     1       2.400   1.468  -0.002  0.00  0.00    +0.026 A 
ATOM     18  C   UNL     1       1.167   2.118   0.010  0.00  0.00    +0.047 A 
ATOM     19  N   UNL     1       0.831   3.441   0.028  0.00  0.00    -0.355 N 
ATOM     20  H   UNL     1       1.463   4.177   0.037  0.00  0.00    +0.166 HD
ATOM     21  C   UNL     1      -2.599   2.109   0.040  0.00  0.00    +0.056 C 
ATOM     22  C   UNL     1      -3.322   3.387  -0.402  0.00  0.00    +0.116 C 
ATOM     23  N   UNL     1      -2.731   4.540   0.297  0.00  0.00    -0.262 N 
ATOM     24  C   UNL     1      -3.467   5.286   1.144  0.00  0.00    +0.304 C 
ATOM     25  O   UNL     1      -2.944   6.186   1.772  0.00  0.00    -0.253 OA
ATOM     26  N   UNL     1      -4.782   5.033   1.296  0.00  0.00    -0.299 N 
ATOM     27  H   UNL     1      -5.184   4.270   0.852  0.00  0.00    +0.150 HD
ENDROOT
BRANCH   1  28
ATOM     28  C   UNL     1       0.181   8.069   1.187  0.00  0.00    +0.114 C 
BRANCH  28  29
ATOM     29  C   UNL     1      -0.939   9.033   1.581  0.00  0.00    +0.019 C 
BRANCH  29  30
ATOM     30  C   UNL     1      -0.341  10.241   2.306  0.00  0.00    +0.001 C 
BRANCH  30  32
ATOM     31  C   UNL     1      -0.863  12.412   3.425  0.00  0.00    +0.004 C 
ATOM     32  C   UNL     1      -1.462  11.205   2.700  0.00  0.00    -0.003 C 
ENDBRANCH  30  32
ENDBRANCH  29  30
ENDBRANCH  28  29
ENDBRANCH   1  28
BRANCH  26  33
ATOM     33  C   UNL     1      -5.605   5.911   2.131  0.00  0.00    +0.105 C 
BRANCH  33  34
ATOM     34  C   UNL     1      -7.049   5.406   2.135  0.00  0.00    +0.015 C 
ATOM     35  C   UNL     1      -7.908   6.323   3.007  0.00  0.00    +0.005 C 
ENDBRANCH  33  34
ENDBRANCH  26  33
TORSDOF 6
