REMARK  Name = ZINC00716700
REMARK  8 active torsions:
REMARK  status: ('A' for Active; 'I' for Inactive)
REMARK    1  A    between atoms: C_1  and  C_2
REMARK    2  A    between atoms: C_2  and  C_3
REMARK    3  A    between atoms: C_2  and  C_4
REMARK    4  A    between atoms: C_2  and  O_29
REMARK    5  A    between atoms: C_5  and  C_6
REMARK    6  A    between atoms: C_9  and  C_12
REMARK    7  A    between atoms: C_17  and  C_20
REMARK    8  A    between atoms: C_17  and  N_23
REMARK                            x       y       z     vdW  Elec       q    Type
REMARK                         _______ _______ _______ _____ _____    ______ ____
ROOT
ATOM      1  C   UNL     1      -6.211  -3.526   0.354  0.00  0.00    +0.247 C 
ATOM      2  O   UNL     1      -6.758  -2.440   0.363  0.00  0.00    -0.270 OA
ATOM      3  N   UNL     1      -6.935  -4.644   0.154  0.00  0.00    -0.298 N 
ATOM      4  C   UNL     1      -6.310  -5.970   0.261  0.00  0.00    +0.107 C 
ATOM      5  C   UNL     1      -7.117  -6.818   1.249  0.00  0.00    +0.016 C 
ATOM      6  C   UNL     1      -8.583  -6.848   0.810  0.00  0.00    +0.015 C 
ATOM      7  C   UNL     1      -9.149  -5.426   0.820  0.00  0.00    +0.016 C 
ATOM      8  C   UNL     1      -8.366  -4.562  -0.167  0.00  0.00    +0.107 C 
ENDROOT
BRANCH   6   9
ATOM      9  N   UNL     1      -9.354  -7.687   1.737  0.00  0.00    +0.389 N 
ATOM     10  C   UNL     1      -8.817  -9.053   1.719  0.00  0.00    -0.077 C 
ATOM     11  C   UNL     1      -9.564  -9.912   2.742  0.00  0.00    -0.019 C 
ATOM     12  C   UNL     1     -11.053  -9.942   2.385  0.00  0.00    -0.004 C 
ATOM     13  C   UNL     1     -11.585  -8.507   2.334  0.00  0.00    -0.019 C 
ATOM     14  C   UNL     1     -10.763  -7.700   1.326  0.00  0.00    -0.077 C 
ATOM     15  H   UNL     1      -9.280  -7.311   2.670  0.00  0.00    -0.080 HD
ENDBRANCH   6   9
BRANCH   1  19
ATOM     16  C   UNL     1      -2.011  -3.792   0.953  0.00  0.00    +0.025 A 
ATOM     17  C   UNL     1      -2.748  -2.798   1.602  0.00  0.00    +0.017 A 
ATOM     18  C   UNL     1      -4.107  -2.711   1.408  0.00  0.00    +0.014 A 
ATOM     19  C   UNL     1      -4.752  -3.618   0.562  0.00  0.00    +0.037 A 
ATOM     20  C   UNL     1      -4.015  -4.612  -0.088  0.00  0.00    +0.014 A 
ATOM     21  C   UNL     1      -2.654  -4.694   0.102  0.00  0.00    +0.017 A 
BRANCH  16  23
ATOM     22  C   UNL     1       0.563  -3.955   1.320  0.00  0.00    -0.063 C 
ATOM     23  C   UNL     1      -0.597  -3.881   1.155  0.00  0.00    -0.063 C 
BRANCH  22  25
ATOM     24  C   UNL     1       2.465  -2.951   2.496  0.00  0.00    +0.055 C 
ATOM     25  C   UNL     1       2.018  -4.047   1.528  0.00  0.00    +0.121 C 
ATOM     26  C   UNL     1       2.363  -5.418   2.114  0.00  0.00    +0.055 C 
BRANCH  25  27
ATOM     27  O   UNL     1       2.689  -3.881   0.277  0.00  0.00    -0.377 OA
ATOM     28  H   UNL     1       2.515  -3.032  -0.153  0.00  0.00    +0.211 HD
ENDBRANCH  25  27
ENDBRANCH  22  25
ENDBRANCH  16  23
ENDBRANCH   1  19
BRANCH   6  29
ATOM     29  C   UNL     1      -8.679  -7.418  -0.582  0.00  0.00    +0.200 C 
ATOM     30  O   UNL     1      -7.741  -8.022  -1.056  0.00  0.00    -0.278 OA
ATOM     31  N   UNL     1      -9.808  -7.255  -1.299  0.00  0.00    -0.330 N 
ATOM     32  H   UNL     1     -10.531  -6.711  -0.950  0.00  0.00    +0.145 HD
ATOM     33  H   UNL     1      -9.898  -7.683  -2.166  0.00  0.00    +0.145 HD
ENDBRANCH   6  29
TORSDOF 6
