REMARK  Name = ZINC59109781
REMARK  8 active torsions:
REMARK  status: ('A' for Active; 'I' for Inactive)
REMARK    1  A    between atoms: C_1  and  C_2
REMARK    2  A    between atoms: C_2  and  C_3
REMARK    3  A    between atoms: C_3  and  C_5
REMARK    4  A    between atoms: C_3  and  N_6
REMARK    5  A    between atoms: N_6  and  S_7
REMARK    6  A    between atoms: S_7  and  C_10
REMARK    7  A    between atoms: C_13  and  N_16
REMARK    8  A    between atoms: C_17  and  C_19
REMARK                            x       y       z     vdW  Elec       q    Type
REMARK                         _______ _______ _______ _____ _____    ______ ____
ROOT
ATOM      1  N   UNL     1      -4.354   5.129   2.054  0.00  0.00    -0.285 N 
ATOM      2  C   UNL     1      -5.201   5.134   3.102  0.00  0.00    +0.229 C 
ATOM      3  O   UNL     1      -5.766   4.112   3.431  0.00  0.00    -0.274 OA
ATOM      4  H   UNL     1      -3.852   5.929   1.832  0.00  0.00    +0.155 HD
ENDROOT
BRANCH   2   5
ATOM      5  C   UNL     1      -5.449   6.410   3.864  0.00  0.00    +0.142 C 
ATOM      6  C   UNL     1      -4.146   6.918   4.420  0.00  0.00    +0.011 A 
ATOM      7  C   UNL     1      -3.260   7.573   3.583  0.00  0.00    +0.008 A 
ATOM      8  C   UNL     1      -2.059   8.047   4.075  0.00  0.00    +0.001 A 
ATOM      9  C   UNL     1      -1.738   7.867   5.408  0.00  0.00    +0.004 A 
ATOM     10  C   UNL     1      -2.618   7.214   6.248  0.00  0.00    +0.046 A 
ATOM     11  C   UNL     1      -3.827   6.737   5.756  0.00  0.00    +0.133 A 
ATOM     12  O   UNL     1      -4.678   6.099   6.596  0.00  0.00    -0.455 OA
ATOM     13  C   UNL     1      -5.993   6.002   6.283  0.00  0.00    +0.133 A 
ATOM     14  C   UNL     1      -6.427   6.144   4.975  0.00  0.00    +0.011 A 
ATOM     15  C   UNL     1      -7.776   6.040   4.682  0.00  0.00    +0.008 A 
ATOM     16  C   UNL     1      -8.690   5.797   5.689  0.00  0.00    +0.001 A 
ATOM     17  C   UNL     1      -8.259   5.655   6.995  0.00  0.00    +0.004 A 
ATOM     18  C   UNL     1      -6.915   5.757   7.294  0.00  0.00    +0.046 A 
ENDBRANCH   2   5
BRANCH   1  22
ATOM     19  C   UNL     1      -3.888   1.676  -0.230  0.00  0.00    +0.105 A 
ATOM     20  C   UNL     1      -4.103   1.578   1.133  0.00  0.00    +0.030 A 
ATOM     21  C   UNL     1      -4.257   2.721   1.893  0.00  0.00    +0.025 A 
ATOM     22  C   UNL     1      -4.197   3.969   1.287  0.00  0.00    +0.034 A 
ATOM     23  C   UNL     1      -3.980   4.064  -0.082  0.00  0.00    +0.025 A 
ATOM     24  C   UNL     1      -3.822   2.917  -0.835  0.00  0.00    +0.030 A 
BRANCH  19  25
ATOM     25  S   UNL     1      -3.691   0.215  -1.196  0.00  0.00    +0.059 S 
ATOM     26  O   UNL     1      -4.040   0.560  -2.529  0.00  0.00    -0.153 OA
ATOM     27  O   UNL     1      -4.338  -0.832  -0.485  0.00  0.00    -0.153 OA
BRANCH  25  28
ATOM     28  N   UNL     1      -2.075  -0.149  -1.208  0.00  0.00    -0.187 NA
ATOM     29  H   UNL     1      -1.577  -0.114  -2.040  0.00  0.00    +0.148 HD
BRANCH  28  30
ATOM     30  C   UNL     1      -1.399  -0.524   0.036  0.00  0.00    +0.073 C 
ATOM     31  C   UNL     1      -1.369  -2.049   0.160  0.00  0.00    +0.025 C 
BRANCH  30  33
ATOM     32  C   UNL     1       0.002   1.544   0.022  0.00  0.00    +0.005 C 
ATOM     33  C   UNL     1       0.033   0.015   0.021  0.00  0.00    +0.017 C 
ENDBRANCH  30  33
ENDBRANCH  28  30
ENDBRANCH  25  28
ENDBRANCH  19  25
ENDBRANCH   1  22
TORSDOF 6
