REMARK  Name = ZINC36490911
REMARK  6 active torsions:
REMARK  status: ('A' for Active; 'I' for Inactive)
REMARK    1  A    between atoms: C_6  and  C_7
REMARK    2  A    between atoms: C_7  and  C_9
REMARK    3  A    between atoms: C_7  and  N_18
REMARK    4  A    between atoms: N_11  and  C_12
REMARK    5  A    between atoms: N_18  and  C_19
REMARK    6  A    between atoms: C_25  and  C_27
REMARK                            x       y       z     vdW  Elec       q    Type
REMARK                         _______ _______ _______ _____ _____    ______ ____
ROOT
ATOM      1  C   UNL     1      -1.213  -0.750   0.058  0.00  0.00    +0.192 C 
ENDROOT
BRANCH   1   7
ATOM      2  C   UNL     1       1.105  -0.408   0.937  0.00  0.00    +0.007 A 
ATOM      3  C   UNL     1       2.323   0.246   0.928  0.00  0.00    +0.020 A 
ATOM      4  C   UNL     1       2.549   1.274   0.030  0.00  0.00    +0.041 A 
ATOM      5  C   UNL     1       1.557   1.646  -0.859  0.00  0.00    +0.020 A 
ATOM      6  C   UNL     1       0.340   0.991  -0.850  0.00  0.00    +0.007 A 
ATOM      7  C   UNL     1       0.114  -0.036   0.048  0.00  0.00    -0.018 A 
ATOM      8 CL   UNL     1       4.078   2.096   0.019  0.00  0.00    -0.084 Cl
ENDBRANCH   1   7
BRANCH   1   9
ATOM      9  C   UNL     1      -1.461  -1.332   1.426  0.00  0.00    +0.238 C 
ATOM     10  O   UNL     1      -1.608  -2.528   1.558  0.00  0.00    -0.273 OA
ATOM     11  N   UNL     1      -1.519  -0.522   2.502  0.00  0.00    -0.311 N 
ATOM     12  H   UNL     1      -1.401   0.435   2.396  0.00  0.00    +0.149 HD
BRANCH  11  13
ATOM     13  C   UNL     1      -1.760  -1.088   3.832  0.00  0.00    +0.073 C 
ATOM     14  C   UNL     1      -3.265  -1.247   4.053  0.00  0.00    +0.022 C 
ATOM     15  C   UNL     1      -3.516  -1.837   5.442  0.00  0.00    +0.002 C 
ATOM     16  C   UNL     1      -2.941  -0.901   6.506  0.00  0.00    +0.000 C 
ATOM     17  C   UNL     1      -1.435  -0.742   6.285  0.00  0.00    +0.002 C 
ATOM     18  C   UNL     1      -1.184  -0.151   4.896  0.00  0.00    +0.022 C 
ENDBRANCH  11  13
ENDBRANCH   1   9
BRANCH   1  19
ATOM     19  N   UNL     1      -1.195  -1.827  -0.935  0.00  0.00    -0.281 N 
ATOM     20  C   UNL     1      -2.032  -1.785  -1.990  0.00  0.00    +0.237 C 
ATOM     21  O   UNL     1      -1.947  -2.620  -2.866  0.00  0.00    -0.274 OA
BRANCH  20  22
ATOM     22  C   UNL     1      -3.074  -0.700  -2.083  0.00  0.00    +0.159 C 
ATOM     23  C   UNL     1      -4.257  -1.013  -1.140  0.00  0.00    +0.041 C 
ATOM     24  C   UNL     1      -5.229  -1.752  -2.089  0.00  0.00    +0.098 C 
ATOM     25  C   UNL     1      -4.856  -1.250  -3.466  0.00  0.00    +0.214 C 
ATOM     26  O   UNL     1      -5.547  -1.363  -4.457  0.00  0.00    -0.276 OA
ATOM     27  N   UNL     1      -3.647  -0.660  -3.434  0.00  0.00    -0.304 N 
ATOM     28  H   UNL     1      -3.210  -0.260  -4.202  0.00  0.00    +0.149 HD
ENDBRANCH  20  22
BRANCH  19  29
ATOM     29  C   UNL     1      -0.267  -2.950  -0.781  0.00  0.00    +0.077 C 
ATOM     30  C   UNL     1      -1.051  -4.264  -0.791  0.00  0.00    +0.022 C 
ATOM     31  C   UNL     1      -0.082  -5.437  -0.630  0.00  0.00    +0.002 C 
ATOM     32  C   UNL     1       0.922  -5.433  -1.785  0.00  0.00    +0.000 C 
ATOM     33  C   UNL     1       1.705  -4.119  -1.774  0.00  0.00    +0.002 C 
ATOM     34  C   UNL     1       0.736  -2.946  -1.936  0.00  0.00    +0.022 C 
ENDBRANCH  19  29
ENDBRANCH   1  19
TORSDOF 6
