REMARK  Name = ZINC15062532
REMARK  5 active torsions:
REMARK  status: ('A' for Active; 'I' for Inactive)
REMARK    1  A    between atoms: C_10  and  C_11
REMARK    2  A    between atoms: C_11  and  N_65
REMARK    3  A    between atoms: C_17  and  C_19
REMARK    4  A    between atoms: C_19  and  C_20
REMARK    5  A    between atoms: N_22  and  C_23
REMARK                            x       y       z     vdW  Elec       q    Type
REMARK                         _______ _______ _______ _____ _____    ______ ____
ROOT
ATOM      1  C   UNL     1      -4.288   3.468   3.135  0.00  0.00    -0.058 C 
ATOM      2  C   UNL     1      -4.757   2.753   4.404  0.00  0.00    +0.085 C 
ATOM      3  N   UNL     1      -6.013   2.054   4.149  0.00  0.00    -0.318 N 
ATOM      4  C   UNL     1      -6.448   1.765   2.918  0.00  0.00    +0.200 C 
ATOM      5  O   UNL     1      -7.489   1.154   2.798  0.00  0.00    -0.278 OA
ATOM      6  C   UNL     1      -5.700   2.165   1.678  0.00  0.00    +0.028 C 
ATOM      7  H   UNL     1      -6.557   1.788   4.907  0.00  0.00    +0.149 HD
ATOM      8  N   UNL     1      -4.305   2.491   2.027  0.00  0.00    +0.391 N 
ATOM      9  H   UNL     1      -3.825   1.635   2.328  0.00  0.00    -0.080 HD
ENDROOT
BRANCH   8  10
ATOM     10  C   UNL     1      -3.604   3.048   0.848  0.00  0.00    -0.041 C 
BRANCH  10  20
ATOM     11  C   UNL     1       0.893   0.772   1.736  0.00  0.00    +0.001 A 
ATOM     12  C   UNL     1      -0.371   0.328   1.353  0.00  0.00    +0.001 A 
ATOM     13  C   UNL     1      -1.400   1.204   1.188  0.00  0.00    +0.009 A 
ATOM     14  C   UNL     1      -1.191   2.574   1.417  0.00  0.00    -0.017 A 
ATOM     15  C   UNL     1       0.095   3.025   1.806  0.00  0.00    -0.018 A 
ATOM     16  C   UNL     1       1.135   2.092   1.962  0.00  0.00    +0.008 A 
ATOM     17  C   UNL     1       0.306   4.396   2.029  0.00  0.00    +0.008 A 
ATOM     18  C   UNL     1      -0.724   5.271   1.869  0.00  0.00    +0.001 A 
ATOM     19  C   UNL     1      -1.988   4.828   1.486  0.00  0.00    +0.002 A 
ATOM     20  C   UNL     1      -2.230   3.507   1.262  0.00  0.00    -0.056 A 
ENDBRANCH  10  20
ENDBRANCH   8  10
BRANCH   6  21
ATOM     21  C   UNL     1      -5.705   1.001   0.685  0.00  0.00    +0.089 C 
BRANCH  21  22
ATOM     22  C   UNL     1      -5.004  -0.184   1.297  0.00  0.00    +0.212 C 
ATOM     23  O   UNL     1      -4.443  -0.071   2.366  0.00  0.00    -0.276 OA
ATOM     24  N   UNL     1      -5.000  -1.370   0.656  0.00  0.00    -0.312 N 
ATOM     25  H   UNL     1      -5.449  -1.461  -0.199  0.00  0.00    +0.149 HD
BRANCH  24  26
ATOM     26  C   UNL     1      -4.318  -2.522   1.251  0.00  0.00    +0.079 C 
ATOM     27  C   UNL     1      -2.834  -2.484   0.882  0.00  0.00    +0.010 C 
ATOM     28  C   UNL     1      -2.122  -3.687   1.503  0.00  0.00    +0.009 C 
ATOM     29  C   UNL     1      -2.747  -4.979   0.973  0.00  0.00    -0.010 C 
ATOM     30  C   UNL     1      -2.599  -5.029  -0.550  0.00  0.00    +0.007 C 
ATOM     31  C   UNL     1      -3.311  -3.826  -1.171  0.00  0.00    -0.010 C 
ATOM     32  C   UNL     1      -2.686  -2.534  -0.640  0.00  0.00    +0.009 C 
ATOM     33  C   UNL     1      -4.795  -3.865  -0.801  0.00  0.00    +0.009 C 
ATOM     34  C   UNL     1      -4.943  -3.814   0.721  0.00  0.00    +0.010 C 
ATOM     35  C   UNL     1      -4.231  -5.018   1.342  0.00  0.00    +0.009 C 
ENDBRANCH  24  26
ENDBRANCH  21  22
ENDBRANCH   6  21
TORSDOF 5
