REMARK  Name = ZINC03142245
REMARK  10 active torsions:
REMARK  status: ('A' for Active; 'I' for Inactive)
REMARK    1  A    between atoms: C_1  and  C_2
REMARK    2  A    between atoms: C_2  and  C_3
REMARK    3  A    between atoms: C_2  and  C_4
REMARK    4  A    between atoms: N_6  and  C_7
REMARK    5  A    between atoms: C_7  and  C_9
REMARK    6  A    between atoms: C_7  and  N_13
REMARK    7  A    between atoms: N_13  and  C_14
REMARK    8  A    between atoms: C_14  and  N_16
REMARK    9  A    between atoms: N_16  and  C_17
REMARK   10  A    between atoms: C_18  and  C_26
REMARK                            x       y       z     vdW  Elec       q    Type
REMARK                         _______ _______ _______ _____ _____    ______ ____
ROOT
ATOM      1  C   UNL     1      -2.281   7.221  -2.922  0.00  0.00    +0.136 C 
ATOM      2  S   UNL     1      -2.254   5.976  -4.097  0.00  0.00    -0.019 S 
ENDROOT
BRANCH   1   3
ATOM      3  N   UNL     1      -2.617   8.476  -3.279  0.00  0.00    -0.305 N 
ATOM      4  H   UNL     1      -2.633   9.182  -2.613  0.00  0.00    +0.150 HD
BRANCH   3   5
ATOM      5  C   UNL     1      -2.958   8.776  -4.672  0.00  0.00    +0.211 C 
BRANCH   5   8
ATOM      6  C   UNL     1      -5.157   7.979  -5.354  0.00  0.00    +0.217 C 
ATOM      7  O   UNL     1      -4.631   6.964  -5.758  0.00  0.00    -0.275 OA
ATOM      8  N   UNL     1      -4.408   8.949  -4.793  0.00  0.00    -0.293 N 
ATOM      9  H   UNL     1      -4.829   9.761  -4.470  0.00  0.00    +0.151 HD
BRANCH   6  11
ATOM     10  C   UNL     1      -6.946   9.392  -6.330  0.00  0.00    +0.017 C 
ATOM     11  C   UNL     1      -6.649   8.156  -5.479  0.00  0.00    +0.069 C 
ATOM     12  C   UNL     1      -7.255   6.920  -6.145  0.00  0.00    +0.017 C 
ENDBRANCH   6  11
ENDBRANCH   5   8
BRANCH   5  13
ATOM     13  C   UNL     1      -2.254  10.064  -5.104  0.00  0.00    +0.225 C 
ATOM     14 CL   UNL     1      -0.469   9.852  -4.954  0.00  0.00    -0.080 Cl
ATOM     15 CL   UNL     1      -2.674  10.433  -6.818  0.00  0.00    -0.080 Cl
ATOM     16 CL   UNL     1      -2.788  11.424  -4.048  0.00  0.00    -0.080 Cl
ENDBRANCH   5  13
ENDBRANCH   3   5
ENDBRANCH   1   3
BRANCH   1  17
ATOM     17  N   UNL     1      -1.968   6.945  -1.641  0.00  0.00    -0.290 N 
ATOM     18  H   UNL     1      -1.983   7.650  -0.975  0.00  0.00    +0.154 HD
BRANCH  17  19
ATOM     19  C   UNL     1      -1.622   5.652  -1.274  0.00  0.00    +0.089 A 
ATOM     20  C   UNL     1      -1.272   5.177  -0.019  0.00  0.00    +0.084 A 
ATOM     21  C   UNL     1      -0.951   3.765   0.100  0.00  0.00    -0.018 A 
ATOM     22  C   UNL     1      -1.032   3.059  -1.049  0.00  0.00    -0.004 A 
ATOM     23  S   UNL     1      -1.524   4.240  -2.273  0.00  0.00    -0.077 S 
ATOM     24  C   UNL     1      -0.761   1.597  -1.232  0.00  0.00    +0.043 C 
ATOM     25  C   UNL     1      -0.013   1.086   0.008  0.00  0.00    +0.005 C 
ATOM     26  C   UNL     1      -0.735   1.583   1.264  0.00  0.00    +0.005 C 
ATOM     27  C   UNL     1      -0.550   3.094   1.407  0.00  0.00    +0.037 C 
BRANCH  20  28
ATOM     28  C   UNL     1      -1.227   6.047   1.118  0.00  0.00    +0.102 C 
ATOM     29  N   UNL     1      -1.191   6.737   2.020  0.00  0.00    -0.191 NA
ENDBRANCH  20  28
ENDBRANCH  17  19
ENDBRANCH   1  17
TORSDOF 8
