REMARK  Name = ZINC12911698
REMARK  4 active torsions:
REMARK  status: ('A' for Active; 'I' for Inactive)
REMARK    1  A    between atoms: C_7  and  C_11
REMARK    2  A    between atoms: C_11  and  C_12
REMARK    3  A    between atoms: N_16  and  C_20
REMARK    4  A    between atoms: C_20  and  C_21
REMARK                            x       y       z     vdW  Elec       q    Type
REMARK                         _______ _______ _______ _____ _____    ______ ____
ROOT
ATOM      1  C   UNL     1       3.207  -0.503  -1.468  0.00  0.00    +0.165 C 
ATOM      2  C   UNL     1       3.743  -1.920  -1.510  0.00  0.00    +0.244 C 
ATOM      3  O   UNL     1       3.256  -2.903  -0.994  0.00  0.00    -0.273 OA
ATOM      4  N   UNL     1       4.875  -1.860  -2.239  0.00  0.00    -0.224 N 
ATOM      5  C   UNL     1       5.125  -0.615  -2.660  0.00  0.00    +0.309 C 
ATOM      6  O   UNL     1       6.089  -0.311  -3.335  0.00  0.00    -0.252 OA
ATOM      7  N   UNL     1       4.191   0.263  -2.253  0.00  0.00    -0.287 N 
ATOM      8  H   UNL     1       4.169   1.214  -2.439  0.00  0.00    +0.151 HD
ENDROOT
BRANCH   1   9
ATOM      9  C   UNL     1       3.151   0.009  -0.028  0.00  0.00    +0.069 C 
BRANCH   9  16
ATOM     10  C   UNL     1      -1.204   1.745   0.017  0.00  0.00    +0.001 A 
ATOM     11  C   UNL     1      -1.232   3.133   0.031  0.00  0.00    +0.002 A 
ATOM     12  C   UNL     1      -0.062   3.860   0.024  0.00  0.00    +0.026 A 
ATOM     13  C   UNL     1       1.162   3.199   0.008  0.00  0.00    +0.047 A 
ATOM     14  C   UNL     1       1.186   1.793   0.000  0.00  0.00    +0.003 A 
ATOM     15  C   UNL     1      -0.013   1.076   0.008  0.00  0.00    +0.010 A 
ATOM     16  C   UNL     1       2.600   1.412  -0.015  0.00  0.00    -0.020 A 
ATOM     17  C   UNL     1       3.313   2.550  -0.015  0.00  0.00    +0.087 A 
ATOM     18  N   UNL     1       2.470   3.628  -0.002  0.00  0.00    -0.360 N 
ATOM     19  H   UNL     1       2.753   4.556   0.001  0.00  0.00    +0.165 HD
ENDBRANCH   9  16
ENDBRANCH   1   9
BRANCH   4  20
ATOM     20  C   UNL     1       5.726  -3.015  -2.534  0.00  0.00    +0.121 C 
BRANCH  20  21
ATOM     21  C   UNL     1       6.782  -3.164  -1.437  0.00  0.00    +0.007 C 
ATOM     22  C   UNL     1       7.718  -1.955  -1.463  0.00  0.00    +0.005 C 
ATOM     23  C   UNL     1       8.774  -2.103  -0.366  0.00  0.00    +0.000 C 
ATOM     24  C   UNL     1       9.583  -3.380  -0.606  0.00  0.00    +0.000 C 
ATOM     25  C   UNL     1       8.647  -4.590  -0.581  0.00  0.00    +0.000 C 
ATOM     26  C   UNL     1       7.591  -4.441  -1.678  0.00  0.00    +0.005 C 
ENDBRANCH  20  21
ENDBRANCH   4  20
TORSDOF 4
