REMARK  Name = ZINC36588638
REMARK  18 active torsions:
REMARK  status: ('A' for Active; 'I' for Inactive)
REMARK    1  A    between atoms: C_1  and  C_2
REMARK    2  A    between atoms: C_2  and  C_3
REMARK    3  A    between atoms: C_3  and  C_4
REMARK    4  A    between atoms: C_4  and  N_5
REMARK    5  A    between atoms: C_6  and  C_8
REMARK    6  A    between atoms: C_8  and  C_10
REMARK    7  A    between atoms: C_8  and  N_19
REMARK    8  A    between atoms: C_11  and  O_18
REMARK    9  A    between atoms: C_13  and  O_17
REMARK   10  A    between atoms: C_15  and  O_16
REMARK   11  A    between atoms: N_19  and  C_36
REMARK   12  A    between atoms: C_20  and  C_22
REMARK   13  A    between atoms: C_22  and  C_23
REMARK   14  A    between atoms: C_22  and  C_29
REMARK   15  A    between atoms: C_22  and  O_35
REMARK   16  A    between atoms: C_36  and  C_37
REMARK   17  A    between atoms: C_36  and  C_38
REMARK   18  A    between atoms: C_36  and  C_39
REMARK                            x       y       z     vdW  Elec       q    Type
REMARK                         _______ _______ _______ _____ _____    ______ ____
ROOT
ATOM      1  N   UNL     1      -5.029  -7.002   0.413  0.00  0.00    -0.278 N 
ATOM      2  C   UNL     1      -6.089  -6.652  -0.343  0.00  0.00    +0.258 C 
ATOM      3  O   UNL     1      -7.185  -7.111  -0.099  0.00  0.00    -0.272 OA
ENDROOT
BRANCH   1   4
ATOM      4  C   UNL     1      -4.107  -5.973   0.902  0.00  0.00    +0.030 C 
ATOM      5  C   UNL     1      -3.004  -6.631   1.733  0.00  0.00    +0.031 C 
ATOM      6  C   UNL     1      -3.482  -5.241  -0.287  0.00  0.00    +0.031 C 
ATOM      7  C   UNL     1      -4.873  -4.974   1.771  0.00  0.00    +0.031 C 
ENDBRANCH   1   4
BRANCH   1   8
ATOM      8  C   UNL     1      -4.799  -8.410   0.745  0.00  0.00    +0.200 C 
BRANCH   8   9
ATOM      9  C   UNL     1      -6.111  -9.150   0.731  0.00  0.00    +0.065 A 
ATOM     10  C   UNL     1      -6.768  -9.374  -0.470  0.00  0.00    +0.129 A 
ATOM     11  C   UNL     1      -7.975 -10.056  -0.483  0.00  0.00    +0.091 A 
ATOM     12  C   UNL     1      -8.526 -10.514   0.705  0.00  0.00    +0.124 A 
ATOM     13  C   UNL     1      -7.869 -10.290   1.905  0.00  0.00    +0.091 A 
ATOM     14  C   UNL     1      -6.659  -9.613   1.918  0.00  0.00    +0.129 A 
BRANCH  14  15
ATOM     15  O   UNL     1      -6.013  -9.398   3.094  0.00  0.00    -0.506 OA
ATOM     16  H   UNL     1      -6.258  -8.572   3.532  0.00  0.00    +0.292 HD
ENDBRANCH  14  15
BRANCH  12  17
ATOM     17  O   UNL     1      -9.710 -11.181   0.692  0.00  0.00    -0.507 OA
ATOM     18  H   UNL     1      -9.621 -12.139   0.594  0.00  0.00    +0.292 HD
ENDBRANCH  12  17
BRANCH  10  19
ATOM     19  O   UNL     1      -6.228  -8.926  -1.633  0.00  0.00    -0.506 OA
ATOM     20  H   UNL     1      -5.591  -9.534  -2.032  0.00  0.00    +0.292 HD
ENDBRANCH  10  19
ENDBRANCH   8   9
BRANCH   8  22
ATOM     21  N   UNL     1      -3.036 -10.017   0.091  0.00  0.00    -0.313 N 
ATOM     22  C   UNL     1      -3.867  -9.020  -0.270  0.00  0.00    +0.238 C 
ATOM     23  O   UNL     1      -3.864  -8.612  -1.413  0.00  0.00    -0.273 OA
ATOM     24  H   UNL     1      -3.038 -10.343   1.005  0.00  0.00    +0.149 HD
BRANCH  21  25
ATOM     25  C   UNL     1      -2.130 -10.610  -0.895  0.00  0.00    +0.104 C 
BRANCH  25  26
ATOM     26  C   UNL     1      -1.303 -11.713  -0.231  0.00  0.00    +0.018 C 
BRANCH  26  28
ATOM     27  C   UNL     1       0.470 -13.434  -0.598  0.00  0.00    +0.004 C 
ATOM     28  C   UNL     1      -0.357 -12.332  -1.262  0.00  0.00    -0.002 C 
ENDBRANCH  26  28
ENDBRANCH  25  26
ENDBRANCH  21  25
ENDBRANCH   8  22
ENDBRANCH   1   8
BRANCH   2  29
ATOM     29  C   UNL     1      -5.912  -5.691  -1.490  0.00  0.00    +0.192 C 
BRANCH  29  30
ATOM     30  C   UNL     1      -7.004  -5.914  -2.505  0.00  0.00    -0.003 A 
ATOM     31  C   UNL     1      -8.314  -6.058  -2.089  0.00  0.00    +0.007 A 
ATOM     32  C   UNL     1      -9.316  -6.262  -3.019  0.00  0.00    +0.000 A 
ATOM     33  C   UNL     1      -9.008  -6.322  -4.366  0.00  0.00    +0.000 A 
ATOM     34  C   UNL     1      -7.697  -6.177  -4.781  0.00  0.00    +0.000 A 
ATOM     35  C   UNL     1      -6.696  -5.969  -3.851  0.00  0.00    +0.007 A 
ENDBRANCH  29  30
BRANCH  29  36
ATOM     36  C   UNL     1      -5.984  -4.277  -0.977  0.00  0.00    -0.003 A 
ATOM     37  C   UNL     1      -6.896  -3.944   0.008  0.00  0.00    +0.007 A 
ATOM     38  C   UNL     1      -6.962  -2.647   0.479  0.00  0.00    +0.000 A 
ATOM     39  C   UNL     1      -6.116  -1.681  -0.034  0.00  0.00    +0.000 A 
ATOM     40  C   UNL     1      -5.204  -2.013  -1.018  0.00  0.00    +0.000 A 
ATOM     41  C   UNL     1      -5.135  -3.312  -1.486  0.00  0.00    +0.007 A 
ENDBRANCH  29  36
BRANCH  29  42
ATOM     42  O   UNL     1      -4.640  -5.911  -2.104  0.00  0.00    -0.371 OA
ATOM     43  H   UNL     1      -4.553  -6.775  -2.530  0.00  0.00    +0.212 HD
ENDBRANCH  29  42
ENDBRANCH   2  29
TORSDOF 14
