REMARK  Name = ZINC09008224
REMARK  8 active torsions:
REMARK  status: ('A' for Active; 'I' for Inactive)
REMARK    1  A    between atoms: C_1  and  C_2
REMARK    2  A    between atoms: N_14  and  C_17
REMARK    3  A    between atoms: C_21  and  C_23
REMARK    4  A    between atoms: C_23  and  O_25
REMARK    5  A    between atoms: O_25  and  C_26
REMARK    6  A    between atoms: C_26  and  C_27
REMARK    7  A    between atoms: C_27  and  C_29
REMARK    8  A    between atoms: C_33  and  N_35
REMARK                            x       y       z     vdW  Elec       q    Type
REMARK                         _______ _______ _______ _____ _____    ______ ____
ROOT
ATOM      1  C   UNL     1     -12.178   0.206   0.060  0.00  0.00    +0.045 A 
ATOM      2  C   UNL     1     -11.976  -1.169   0.052  0.00  0.00    +0.024 A 
ATOM      3  C   UNL     1     -10.693  -1.683   0.042  0.00  0.00    +0.003 A 
ATOM      4  C   UNL     1      -9.604  -0.836   0.036  0.00  0.00    +0.015 A 
ATOM      5  C   UNL     1      -9.797   0.547   0.051  0.00  0.00    +0.061 A 
ATOM      6  C   UNL     1     -11.092   1.066   0.060  0.00  0.00    +0.039 A 
ENDROOT
BRANCH   1  20
ATOM      7  C   UNL     1     -15.578   4.667   0.103  0.00  0.00    +0.066 C 
ATOM      8  C   UNL     1     -16.133   3.266   0.098  0.00  0.00    +0.052 A 
ATOM      9  C   UNL     1     -15.253   2.180   0.087  0.00  0.00    +0.071 A 
ATOM     10  C   UNL     1     -15.768   0.877   0.082  0.00  0.00    +0.061 A 
ATOM     11  C   UNL     1     -17.164   0.712   0.088  0.00  0.00    +0.013 A 
ATOM     12  C   UNL     1     -17.759  -0.558   0.083  0.00  0.00    +0.011 A 
ATOM     13  C   UNL     1     -19.116  -0.667   0.089  0.00  0.00    +0.001 A 
ATOM     14  C   UNL     1     -19.925   0.469   0.100  0.00  0.00    +0.002 A 
ATOM     15  C   UNL     1     -19.384   1.716   0.106  0.00  0.00    +0.028 A 
ATOM     16  C   UNL     1     -17.986   1.873   0.100  0.00  0.00    +0.072 A 
ATOM     17  N   UNL     1     -17.433   3.089   0.104  0.00  0.00    -0.251 NA
ATOM     18  C   UNL     1     -14.600  -0.026   0.065  0.00  0.00    +0.259 C 
ATOM     19  O   UNL     1     -14.641  -1.240   0.052  0.00  0.00    -0.269 OA
ATOM     20  N   UNL     1     -13.481   0.723   0.070  0.00  0.00    -0.202 N 
ATOM     21  C   UNL     1     -13.783   2.034   0.079  0.00  0.00    +0.260 C 
ATOM     22  O   UNL     1     -12.980   2.945   0.080  0.00  0.00    -0.269 OA
ENDBRANCH   1  20
BRANCH   5  23
ATOM     23  C   UNL     1      -8.633   1.458   0.051  0.00  0.00    +0.340 C 
ATOM     24  O   UNL     1      -8.803   2.661   0.059  0.00  0.00    -0.245 OA
BRANCH  23  25
ATOM     25  O   UNL     1      -7.384   0.954   0.042  0.00  0.00    -0.453 OA
BRANCH  25  26
ATOM     26  C   UNL     1      -6.289   1.908   0.043  0.00  0.00    +0.311 C 
BRANCH  26  27
ATOM     27  C   UNL     1      -4.977   1.166   0.032  0.00  0.00    +0.200 C 
ATOM     28  O   UNL     1      -4.966  -0.046   0.025  0.00  0.00    -0.288 OA
BRANCH  27  29
ATOM     29  C   UNL     1      -3.709   1.913   0.030  0.00  0.00    +0.023 A 
ATOM     30  C   UNL     1      -3.718   3.312   0.039  0.00  0.00    +0.011 A 
ATOM     31  C   UNL     1      -2.526   4.005   0.037  0.00  0.00    +0.003 A 
ATOM     32  C   UNL     1      -1.323   3.320   0.032  0.00  0.00    +0.033 A 
ATOM     33  C   UNL     1      -1.306   1.936   0.019  0.00  0.00    +0.127 A 
ATOM     34  C   UNL     1      -2.490   1.229   0.021  0.00  0.00    +0.044 A 
BRANCH  33  35
ATOM     35  N   UNL     1      -0.014   1.214   0.009  0.00  0.00    +0.056 N 
ATOM     36  O   UNL     1       0.002  -0.004   0.002  0.00  0.00    -0.126 OA
ATOM     37  O   UNL     1       1.032   1.837   0.002  0.00  0.00    -0.126 OA
ENDBRANCH  33  35
ENDBRANCH  27  29
ENDBRANCH  26  27
ENDBRANCH  25  26
ENDBRANCH  23  25
ENDBRANCH   5  23
TORSDOF 7
