REMARK  Name = ZINC05792131
REMARK  5 active torsions:
REMARK  status: ('A' for Active; 'I' for Inactive)
REMARK    1  A    between atoms: C_1  and  C_2
REMARK    2  A    between atoms: C_2  and  C_24
REMARK    3  A    between atoms: N_5  and  C_9
REMARK    4  A    between atoms: C_9  and  C_10
REMARK    5  A    between atoms: N_12  and  C_13
REMARK                            x       y       z     vdW  Elec       q    Type
REMARK                         _______ _______ _______ _____ _____    ______ ____
ROOT
ATOM      1  C   UNL     1       2.013   1.641   1.250  0.00  0.00    +0.047 C 
ATOM      2  C   UNL     1       1.158   1.862   0.001  0.00  0.00    +0.138 C 
ATOM      3  C   UNL     1       0.545   3.248   0.013  0.00  0.00    +0.251 C 
ATOM      4  O   UNL     1       1.132   4.309   0.013  0.00  0.00    -0.272 OA
ATOM      5  N   UNL     1      -0.789   3.056   0.025  0.00  0.00    -0.215 N 
ATOM      6  C   UNL     1      -1.101   1.755   0.016  0.00  0.00    +0.310 C 
ATOM      7  O   UNL     1      -2.240   1.333   0.019  0.00  0.00    -0.252 OA
ATOM      8  N   UNL     1      -0.011   0.966   0.007  0.00  0.00    -0.281 N 
ATOM      9  H   UNL     1       0.002  -0.004   0.002  0.00  0.00    +0.152 HD
ENDROOT
BRANCH   2  10
ATOM     10  C   UNL     1       1.979   1.653  -1.245  0.00  0.00    +0.022 A 
ATOM     11  C   UNL     1       1.603   0.696  -2.169  0.00  0.00    +0.047 A 
ATOM     12  C   UNL     1       2.357   0.505  -3.314  0.00  0.00    +0.124 A 
ATOM     13  C   UNL     1       3.488   1.272  -3.534  0.00  0.00    +0.041 A 
ATOM     14  C   UNL     1       3.865   2.229  -2.610  0.00  0.00    +0.041 A 
ATOM     15  C   UNL     1       3.108   2.424  -1.468  0.00  0.00    +0.129 A 
ATOM     16  F   UNL     1       3.473   3.363  -0.567  0.00  0.00    -0.205 F 
ATOM     17  F   UNL     1       1.989  -0.430  -4.216  0.00  0.00    -0.205 F 
ENDBRANCH   2  10
BRANCH   5  18
ATOM     18  C   UNL     1      -1.776   4.138   0.040  0.00  0.00    +0.213 C 
BRANCH  18  19
ATOM     19  C   UNL     1      -2.128   4.517  -1.376  0.00  0.00    +0.231 C 
ATOM     20  O   UNL     1      -1.605   3.940  -2.306  0.00  0.00    -0.274 OA
ATOM     21  N   UNL     1      -3.023   5.498  -1.609  0.00  0.00    -0.307 N 
ATOM     22  H   UNL     1      -3.441   5.959  -0.865  0.00  0.00    +0.149 HD
BRANCH  21  23
ATOM     23  C   UNL     1      -3.365   5.866  -2.985  0.00  0.00    +0.103 C 
ATOM     24  C   UNL     1      -3.859   7.311  -3.011  0.00  0.00    +0.027 C 
ATOM     25  C   UNL     1      -4.413   7.607  -4.410  0.00  0.00    +0.007 C 
ATOM     26  C   UNL     1      -5.710   6.822  -4.590  0.00  0.00    +0.035 C 
ATOM     27  C   UNL     1      -5.505   5.372  -4.239  0.00  0.00    -0.042 A 
ATOM     28  C   UNL     1      -4.430   4.933  -3.499  0.00  0.00    -0.024 A 
ATOM     29  C   UNL     1      -4.303   3.582  -3.204  0.00  0.00    +0.006 A 
ATOM     30  C   UNL     1      -5.243   2.676  -3.650  0.00  0.00    +0.000 A 
ATOM     31  C   UNL     1      -6.321   3.115  -4.396  0.00  0.00    +0.000 A 
ATOM     32  C   UNL     1      -6.449   4.458  -4.688  0.00  0.00    +0.004 A 
ENDBRANCH  21  23
ENDBRANCH  18  19
ENDBRANCH   5  18
TORSDOF 4
