REMARK  Name = ZINC67591737
REMARK  6 active torsions:
REMARK  status: ('A' for Active; 'I' for Inactive)
REMARK    1  A    between atoms: C_1  and  C_2
REMARK    2  A    between atoms: C_2  and  O_3
REMARK    3  A    between atoms: O_3  and  C_4
REMARK    4  A    between atoms: N_13  and  C_14
REMARK    5  A    between atoms: C_14  and  C_15
REMARK    6  A    between atoms: C_24  and  C_27
REMARK                            x       y       z     vdW  Elec       q    Type
REMARK                         _______ _______ _______ _____ _____    ______ ____
ROOT
ATOM      1  C   UNL     1      -0.075  -6.944  -2.625  0.00  0.00    +0.142 C 
ENDROOT
BRANCH   1   2
ATOM      2  C   UNL     1      -0.477  -8.373  -2.366  0.00  0.00    -0.014 A 
ATOM      3  C   UNL     1       0.005  -9.047  -1.252  0.00  0.00    +0.010 A 
ATOM      4  C   UNL     1      -0.388 -10.357  -1.051  0.00  0.00    +0.042 A 
ATOM      5  C   UNL     1      -1.249 -10.953  -1.967  0.00  0.00    +0.099 A 
ATOM      6  N   UNL     1      -1.687 -10.277  -3.018  0.00  0.00    -0.349 N 
ATOM      7  C   UNL     1      -1.333  -9.024  -3.232  0.00  0.00    +0.089 A 
ATOM      8  N   UNL     1      -1.653 -12.270  -1.778  0.00  0.00    -0.317 N 
ATOM      9  C   UNL     1      -1.294 -12.994  -0.551  0.00  0.00    +0.107 C 
ATOM     10  C   UNL     1      -0.606 -14.307  -0.936  0.00  0.00    +0.022 C 
ATOM     11  C   UNL     1      -1.512 -15.093  -1.887  0.00  0.00    -0.011 C 
ATOM     12  C   UNL     1      -1.745 -14.278  -3.162  0.00  0.00    +0.022 C 
ATOM     13  C   UNL     1      -2.451 -12.963  -2.799  0.00  0.00    +0.107 C 
ATOM     14  C   UNL     1      -0.843 -16.421  -2.247  0.00  0.00    +0.007 C 
ATOM     15  H   UNL     1      -2.287 -10.713  -3.644  0.00  0.00    +0.167 HD
ENDBRANCH   1   2
BRANCH   1  24
ATOM     16  C   UNL     1      -1.359  -1.939   0.067  0.00  0.00    +0.136 C 
ATOM     17  C   UNL     1      -2.619  -2.371   0.822  0.00  0.00    +0.035 C 
ATOM     18  C   UNL     1      -2.709  -3.899   0.834  0.00  0.00    +0.022 C 
ATOM     19  C   UNL     1      -2.808  -4.412  -0.606  0.00  0.00    +0.109 C 
ATOM     20  N   UNL     1      -1.675  -3.881  -1.376  0.00  0.00    -0.283 N 
ATOM     21  C   UNL     1      -1.442  -2.430  -1.381  0.00  0.00    +0.140 C 
ATOM     22  C   UNL     1      -0.864  -4.708  -2.065  0.00  0.00    +0.303 C 
ATOM     23  O   UNL     1       0.012  -4.251  -2.773  0.00  0.00    -0.253 OA
ATOM     24  N   UNL     1      -1.025  -6.043  -1.969  0.00  0.00    -0.295 N 
ATOM     25  H   UNL     1      -1.771  -6.407  -1.466  0.00  0.00    +0.151 HD
BRANCH  16  26
ATOM     26  O   UNL     1      -1.260  -0.513   0.083  0.00  0.00    -0.375 OA
BRANCH  26  28
ATOM     27  C   UNL     1       0.068   1.506   0.067  0.00  0.00    +0.034 C 
ATOM     28  C   UNL     1       0.082  -0.024   0.047  0.00  0.00    +0.157 C 
ENDBRANCH  26  28
ENDBRANCH  16  26
ENDBRANCH   1  24
TORSDOF 4
