REMARK  Name = ZINC09442716
REMARK  9 active torsions:
REMARK  status: ('A' for Active; 'I' for Inactive)
REMARK    1  A    between atoms: C_1  and  C_2
REMARK    2  A    between atoms: C_2  and  C_3
REMARK    3  A    between atoms: C_3  and  C_5
REMARK    4  A    between atoms: C_3  and  C_6
REMARK    5  A    between atoms: C_9  and  N_12
REMARK    6  A    between atoms: C_22  and  S_23
REMARK    7  A    between atoms: S_23  and  C_24
REMARK    8  A    between atoms: C_24  and  C_26
REMARK    9  A    between atoms: C_24  and  C_27
REMARK                            x       y       z     vdW  Elec       q    Type
REMARK                         _______ _______ _______ _____ _____    ______ ____
ROOT
ATOM      1  N   UNL     1       3.439  -5.321   1.163  0.00  0.00    -0.255 N 
ATOM      2  C   UNL     1       2.919  -6.413   1.768  0.00  0.00    +0.267 A 
ATOM      3  O   UNL     1       3.482  -6.940   2.711  0.00  0.00    -0.267 OA
ATOM      4  C   UNL     1       1.655  -6.944   1.244  0.00  0.00    +0.067 A 
ATOM      5  C   UNL     1       1.043  -8.069   1.797  0.00  0.00    +0.035 A 
ATOM      6  C   UNL     1      -0.145  -8.524   1.265  0.00  0.00    +0.042 A 
ATOM      7  C   UNL     1      -0.732  -7.872   0.186  0.00  0.00    +0.022 A 
ATOM      8  C   UNL     1      -0.149  -6.769  -0.370  0.00  0.00    +0.030 A 
ATOM      9  C   UNL     1       1.056  -6.283   0.147  0.00  0.00    +0.079 A 
ATOM     10  N   UNL     1       1.663  -5.193  -0.377  0.00  0.00    -0.223 NA
ATOM     11  C   UNL     1       2.792  -4.737   0.108  0.00  0.00    +0.177 A 
ATOM     12 CL   UNL     1      -0.913  -9.923   1.946  0.00  0.00    -0.084 Cl
ENDROOT
BRANCH   1  16
ATOM     13  C   UNL     1       7.031  -3.709   2.531  0.00  0.00    -0.044 A 
ATOM     14  C   UNL     1       7.041  -4.678   1.544  0.00  0.00    +0.006 A 
ATOM     15  C   UNL     1       5.852  -5.214   1.089  0.00  0.00    +0.026 A 
ATOM     16  C   UNL     1       4.646  -4.779   1.623  0.00  0.00    +0.052 A 
ATOM     17  C   UNL     1       4.640  -3.802   2.609  0.00  0.00    +0.026 A 
ATOM     18  C   UNL     1       5.832  -3.274   3.065  0.00  0.00    +0.006 A 
BRANCH  13  19
ATOM     19  C   UNL     1       8.330  -3.126   3.025  0.00  0.00    +0.016 C 
ATOM     20  C   UNL     1       8.472  -3.397   4.525  0.00  0.00    +0.012 C 
BRANCH  19  22
ATOM     21  C   UNL     1       9.704  -1.044   3.163  0.00  0.00    +0.004 C 
ATOM     22  C   UNL     1       8.339  -1.617   2.776  0.00  0.00    +0.004 C 
ENDBRANCH  19  22
ENDBRANCH  13  19
ENDBRANCH   1  16
BRANCH  11  23
ATOM     23  S   UNL     1       3.512  -3.312  -0.636  0.00  0.00    -0.075 S 
BRANCH  23  24
ATOM     24  C   UNL     1       2.290  -2.981  -1.929  0.00  0.00    +0.137 C 
ATOM     25  C   UNL     1       2.284  -4.135  -2.933  0.00  0.00    +0.029 C 
BRANCH  24  26
ATOM     26  C   UNL     1       2.644  -1.699  -2.639  0.00  0.00    +0.233 C 
ATOM     27  O   UNL     1       3.792  -1.311  -2.652  0.00  0.00    -0.274 OA
ATOM     28  N   UNL     1       1.684  -0.984  -3.258  0.00  0.00    -0.239 N 
ATOM     29  C   UNL     1       2.001   0.162  -3.893  0.00  0.00    +0.303 C 
ATOM     30  O   UNL     1       3.152   0.550  -3.906  0.00  0.00    -0.253 OA
ATOM     31  N   UNL     1       1.041   0.874  -4.517  0.00  0.00    -0.313 N 
ATOM     32  H   UNL     1       0.765  -1.295  -3.247  0.00  0.00    +0.159 HD
ATOM     33  H   UNL     1       0.123   0.561  -4.509  0.00  0.00    +0.146 HD
ATOM     34  H   UNL     1       1.269   1.698  -4.974  0.00  0.00    +0.146 HD
ENDBRANCH  24  26
ENDBRANCH  23  24
ENDBRANCH  11  23
TORSDOF 6
