REMARK  Name = ZINC46224845
REMARK  5 active torsions:
REMARK  status: ('A' for Active; 'I' for Inactive)
REMARK    1  A    between atoms: C_1  and  C_2
REMARK    2  A    between atoms: C_10  and  C_11
REMARK    3  A    between atoms: N_13  and  C_14
REMARK    4  A    between atoms: C_14  and  C_16
REMARK    5  A    between atoms: C_14  and  C_17
REMARK                            x       y       z     vdW  Elec       q    Type
REMARK                         _______ _______ _______ _____ _____    ______ ____
ROOT
ATOM      1  C   UNL     1       0.031  -0.382   2.484  0.00  0.00    +0.280 C 
ATOM      2  O   UNL     1       0.017   0.806   2.745  0.00  0.00    -0.267 OA
ATOM      3  N   UNL     1       0.053  -1.291   3.479  0.00  0.00    -0.302 N 
ATOM      4  H   UNL     1       0.065  -2.238   3.270  0.00  0.00    +0.150 HD
ENDROOT
BRANCH   1  14
ATOM      5  C   UNL     1      -0.018   1.503   0.010  0.00  0.00    +0.048 C 
ATOM      6  C   UNL     1       0.002  -0.004   0.002  0.00  0.00    +0.008 A 
ATOM      7  C   UNL     1       0.009  -0.877  -1.171  0.00  0.00    +0.027 A 
ATOM      8  C   UNL     1      -0.001  -0.654  -2.551  0.00  0.00    +0.012 A 
ATOM      9  C   UNL     1       0.009  -1.716  -3.410  0.00  0.00    +0.004 A 
ATOM     10  C   UNL     1       0.030  -3.016  -2.921  0.00  0.00    +0.042 A 
ATOM     11  C   UNL     1       0.040  -3.258  -1.563  0.00  0.00    +0.166 A 
ATOM     12  C   UNL     1       0.030  -2.191  -0.669  0.00  0.00    +0.171 A 
ATOM     13  O   UNL     1       0.035  -2.113   0.676  0.00  0.00    -0.447 OA
ATOM     14  C   UNL     1       0.024  -0.826   1.083  0.00  0.00    +0.193 A 
ATOM     15  F   UNL     1       0.059  -4.528  -1.102  0.00  0.00    -0.202 F 
ENDBRANCH   1  14
BRANCH   3  16
ATOM     16  C   UNL     1       0.060  -0.848   4.875  0.00  0.00    +0.100 C 
ATOM     17  C   UNL     1      -1.376  -0.594   5.337  0.00  0.00    +0.033 C 
BRANCH  16  18
ATOM     18  C   UNL     1       0.684  -1.915   5.737  0.00  0.00    -0.027 A 
ATOM     19  C   UNL     1       0.413  -3.249   5.494  0.00  0.00    +0.007 A 
ATOM     20  C   UNL     1       0.981  -4.231   6.279  0.00  0.00    +0.024 A 
ATOM     21  C   UNL     1       1.834  -3.883   7.326  0.00  0.00    +0.037 A 
ATOM     22  C   UNL     1       2.098  -2.540   7.560  0.00  0.00    -0.017 A 
ATOM     23  C   UNL     1       1.534  -1.562   6.771  0.00  0.00    +0.011 A 
ATOM     24  C   UNL     1       3.041  -2.491   8.741  0.00  0.00    +0.133 C 
ATOM     25  C   UNL     1       3.247  -3.946   9.107  0.00  0.00    +0.222 C 
ATOM     26  O   UNL     1       3.939  -4.371  10.007  0.00  0.00    -0.275 OA
ATOM     27  N   UNL     1       2.519  -4.677   8.246  0.00  0.00    -0.285 N 
ATOM     28  H   UNL     1       2.476  -5.646   8.262  0.00  0.00    +0.155 HD
ENDBRANCH  16  18
ENDBRANCH   3  16
TORSDOF 3
