REMARK  Name = ZINC44749688
REMARK  7 active torsions:
REMARK  status: ('A' for Active; 'I' for Inactive)
REMARK    1  A    between atoms: C_1  and  C_2
REMARK    2  A    between atoms: C_4  and  S_20
REMARK    3  A    between atoms: C_7  and  C_8
REMARK    4  A    between atoms: N_10  and  C_11
REMARK    5  A    between atoms: C_11  and  C_13
REMARK    6  A    between atoms: C_11  and  C_14
REMARK    7  A    between atoms: S_20  and  N_23
REMARK                            x       y       z     vdW  Elec       q    Type
REMARK                         _______ _______ _______ _____ _____    ______ ____
ROOT
ATOM      1  C   UNL     1      -0.511   1.452   0.082  0.00  0.00    +0.044 C 
ATOM      2  C   UNL     1      -0.234  -0.028   0.036  0.00  0.00    -0.037 A 
ATOM      3  C   UNL     1      -0.334  -0.714  -1.157  0.00  0.00    +0.032 A 
ATOM      4  C   UNL     1      -0.080  -2.073  -1.200  0.00  0.00    +0.105 A 
ATOM      5  C   UNL     1       0.275  -2.754  -0.049  0.00  0.00    +0.029 A 
ATOM      6  C   UNL     1       0.378  -2.080   1.150  0.00  0.00    +0.015 A 
ATOM      7  C   UNL     1       0.128  -0.708   1.200  0.00  0.00    +0.040 A 
ENDROOT
BRANCH   7   8
ATOM      8  C   UNL     1       0.242   0.021   2.481  0.00  0.00    +0.245 C 
ATOM      9  O   UNL     1       0.135   1.232   2.503  0.00  0.00    -0.270 OA
ATOM     10  N   UNL     1       0.465  -0.656   3.625  0.00  0.00    -0.306 N 
ATOM     11  H   UNL     1       0.551  -1.622   3.607  0.00  0.00    +0.149 HD
BRANCH  10  12
ATOM     12  C   UNL     1       0.578   0.067   4.894  0.00  0.00    +0.099 C 
ATOM     13  C   UNL     1      -0.818   0.298   5.475  0.00  0.00    +0.030 C 
BRANCH  12  14
ATOM     14  C   UNL     1       1.410  -0.758   5.878  0.00  0.00    +0.138 C 
ATOM     15  C   UNL     1       2.820  -1.001   5.298  0.00  0.00    +0.035 C 
ATOM     16  C   UNL     1       3.104  -2.467   5.724  0.00  0.00    +0.031 C 
ATOM     17  C   UNL     1       1.684  -3.079   5.637  0.00  0.00    +0.160 C 
ATOM     18  O   UNL     1       0.797  -2.037   6.080  0.00  0.00    -0.375 OA
ENDBRANCH  12  14
ENDBRANCH  10  12
ENDBRANCH   7   8
BRANCH   4  19
ATOM     19  S   UNL     1      -0.209  -2.941  -2.728  0.00  0.00    +0.056 S 
ATOM     20  O   UNL     1      -0.454  -4.302  -2.403  0.00  0.00    -0.153 OA
ATOM     21  O   UNL     1      -1.086  -2.185  -3.552  0.00  0.00    -0.153 OA
BRANCH  19  22
ATOM     22  N   UNL     1       1.281  -2.888  -3.449  0.00  0.00    -0.204 NA
ATOM     23  H   UNL     1       2.015  -2.431  -3.011  0.00  0.00    +0.144 HD
ATOM     24  H   UNL     1       1.419  -3.314  -4.310  0.00  0.00    +0.144 HD
ENDBRANCH  19  22
ENDBRANCH   4  19
TORSDOF 5
