REMARK  Name = ZINC03670401
REMARK  13 active torsions:
REMARK  status: ('A' for Active; 'I' for Inactive)
REMARK    1  A    between atoms: C_1  and  N_72
REMARK    2  A    between atoms: C_2  and  C_3
REMARK    3  A    between atoms: C_2  and  N_72
REMARK    4  A    between atoms: C_3  and  C_4
REMARK    5  A    between atoms: C_4  and  N_5
REMARK    6  A    between atoms: C_6  and  C_8
REMARK    7  A    between atoms: C_8  and  O_29
REMARK    8  A    between atoms: N_18  and  C_19
REMARK    9  A    between atoms: C_22  and  O_27
REMARK   10  A    between atoms: C_24  and  O_25
REMARK   11  A    between atoms: O_25  and  C_26
REMARK   12  A    between atoms: O_27  and  C_28
REMARK   13  A    between atoms: C_30  and  N_72
REMARK                            x       y       z     vdW  Elec       q    Type
REMARK                         _______ _______ _______ _____ _____    ______ ____
ROOT
ATOM      1  C   UNL     1       0.256   0.907   4.905  0.00  0.00    +0.247 C 
ATOM      2  C   UNL     1       0.256  -0.603   4.862  0.00  0.00    +0.033 A 
ATOM      3  C   UNL     1      -0.919  -1.318   4.815  0.00  0.00    +0.010 A 
ATOM      4  C   UNL     1      -0.880  -2.701   4.777  0.00  0.00    +0.001 A 
ATOM      5  C   UNL     1       0.336  -3.360   4.787  0.00  0.00    +0.002 A 
ATOM      6  C   UNL     1       1.517  -2.645   4.834  0.00  0.00    +0.024 A 
ATOM      7  C   UNL     1       1.483  -1.257   4.872  0.00  0.00    +0.043 A 
ATOM      8  N   UNL     1       2.664  -0.517   4.920  0.00  0.00    -0.269 N 
ATOM      9  C   UNL     1       2.685   0.821   4.957  0.00  0.00    +0.314 C 
ATOM     10  O   UNL     1       3.762   1.384   4.997  0.00  0.00    -0.252 OA
ATOM     11  N   UNL     1       1.569   1.573   4.954  0.00  0.00    -0.211 N 
ATOM     12  H   UNL     1       3.510  -0.993   4.925  0.00  0.00    +0.156 HD
ENDROOT
BRANCH  11  13
ATOM     13  C   UNL     1       1.655   2.973   4.995  0.00  0.00    +0.083 A 
ATOM     14  C   UNL     1       1.669   3.632   6.215  0.00  0.00    +0.031 A 
ATOM     15  C   UNL     1       1.754   5.011   6.255  0.00  0.00    +0.048 A 
ATOM     16  C   UNL     1       1.824   5.739   5.076  0.00  0.00    +0.124 A 
ATOM     17  C   UNL     1       1.810   5.084   3.854  0.00  0.00    +0.093 A 
ATOM     18  C   UNL     1       1.731   3.702   3.810  0.00  0.00    +0.145 A 
BRANCH  18  19
ATOM     19  O   UNL     1       1.722   3.058   2.613  0.00  0.00    -0.493 OA
ATOM     20  C   UNL     1       1.803   3.869   1.439  0.00  0.00    +0.277 C 
ENDBRANCH  18  19
BRANCH  16  21
ATOM     21  O   UNL     1       1.907   7.095   5.119  0.00  0.00    -0.495 OA
ATOM     22  C   UNL     1       1.917   7.704   6.412  0.00  0.00    +0.277 C 
ENDBRANCH  16  21
ENDBRANCH  11  13
BRANCH   1  24
ATOM     23  N   UNL     1      -0.020   1.094   2.454  0.00  0.00    -0.311 N 
ATOM     24  C   UNL     1      -0.473   1.407   3.684  0.00  0.00    +0.269 C 
ATOM     25  O   UNL     1      -1.468   2.090   3.808  0.00  0.00    -0.270 OA
ATOM     26  H   UNL     1       0.775   0.547   2.354  0.00  0.00    +0.149 HD
BRANCH  23  27
ATOM     27  C   UNL     1      -0.729   1.579   1.267  0.00  0.00    +0.102 C 
BRANCH  27  28
ATOM     28  C   UNL     1      -0.013   1.086   0.008  0.00  0.00    +0.000 C 
BRANCH  28  29
ATOM     29  C   UNL     1      -0.753   1.593  -1.232  0.00  0.00    -0.077 C 
BRANCH  29  31
ATOM     30  C   UNL     1       1.269   1.723  -2.558  0.00  0.00    -0.096 C 
ATOM     31  N   UNL     1      -0.062   1.091  -2.438  0.00  0.00    +0.380 N 
ATOM     32  H   UNL     1       0.059   0.074  -2.354  0.00  0.00    -0.082 HD
BRANCH  31  33
ATOM     33  C   UNL     1      -0.870   1.381  -3.641  0.00  0.00    -0.069 C 
ATOM     34  C   UNL     1      -2.212   0.656  -3.524  0.00  0.00    -0.015 C 
ATOM     35  C   UNL     1      -3.050   0.929  -4.774  0.00  0.00    -0.002 C 
ATOM     36  C   UNL     1      -2.303   0.423  -6.010  0.00  0.00    -0.000 C 
ATOM     37  C   UNL     1      -0.961   1.149  -6.127  0.00  0.00    -0.002 C 
ATOM     38  C   UNL     1      -0.123   0.875  -4.876  0.00  0.00    -0.015 C 
ENDBRANCH  31  33
ENDBRANCH  29  31
ENDBRANCH  28  29
ENDBRANCH  27  28
ENDBRANCH  23  27
ENDBRANCH   1  24
BRANCH   1  39
ATOM     39  O   UNL     1      -0.488   1.316   6.055  0.00  0.00    -0.360 OA
ATOM     40  H   UNL     1      -1.391   0.971   6.082  0.00  0.00    +0.213 HD
ENDBRANCH   1  39
TORSDOF 10
