REMARK  Name = ZINC15590103
REMARK  9 active torsions:
REMARK  status: ('A' for Active; 'I' for Inactive)
REMARK    1  A    between atoms: C_4  and  C_7
REMARK    2  A    between atoms: C_7  and  C_8
REMARK    3  A    between atoms: C_8  and  N_9
REMARK    4  A    between atoms: C_15  and  C_20
REMARK    5  A    between atoms: N_22  and  C_23
REMARK    6  A    between atoms: C_23  and  C_24
REMARK    7  A    between atoms: C_24  and  C_25
REMARK    8  A    between atoms: C_28  and  S_31
REMARK    9  A    between atoms: S_31  and  N_34
REMARK                            x       y       z     vdW  Elec       q    Type
REMARK                         _______ _______ _______ _____ _____    ______ ____
ROOT
ATOM      1  N   UNL     1       5.420  -1.663  -1.505  0.00  0.00    -0.234 N 
ATOM      2  C   UNL     1       5.543  -3.002  -1.514  0.00  0.00    +0.254 C 
ATOM      3  O   UNL     1       4.625  -3.798  -1.509  0.00  0.00    -0.270 OA
ATOM      4  C   UNL     1       6.983  -3.344  -1.531  0.00  0.00    +0.049 A 
ATOM      5  C   UNL     1       7.692  -4.534  -1.546  0.00  0.00    +0.014 A 
ATOM      6  C   UNL     1       9.076  -4.513  -1.560  0.00  0.00    +0.014 A 
ATOM      7  C   UNL     1       9.762  -3.298  -1.560  0.00  0.00    +0.037 A 
ATOM      8  C   UNL     1       9.054  -2.093  -1.545  0.00  0.00    +0.027 A 
ATOM      9  C   UNL     1       7.670  -2.112  -1.531  0.00  0.00    +0.050 A 
ATOM     10  C   UNL     1       6.625  -1.066  -1.519  0.00  0.00    +0.254 C 
ATOM     11  O   UNL     1       6.823   0.132  -1.520  0.00  0.00    -0.270 OA
ENDROOT
BRANCH   7  12
ATOM     12  C   UNL     1      11.242  -3.285  -1.576  0.00  0.00    +0.244 C 
ATOM     13  O   UNL     1      11.840  -2.228  -1.576  0.00  0.00    -0.270 OA
ATOM     14  N   UNL     1      11.925  -4.447  -1.590  0.00  0.00    -0.311 N 
ATOM     15  H   UNL     1      11.448  -5.291  -1.591  0.00  0.00    +0.149 HD
BRANCH  14  16
ATOM     16  C   UNL     1      13.390  -4.434  -1.606  0.00  0.00    +0.109 C 
BRANCH  16  17
ATOM     17  C   UNL     1      13.913  -5.872  -1.621  0.00  0.00    +0.054 C 
BRANCH  17  18
ATOM     18  C   UNL     1      15.420  -5.859  -1.636  0.00  0.00    -0.046 A 
ATOM     19  C   UNL     1      16.098  -5.851  -2.841  0.00  0.00    +0.005 A 
ATOM     20  C   UNL     1      17.480  -5.835  -2.856  0.00  0.00    +0.029 A 
ATOM     21  C   UNL     1      18.184  -5.835  -1.666  0.00  0.00    +0.105 A 
ATOM     22  C   UNL     1      17.506  -5.848  -0.461  0.00  0.00    +0.029 A 
ATOM     23  C   UNL     1      16.123  -5.860  -0.447  0.00  0.00    +0.005 A 
BRANCH  21  24
ATOM     24  S   UNL     1      19.946  -5.818  -1.684  0.00  0.00    +0.056 S 
ATOM     25  O   UNL     1      20.334  -5.257  -2.931  0.00  0.00    -0.153 OA
ATOM     26  O   UNL     1      20.360  -5.271  -0.440  0.00  0.00    -0.153 OA
BRANCH  24  27
ATOM     27  N   UNL     1      20.450  -7.396  -1.698  0.00  0.00    -0.204 NA
ATOM     28  H   UNL     1      21.286  -7.634  -2.129  0.00  0.00    +0.144 HD
ATOM     29  H   UNL     1      19.910  -8.082  -1.276  0.00  0.00    +0.144 HD
ENDBRANCH  24  27
ENDBRANCH  21  24
ENDBRANCH  17  18
ENDBRANCH  16  17
ENDBRANCH  14  16
ENDBRANCH   7  12
BRANCH   1  30
ATOM     30  C   UNL     1       4.142  -0.948  -1.488  0.00  0.00    +0.121 C 
BRANCH  30  31
ATOM     31  C   UNL     1       3.711  -0.707  -0.039  0.00  0.00    +0.054 C 
BRANCH  31  35
ATOM     32  C   UNL     1      -0.017   1.378   0.010  0.00  0.00    +0.000 A 
ATOM     33  C   UNL     1       1.171   2.086   0.002  0.00  0.00    +0.000 A 
ATOM     34  C   UNL     1       2.377   1.411  -0.014  0.00  0.00    +0.004 A 
ATOM     35  C   UNL     1       2.396   0.029  -0.022  0.00  0.00    -0.046 A 
ATOM     36  C   UNL     1       1.208  -0.679  -0.014  0.00  0.00    +0.004 A 
ATOM     37  C   UNL     1       0.002  -0.004   0.002  0.00  0.00    +0.000 A 
ENDBRANCH  31  35
ENDBRANCH  30  31
ENDBRANCH   1  30
TORSDOF 9
