REMARK  Name = ZINC36813871
REMARK  8 active torsions:
REMARK  status: ('A' for Active; 'I' for Inactive)
REMARK    1  A    between atoms: C_1  and  C_2
REMARK    2  A    between atoms: C_3  and  C_29
REMARK    3  A    between atoms: C_7  and  N_28
REMARK    4  A    between atoms: C_9  and  S_11
REMARK    5  A    between atoms: S_11  and  C_12
REMARK    6  A    between atoms: C_12  and  C_14
REMARK    7  A    between atoms: C_12  and  C_15
REMARK    8  A    between atoms: C_25  and  C_27
REMARK                            x       y       z     vdW  Elec       q    Type
REMARK                         _______ _______ _______ _____ _____    ______ ____
ROOT
ATOM      1  S   UNL     1       0.539  -3.531   4.861  0.00  0.00    -0.073 S 
ENDROOT
BRANCH   1  10
ATOM      2  C   UNL     1      -0.124   1.310  -0.055  0.00  0.00    +0.045 C 
ATOM      3  C   UNL     1       0.025  -0.189  -0.013  0.00  0.00    -0.028 A 
ATOM      4  C   UNL     1       0.058  -0.899  -1.150  0.00  0.00    -0.008 A 
ATOM      5  S   UNL     1       0.243  -2.580  -0.586  0.00  0.00    -0.073 S 
ATOM      6  C   UNL     1       0.272  -2.284   1.162  0.00  0.00    +0.115 A 
ATOM      7  C   UNL     1       0.142  -0.881   1.259  0.00  0.00    +0.050 A 
ATOM      8  C   UNL     1       0.140  -0.357   2.582  0.00  0.00    +0.129 A 
ATOM      9  N   UNL     1       0.260  -1.183   3.607  0.00  0.00    -0.207 NA
ATOM     10  C   UNL     1       0.384  -2.495   3.444  0.00  0.00    +0.192 A 
ATOM     11  N   UNL     1       0.383  -3.042   2.235  0.00  0.00    -0.214 NA
ATOM     12  C   UNL     1      -0.040  -0.396  -2.567  0.00  0.00    +0.052 C 
BRANCH   8  13
ATOM     13  N   UNL     1       0.013   1.004   2.793  0.00  0.00    -0.343 N 
ATOM     14  H   UNL     1      -0.170   1.596   2.046  0.00  0.00    +0.144 HD
ATOM     15  H   UNL     1       0.107   1.367   3.688  0.00  0.00    +0.144 HD
ENDBRANCH   8  13
ENDBRANCH   1  10
BRANCH   1  16
ATOM     16  C   UNL     1       0.477  -2.376   6.258  0.00  0.00    +0.137 C 
ATOM     17  C   UNL     1       1.699  -1.456   6.214  0.00  0.00    +0.029 C 
BRANCH  16  18
ATOM     18  C   UNL     1       0.478  -3.150   7.551  0.00  0.00    +0.233 C 
ATOM     19  O   UNL     1       0.963  -4.262   7.591  0.00  0.00    -0.274 OA
ATOM     20  N   UNL     1      -0.059  -2.608   8.661  0.00  0.00    -0.267 N 
ATOM     21  C   UNL     1      -0.531  -1.296   8.765  0.00  0.00    +0.040 A 
ATOM     22  C   UNL     1      -0.558  -0.286   7.801  0.00  0.00    +0.024 A 
ATOM     23  C   UNL     1      -1.071   0.955   8.110  0.00  0.00    +0.002 A 
ATOM     24  C   UNL     1      -1.563   1.210   9.377  0.00  0.00    +0.000 A 
ATOM     25  C   UNL     1      -1.540   0.216  10.336  0.00  0.00    +0.005 A 
ATOM     26  C   UNL     1      -1.027  -1.031  10.032  0.00  0.00    -0.024 A 
ATOM     27  C   UNL     1      -0.883  -2.277  10.876  0.00  0.00    +0.059 C 
ATOM     28  C   UNL     1      -0.241  -3.310   9.935  0.00  0.00    +0.083 C 
ATOM     29  C   UNL     1      -1.169  -4.512   9.751  0.00  0.00    +0.029 C 
ENDBRANCH  16  18
ENDBRANCH   1  16
TORSDOF 4
