REMARK  Name = ZINC04176702
REMARK  9 active torsions:
REMARK  status: ('A' for Active; 'I' for Inactive)
REMARK    1  A    between atoms: C_1  and  C_2
REMARK    2  A    between atoms: C_2  and  O_3
REMARK    3  A    between atoms: O_3  and  C_4
REMARK    4  A    between atoms: C_7  and  C_10
REMARK    5  A    between atoms: C_12  and  C_30
REMARK    6  A    between atoms: C_13  and  C_29
REMARK    7  A    between atoms: C_18  and  S_20
REMARK    8  A    between atoms: S_20  and  C_21
REMARK    9  A    between atoms: C_21  and  C_22
REMARK                            x       y       z     vdW  Elec       q    Type
REMARK                         _______ _______ _______ _____ _____    ______ ____
ROOT
ATOM      1  C   UNL     1       1.400  -5.760   1.828  0.00  0.00    +0.166 C 
ATOM      2  C   UNL     1       2.560  -6.496   1.182  0.00  0.00    +0.059 C 
ATOM      3  C   UNL     1       3.278  -7.349   1.974  0.00  0.00    +0.026 C 
ATOM      4  N   UNL     1       2.984  -7.535   3.251  0.00  0.00    -0.330 N 
ATOM      5  C   UNL     1       1.991  -6.935   3.893  0.00  0.00    +0.217 C 
ATOM      6  N   UNL     1       1.171  -6.044   3.249  0.00  0.00    -0.187 N 
ATOM      7  N   UNL     1       0.242  -5.594   4.191  0.00  0.00    -0.118 NA
ATOM      8  C   UNL     1       0.545  -6.232   5.363  0.00  0.00    +0.197 C 
ATOM      9  N   UNL     1       1.576  -7.019   5.164  0.00  0.00    -0.190 NA
ATOM     10  C   UNL     1       4.438  -8.101   1.374  0.00  0.00    +0.064 C 
ATOM     11  H   UNL     1       3.535  -8.155   3.753  0.00  0.00    +0.168 HD
ENDROOT
BRANCH   1  15
ATOM     12  C   UNL     1       2.082  -1.563   1.403  0.00  0.00    +0.121 A 
ATOM     13  C   UNL     1       1.275  -2.231   0.494  0.00  0.00    +0.046 A 
ATOM     14  C   UNL     1       1.056  -3.588   0.633  0.00  0.00    +0.009 A 
ATOM     15  C   UNL     1       1.641  -4.280   1.678  0.00  0.00    -0.020 A 
ATOM     16  C   UNL     1       2.445  -3.616   2.585  0.00  0.00    +0.009 A 
ATOM     17  C   UNL     1       2.672  -2.260   2.447  0.00  0.00    +0.046 A 
BRANCH  12  18
ATOM     18  O   UNL     1       2.299  -0.228   1.267  0.00  0.00    -0.492 OA
BRANCH  18  20
ATOM     19  C   UNL     1       2.019   1.913   0.181  0.00  0.00    +0.048 C 
ATOM     20  C   UNL     1       1.659   0.425   0.169  0.00  0.00    +0.225 C 
ENDBRANCH  18  20
ENDBRANCH  12  18
ENDBRANCH   1  15
BRANCH   2  21
ATOM     21  C   UNL     1       2.884  -6.308  -0.173  0.00  0.00    +0.241 C 
ATOM     22  O   UNL     1       2.241  -6.879  -1.038  0.00  0.00    -0.271 OA
ATOM     23  N   UNL     1       3.904  -5.498  -0.517  0.00  0.00    -0.325 N 
ATOM     24  H   UNL     1       4.370  -4.989   0.165  0.00  0.00    +0.145 HD
ATOM     25  H   UNL     1       4.172  -5.423  -1.446  0.00  0.00    +0.145 HD
ENDBRANCH   2  21
BRANCH   8  26
ATOM     26  S   UNL     1      -0.313  -6.035   6.889  0.00  0.00    -0.082 S 
BRANCH  26  27
ATOM     27  C   UNL     1       0.565  -7.136   8.032  0.00  0.00    +0.115 C 
BRANCH  27  28
ATOM     28  C   UNL     1      -0.076  -7.062   9.394  0.00  0.00    -0.002 A 
ATOM     29  C   UNL     1       0.362  -6.128  10.314  0.00  0.00    +0.007 A 
ATOM     30  C   UNL     1      -0.226  -6.060  11.563  0.00  0.00    +0.000 A 
ATOM     31  C   UNL     1      -1.253  -6.924  11.893  0.00  0.00    +0.003 A 
ATOM     32  C   UNL     1      -1.693  -7.858  10.975  0.00  0.00    +0.038 A 
ATOM     33  C   UNL     1      -1.108  -7.924   9.721  0.00  0.00    +0.127 A 
ATOM     34  F   UNL     1      -1.541  -8.834   8.821  0.00  0.00    -0.205 F 
ENDBRANCH  27  28
ENDBRANCH  26  27
ENDBRANCH   8  26
TORSDOF 7
