REMARK  Name = ZINC16205707
REMARK  5 active torsions:
REMARK  status: ('A' for Active; 'I' for Inactive)
REMARK    1  A    between atoms: C_4  and  N_7
REMARK    2  A    between atoms: C_13  and  C_20
REMARK    3  A    between atoms: N_22  and  N_23
REMARK    4  A    between atoms: C_24  and  C_26
REMARK    5  A    between atoms: C_26  and  C_27
REMARK                            x       y       z     vdW  Elec       q    Type
REMARK                         _______ _______ _______ _____ _____    ______ ____
ROOT
ATOM      1  N   UNL     1      -7.236   5.690   8.839  0.00  0.00    -0.229 N 
ATOM      2  C   UNL     1      -5.933   5.384   8.660  0.00  0.00    +0.269 A 
ATOM      3  O   UNL     1      -5.179   5.286   9.609  0.00  0.00    -0.266 OA
ATOM      4  C   UNL     1      -5.447   5.170   7.282  0.00  0.00    +0.063 A 
ATOM      5  C   UNL     1      -4.117   4.852   7.019  0.00  0.00    +0.016 A 
ATOM      6  C   UNL     1      -3.706   4.655   5.719  0.00  0.00    +0.014 A 
ATOM      7  C   UNL     1      -4.615   4.786   4.665  0.00  0.00    +0.040 A 
ATOM      8  C   UNL     1      -5.947   5.105   4.921  0.00  0.00    +0.039 A 
ATOM      9  C   UNL     1      -6.367   5.298   6.227  0.00  0.00    +0.056 A 
ATOM     10  N   UNL     1      -7.685   5.616   6.525  0.00  0.00    -0.307 N 
ATOM     11  H   UNL     1      -8.331   5.707   5.807  0.00  0.00    +0.170 HD
ATOM     12  C   UNL     1      -8.075   5.800   7.798  0.00  0.00    +0.334 A 
ATOM     13  O   UNL     1      -9.239   6.078   8.015  0.00  0.00    -0.246 OA
ENDROOT
BRANCH   1  17
ATOM     14  C   UNL     1      -8.677   6.306  12.701  0.00  0.00    +0.000 A 
ATOM     15  C   UNL     1      -8.698   5.038  12.151  0.00  0.00    +0.002 A 
ATOM     16  C   UNL     1      -8.221   4.830  10.871  0.00  0.00    +0.026 A 
ATOM     17  C   UNL     1      -7.720   5.897  10.137  0.00  0.00    +0.054 A 
ATOM     18  C   UNL     1      -7.696   7.169  10.694  0.00  0.00    +0.026 A 
ATOM     19  C   UNL     1      -8.180   7.371  11.972  0.00  0.00    +0.002 A 
ENDBRANCH   1  17
BRANCH   7  20
ATOM     20  C   UNL     1      -4.162   4.579   3.271  0.00  0.00    +0.260 C 
ATOM     21  O   UNL     1      -4.951   4.688   2.353  0.00  0.00    -0.269 OA
ATOM     22  N   UNL     1      -2.874   4.271   3.020  0.00  0.00    -0.230 N 
ATOM     23  H   UNL     1      -2.244   4.184   3.753  0.00  0.00    +0.173 HD
BRANCH  22  24
ATOM     24  N   UNL     1      -2.445   4.075   1.701  0.00  0.00    -0.234 N 
ATOM     25  C   UNL     1      -1.158   3.766   1.450  0.00  0.00    +0.233 C 
ATOM     26  O   UNL     1      -0.370   3.658   2.366  0.00  0.00    -0.274 OA
ATOM     27  H   UNL     1      -3.075   4.161   0.968  0.00  0.00    +0.173 HD
BRANCH  25  28
ATOM     28  C   UNL     1      -0.696   3.556   0.030  0.00  0.00    +0.134 C 
BRANCH  28  29
ATOM     29  C   UNL     1       0.774   3.224   0.024  0.00  0.00    -0.014 A 
ATOM     30  C   UNL     1       1.786   4.087  -0.158  0.00  0.00    +0.087 A 
ATOM     31  N   UNL     1       2.981   3.423  -0.104  0.00  0.00    -0.360 N 
ATOM     32  H   UNL     1       3.853   3.835  -0.209  0.00  0.00    +0.165 HD
ATOM     33  C   UNL     1       2.761   2.082   0.118  0.00  0.00    +0.047 A 
ATOM     34  C   UNL     1       1.369   1.899   0.209  0.00  0.00    +0.003 A 
ATOM     35  C   UNL     1       0.848   0.624   0.435  0.00  0.00    +0.010 A 
ATOM     36  C   UNL     1       1.693  -0.442   0.568  0.00  0.00    +0.001 A 
ATOM     37  C   UNL     1       3.067  -0.266   0.479  0.00  0.00    +0.002 A 
ATOM     38  C   UNL     1       3.603   0.983   0.257  0.00  0.00    +0.026 A 
ENDBRANCH  28  29
ENDBRANCH  25  28
ENDBRANCH  22  24
ENDBRANCH   7  20
TORSDOF 5
