REMARK  Name = ZINC03597586
REMARK  4 active torsions:
REMARK  status: ('A' for Active; 'I' for Inactive)
REMARK    1  A    between atoms: N_13  and  C_17
REMARK    2  A    between atoms: C_17  and  C_18
REMARK    3  A    between atoms: N_20  and  C_21
REMARK    4  A    between atoms: N_20  and  C_27
REMARK                            x       y       z     vdW  Elec       q    Type
REMARK                         _______ _______ _______ _____ _____    ______ ____
ROOT
ATOM      1  C   UNL     1      -4.676  -7.778   1.854  0.00  0.00    +0.000 A 
ATOM      2  C   UNL     1      -3.710  -7.456   0.919  0.00  0.00    +0.000 A 
ATOM      3  C   UNL     1      -3.603  -6.159   0.464  0.00  0.00    +0.006 A 
ATOM      4  C   UNL     1      -4.458  -5.171   0.936  0.00  0.00    -0.012 A 
ATOM      5  C   UNL     1      -5.425  -5.494   1.863  0.00  0.00    -0.042 A 
ATOM      6  C   UNL     1      -5.529  -6.800   2.322  0.00  0.00    +0.004 A 
ATOM      7  C   UNL     1      -6.393  -4.477   2.408  0.00  0.00    +0.035 C 
ATOM      8  C   UNL     1      -5.885  -3.058   2.161  0.00  0.00    +0.008 C 
ATOM      9  C   UNL     1      -5.521  -2.923   0.677  0.00  0.00    +0.040 C 
ATOM     10  C   UNL     1      -4.287  -3.776   0.406  0.00  0.00    +0.138 C 
ATOM     11  C   UNL     1      -3.060  -3.137   1.016  0.00  0.00    +0.251 C 
ATOM     12  O   UNL     1      -2.857  -2.911   2.190  0.00  0.00    -0.272 OA
ATOM     13  N   UNL     1      -2.239  -2.870  -0.020  0.00  0.00    -0.215 N 
ATOM     14  C   UNL     1      -2.773  -3.257  -1.184  0.00  0.00    +0.310 C 
ATOM     15  O   UNL     1      -2.219  -3.127  -2.258  0.00  0.00    -0.252 OA
ATOM     16  N   UNL     1      -3.992  -3.808  -1.033  0.00  0.00    -0.281 N 
ATOM     17  H   UNL     1      -4.563  -4.157  -1.735  0.00  0.00    +0.152 HD
ENDROOT
BRANCH  13  18
ATOM     18  C   UNL     1      -0.923  -2.240   0.114  0.00  0.00    +0.213 C 
BRANCH  18  19
ATOM     19  C   UNL     1      -1.070  -0.744   0.009  0.00  0.00    +0.234 C 
ATOM     20  O   UNL     1      -2.173  -0.247  -0.072  0.00  0.00    -0.274 OA
ATOM     21  N   UNL     1       0.025   0.042   0.004  0.00  0.00    -0.294 N 
BRANCH  21  22
ATOM     22  C   UNL     1      -0.119   1.500   0.010  0.00  0.00    +0.076 C 
ATOM     23  C   UNL     1      -0.880   1.933   1.265  0.00  0.00    +0.022 C 
ATOM     24  C   UNL     1      -1.031   3.455   1.270  0.00  0.00    +0.002 C 
ATOM     25  C   UNL     1      -1.806   3.895   0.027  0.00  0.00    +0.000 C 
ATOM     26  C   UNL     1      -1.046   3.463  -1.228  0.00  0.00    +0.002 C 
ATOM     27  C   UNL     1      -0.895   1.940  -1.234  0.00  0.00    +0.022 C 
ENDBRANCH  21  22
BRANCH  21  28
ATOM     28  C   UNL     1       1.360  -0.561  -0.005  0.00  0.00    +0.076 C 
ATOM     29  C   UNL     1       2.171  -0.024   1.175  0.00  0.00    +0.022 C 
ATOM     30  C   UNL     1       3.566  -0.654   1.165  0.00  0.00    +0.002 C 
ATOM     31  C   UNL     1       4.275  -0.302  -0.144  0.00  0.00    +0.000 C 
ATOM     32  C   UNL     1       3.464  -0.840  -1.325  0.00  0.00    +0.002 C 
ATOM     33  C   UNL     1       2.070  -0.209  -1.314  0.00  0.00    +0.022 C 
ENDBRANCH  21  28
ENDBRANCH  18  19
ENDBRANCH  13  18
TORSDOF 4
