REMARK  Name = ZINC12402852
REMARK  9 active torsions:
REMARK  status: ('A' for Active; 'I' for Inactive)
REMARK    1  A    between atoms: C_1  and  C_2
REMARK    2  A    between atoms: C_2  and  C_3
REMARK    3  A    between atoms: C_3  and  C_4
REMARK    4  A    between atoms: C_22  and  C_37
REMARK    5  A    between atoms: C_25  and  O_36
REMARK    6  A    between atoms: C_28  and  C_35
REMARK    7  A    between atoms: C_29  and  C_31
REMARK    8  A    between atoms: C_31  and  C_33
REMARK    9  A    between atoms: C_33  and  O_34
REMARK                            x       y       z     vdW  Elec       q    Type
REMARK                         _______ _______ _______ _____ _____    ______ ____
ROOT
ATOM      1  C   UNL     1       1.375   1.816  -0.001  0.00  0.00    +0.252 C 
ATOM      2  O   UNL     1      -0.017   1.434   0.010  0.00  0.00    -0.345 OA
ATOM      3  C   UNL     1       0.002  -0.004   0.002  0.00  0.00    +0.161 C 
ATOM      4  C   UNL     1      -1.099  -0.538   0.956  0.00  0.00    +0.039 C 
ATOM      5  C   UNL     1      -0.367  -1.662   1.698  0.00  0.00    +0.004 C 
ATOM      6  C   UNL     1      -1.015  -2.247   2.911  0.00  0.00    -0.000 C 
ATOM      7  C   UNL     1      -1.611  -1.246   3.894  0.00  0.00    +0.008 C 
ATOM      8  C   UNL     1      -2.679  -2.012   4.686  0.00  0.00    +0.032 C 
ATOM      9  C   UNL     1      -2.095  -3.310   5.190  0.00  0.00    -0.056 C 
ATOM     10  C   UNL     1      -2.903  -4.054   5.966  0.00  0.00    +0.051 C 
ATOM     11  C   UNL     1      -2.411  -5.349   6.484  0.00  0.00    +0.179 C 
ATOM     12  O   UNL     1      -2.890  -5.871   7.482  0.00  0.00    -0.288 OA
ATOM     13  C   UNL     1      -1.334  -6.013   5.713  0.00  0.00    +0.047 C 
ATOM     14  C   UNL     1      -0.544  -5.257   4.941  0.00  0.00    -0.012 C 
ATOM     15  C   UNL     1      -0.709  -3.765   4.889  0.00  0.00    +0.013 C 
ATOM     16  C   UNL     1      -0.066  -3.191   3.652  0.00  0.00    +0.035 C 
ATOM     17  C   UNL     1       1.329  -2.634   3.845  0.00  0.00    +0.120 C 
ATOM     18  C   UNL     1       1.917  -2.093   2.522  0.00  0.00    +0.042 C 
ATOM     19  C   UNL     1       0.999  -1.012   1.998  0.00  0.00    +0.012 C 
ATOM     20  C   UNL     1       1.369  -0.388   0.645  0.00  0.00    +0.164 C 
ATOM     21  O   UNL     1       2.019   0.879   0.886  0.00  0.00    -0.334 OA
ATOM     22  C   UNL     1       0.898   0.132   3.009  0.00  0.00    +0.015 C 
ATOM     23  C   UNL     1       0.091  -3.268   6.097  0.00  0.00    +0.020 C 
ENDROOT
BRANCH  20  24
ATOM     24  C   UNL     1       2.186  -1.297  -0.229  0.00  0.00    +0.193 C 
ATOM     25  O   UNL     1       2.055  -2.494  -0.143  0.00  0.00    -0.292 OA
BRANCH  24  26
ATOM     26  C   UNL     1       3.168  -0.714  -1.212  0.00  0.00    +0.233 C 
BRANCH  26  27
ATOM     27  O   UNL     1       3.817  -1.772  -1.921  0.00  0.00    -0.387 OA
ATOM     28  H   UNL     1       4.465  -1.470  -2.572  0.00  0.00    +0.210 HD
ENDBRANCH  26  27
ENDBRANCH  24  26
ENDBRANCH  20  24
BRANCH  17  29
ATOM     29  O   UNL     1       2.208  -3.689   4.271  0.00  0.00    -0.391 OA
ATOM     30  H   UNL     1       3.121  -3.407   4.415  0.00  0.00    +0.210 HD
ENDBRANCH  17  29
BRANCH   1  31
ATOM     31  C   UNL     1       1.539   3.245   0.522  0.00  0.00    +0.061 C 
BRANCH  31  33
ATOM     32  C   UNL     1       1.049   5.653   0.068  0.00  0.00    +0.004 C 
ATOM     33  C   UNL     1       0.886   4.224  -0.455  0.00  0.00    +0.002 C 
ENDBRANCH  31  33
ENDBRANCH   1  31
TORSDOF 6
