REMARK  Name = ZINC03328395
REMARK  5 active torsions:
REMARK  status: ('A' for Active; 'I' for Inactive)
REMARK    1  A    between atoms: C_1  and  O_2
REMARK    2  A    between atoms: O_2  and  C_3
REMARK    3  A    between atoms: C_8  and  N_9
REMARK    4  A    between atoms: N_20  and  S_21
REMARK    5  A    between atoms: S_21  and  C_24
REMARK                            x       y       z     vdW  Elec       q    Type
REMARK                         _______ _______ _______ _____ _____    ______ ____
ROOT
ATOM      1  N   UNL     1       5.280   2.362   4.215  0.00  0.00    -0.294 N 
ATOM      2  C   UNL     1       5.146   1.091   3.675  0.00  0.00    +0.165 A 
ATOM      3  C   UNL     1       4.976   0.935   2.278  0.00  0.00    +0.179 A 
ATOM      4  N   UNL     1       4.842  -0.265   1.754  0.00  0.00    -0.226 NA
ATOM      5  C   UNL     1       4.877  -1.347   2.546  0.00  0.00    +0.091 A 
ATOM      6  C   UNL     1       4.742  -2.637   2.010  0.00  0.00    +0.030 A 
ATOM      7  C   UNL     1       4.773  -3.720   2.836  0.00  0.00    +0.002 A 
ATOM      8  C   UNL     1       4.939  -3.566   4.210  0.00  0.00    +0.002 A 
ATOM      9  C   UNL     1       5.074  -2.329   4.764  0.00  0.00    +0.030 A 
ATOM     10  C   UNL     1       5.046  -1.190   3.943  0.00  0.00    +0.091 A 
ATOM     11  N   UNL     1       5.176   0.038   4.465  0.00  0.00    -0.227 NA
ATOM     12  N   UNL     1       4.945   2.053   1.458  0.00  0.00    -0.196 N 
ATOM     13  H   UNL     1       5.166   3.143   3.652  0.00  0.00    +0.154 HD
ATOM     14  H   UNL     1       5.040   2.939   1.842  0.00  0.00    +0.175 HD
ENDROOT
BRANCH   1  20
ATOM     15  C   UNL     1       5.167   3.659   6.255  0.00  0.00    +0.141 A 
ATOM     16  C   UNL     1       5.468   3.807   7.599  0.00  0.00    +0.047 A 
ATOM     17  C   UNL     1       6.177   2.822   8.262  0.00  0.00    +0.004 A 
ATOM     18  C   UNL     1       6.588   1.688   7.586  0.00  0.00    +0.002 A 
ATOM     19  C   UNL     1       6.288   1.530   6.247  0.00  0.00    +0.027 A 
ATOM     20  C   UNL     1       5.581   2.517   5.574  0.00  0.00    +0.075 A 
BRANCH  15  22
ATOM     21  C   UNL     1       4.077   5.771   6.364  0.00  0.00    +0.277 C 
ATOM     22  O   UNL     1       4.469   4.627   5.602  0.00  0.00    -0.493 OA
ENDBRANCH  15  22
ENDBRANCH   1  20
BRANCH  12  23
ATOM     23  S   UNL     1       4.747   1.876  -0.176  0.00  0.00    +0.080 S 
ATOM     24  O   UNL     1       5.677   0.885  -0.593  0.00  0.00    -0.149 OA
ATOM     25  O   UNL     1       4.731   3.185  -0.728  0.00  0.00    -0.149 OA
BRANCH  23  26
ATOM     26  C   UNL     1       3.141   1.200  -0.436  0.00  0.00    +0.147 A 
ATOM     27  C   UNL     1       1.963   1.844  -0.619  0.00  0.00    +0.038 A 
ATOM     28  C   UNL     1       0.813   1.100  -0.806  0.00  0.00    +0.025 A 
ATOM     29  C   UNL     1       0.898  -0.254  -0.801  0.00  0.00    +0.057 A 
ATOM     30  S   UNL     1       2.643  -0.513  -0.526  0.00  0.00    -0.061 S 
ATOM     31 BR   UNL     1      -0.475  -1.534  -1.028  0.00  0.00    -0.043 Br
ENDBRANCH  23  26
ENDBRANCH  12  23
TORSDOF 4
