REMARK  Name = ZINC04839709
REMARK  2 active torsions:
REMARK  status: ('A' for Active; 'I' for Inactive)
REMARK    1  A    between atoms: C_6  and  C_7
REMARK    2  A    between atoms: C_9  and  C_20
REMARK                            x       y       z     vdW  Elec       q    Type
REMARK                         _______ _______ _______ _____ _____    ______ ____
ROOT
ATOM      1  C   UNL     1       2.393   0.124  -0.020  0.00  0.00    +0.075 A 
ATOM      2  C   UNL     1       1.226  -0.643  -0.013  0.00  0.00    +0.041 A 
ATOM      3  C   UNL     1       0.002  -0.004   0.002  0.00  0.00    +0.070 A 
ATOM      4  C   UNL     1      -0.017   1.391   0.010  0.00  0.00    +0.066 A 
ATOM      5  C   UNL     1      -1.072   2.406   0.019  0.00  0.00    +0.113 A 
ATOM      6  C   UNL     1      -2.489   2.764   0.027  0.00  0.00    +0.171 A 
ATOM      7  N   UNL     1      -2.513   4.074   0.034  0.00  0.00    -0.058 NA
ATOM      8  O   UNL     1      -1.404   4.555   0.040  0.00  0.00    -0.314 OA
ATOM      9  C   UNL     1      -0.427   3.634   0.026  0.00  0.00    +0.329 A 
ATOM     10  O   UNL     1       0.900   3.422   0.012  0.00  0.00    -0.404 OA
ATOM     11  C   UNL     1       1.195   2.104   0.002  0.00  0.00    +0.233 A 
ATOM     12  N   UNL     1       2.345   1.448  -0.013  0.00  0.00    -0.212 NA
ATOM     13  N   UNL     1      -3.577   1.900   0.027  0.00  0.00    -0.340 N 
ATOM     14  H   UNL     1      -3.435   0.941   0.021  0.00  0.00    +0.144 HD
ATOM     15  H   UNL     1      -4.479   2.257   0.033  0.00  0.00    +0.144 HD
ENDROOT
BRANCH   1  21
ATOM     16  C   UNL     1       3.779  -1.949  -0.040  0.00  0.00    +0.011 A 
ATOM     17  C   UNL     1       5.008  -2.576  -0.060  0.00  0.00    +0.016 A 
ATOM     18  C   UNL     1       6.171  -1.826  -0.068  0.00  0.00    +0.018 A 
ATOM     19  C   UNL     1       6.109  -0.444  -0.060  0.00  0.00    +0.016 A 
ATOM     20  C   UNL     1       4.885   0.194  -0.044  0.00  0.00    +0.011 A 
ATOM     21  C   UNL     1       3.711  -0.556  -0.037  0.00  0.00    +0.001 A 
ATOM     22 BR   UNL     1       7.851  -2.694  -0.088  0.00  0.00    -0.050 Br
ENDBRANCH   1  21
BRANCH   3  23
ATOM     23  C   UNL     1      -1.281  -0.794   0.011  0.00  0.00    +0.418 C 
ATOM     24  F   UNL     1      -0.987  -2.162   0.000  0.00  0.00    -0.166 F 
ATOM     25  F   UNL     1      -2.013  -0.483   1.162  0.00  0.00    -0.166 F 
ATOM     26  F   UNL     1      -2.035  -0.471  -1.123  0.00  0.00    -0.166 F 
ENDBRANCH   3  23
TORSDOF 2
