REMARK  Name = ZINC39655254
REMARK  6 active torsions:
REMARK  status: ('A' for Active; 'I' for Inactive)
REMARK    1  A    between atoms: C_4  and  N_7
REMARK    2  A    between atoms: N_7  and  C_8
REMARK    3  A    between atoms: C_8  and  C_9
REMARK    4  A    between atoms: C_9  and  N_10
REMARK    5  A    between atoms: C_11  and  C_13
REMARK    6  A    between atoms: C_24  and  C_26
REMARK                            x       y       z     vdW  Elec       q    Type
REMARK                         _______ _______ _______ _____ _____    ______ ____
ROOT
ATOM      1  C   UNL     1       6.077  -6.841  -0.074  0.00  0.00    +0.100 C 
ATOM      2  C   UNL     1       5.355  -7.070  -1.421  0.00  0.00    +0.121 C 
ATOM      3  N   UNL     1       6.448  -7.235  -2.408  0.00  0.00    -0.296 N 
ATOM      4  C   UNL     1       7.472  -8.034  -1.694  0.00  0.00    +0.115 C 
ATOM      5  C   UNL     1       7.465  -7.478  -0.256  0.00  0.00    -0.004 C 
ATOM      6  C   UNL     1       8.556  -6.424  -0.093  0.00  0.00    -0.010 C 
ATOM      7  C   UNL     1       9.927  -7.092  -0.223  0.00  0.00    -0.082 C 
ATOM      8  N   UNL     1      10.066  -8.132   0.805  0.00  0.00    +0.379 N 
ATOM      9  C   UNL     1       9.071  -9.189   0.586  0.00  0.00    -0.082 C 
ATOM     10  C   UNL     1       7.663  -8.609   0.749  0.00  0.00    -0.010 C 
ATOM     11  C   UNL     1       6.499  -6.764  -3.670  0.00  0.00    +0.247 C 
ATOM     12  O   UNL     1       5.632  -6.015  -4.075  0.00  0.00    -0.270 OA
ATOM     13  H   UNL     1      10.992  -8.528   0.757  0.00  0.00    -0.086 HD
ATOM     14  H   UNL     1       9.925  -7.723   1.716  0.00  0.00    -0.086 HD
ENDROOT
BRANCH  11  15
ATOM     15  C   UNL     1       7.610  -7.160  -4.561  0.00  0.00    +0.037 A 
ATOM     16  C   UNL     1       8.337  -8.333  -4.292  0.00  0.00    +0.013 A 
ATOM     17  C   UNL     1       9.361  -8.717  -5.096  0.00  0.00    +0.009 A 
ATOM     18  C   UNL     1       9.707  -7.938  -6.215  0.00  0.00    -0.018 A 
ATOM     19  C   UNL     1      10.763  -8.315  -7.061  0.00  0.00    +0.008 A 
ATOM     20  C   UNL     1      11.076  -7.541  -8.137  0.00  0.00    +0.001 A 
ATOM     21  C   UNL     1      10.364  -6.375  -8.414  0.00  0.00    +0.001 A 
ATOM     22  C   UNL     1       9.335  -5.978  -7.617  0.00  0.00    +0.008 A 
ATOM     23  C   UNL     1       8.982  -6.752  -6.497  0.00  0.00    -0.017 A 
ATOM     24  C   UNL     1       7.923  -6.375  -5.658  0.00  0.00    +0.021 A 
ENDBRANCH  11  15
BRANCH   1  26
ATOM     25  N   UNL     1       6.346  -4.931   1.474  0.00  0.00    -0.314 N 
ATOM     26  C   UNL     1       6.210  -5.366   0.206  0.00  0.00    +0.218 C 
ATOM     27  O   UNL     1       6.193  -4.571  -0.710  0.00  0.00    -0.275 OA
ATOM     28  H   UNL     1       6.359  -5.566   2.207  0.00  0.00    +0.149 HD
BRANCH  25  29
ATOM     29  C   UNL     1       6.475  -3.497   1.747  0.00  0.00    +0.123 C 
BRANCH  29  30
ATOM     30  C   UNL     1       6.615  -3.275   3.254  0.00  0.00    +0.120 C 
BRANCH  30  31
ATOM     31  N   UNL     1       6.744  -1.841   3.526  0.00  0.00    -0.342 N 
ATOM     32  H   UNL     1       6.731  -1.205   2.794  0.00  0.00    +0.146 HD
BRANCH  31  36
ATOM     33  C   UNL     1       7.165  -0.496   7.444  0.00  0.00    +0.000 A 
ATOM     34  C   UNL     1       7.147   0.412   6.401  0.00  0.00    +0.002 A 
ATOM     35  C   UNL     1       7.008  -0.031   5.100  0.00  0.00    +0.023 A 
ATOM     36  C   UNL     1       6.886  -1.390   4.840  0.00  0.00    +0.027 A 
ATOM     37  C   UNL     1       6.904  -2.299   5.891  0.00  0.00    +0.023 A 
ATOM     38  C   UNL     1       7.044  -1.849   7.189  0.00  0.00    +0.002 A 
ENDBRANCH  31  36
ENDBRANCH  30  31
ENDBRANCH  29  30
ENDBRANCH  25  29
ENDBRANCH   1  26
TORSDOF 6
