REMARK  Name = ZINC33029223
REMARK  3 active torsions:
REMARK  status: ('A' for Active; 'I' for Inactive)
REMARK    1  A    between atoms: C_4  and  N_7
REMARK    2  A    between atoms: N_10  and  C_13
REMARK    3  A    between atoms: C_13  and  N_14
REMARK                            x       y       z     vdW  Elec       q    Type
REMARK                         _______ _______ _______ _____ _____    ______ ____
ROOT
ATOM      1  N   UNL     1      -1.137   1.940   0.018  0.00  0.00    -0.210 N 
ATOM      2  C   UNL     1      -0.870   3.262   0.027  0.00  0.00    +0.252 C 
ATOM      3  O   UNL     1      -1.672   4.172   0.039  0.00  0.00    -0.272 OA
ATOM      4  C   UNL     1       0.638   3.372   0.014  0.00  0.00    +0.138 C 
ATOM      5  C   UNL     1       1.104   4.093  -1.244  0.00  0.00    +0.040 C 
ATOM      6  C   UNL     1       2.611   4.354  -1.127  0.00  0.00    +0.008 C 
ATOM      7  C   UNL     1       2.837   5.396  -0.034  0.00  0.00    +0.035 C 
ATOM      8  C   UNL     1       2.135   4.995   1.237  0.00  0.00    -0.042 A 
ATOM      9  C   UNL     1       1.118   4.066   1.257  0.00  0.00    -0.012 A 
ATOM     10  C   UNL     1       0.503   3.747   2.461  0.00  0.00    +0.006 A 
ATOM     11  C   UNL     1       0.905   4.350   3.635  0.00  0.00    +0.000 A 
ATOM     12  C   UNL     1       1.928   5.279   3.615  0.00  0.00    +0.000 A 
ATOM     13  C   UNL     1       2.539   5.599   2.420  0.00  0.00    +0.004 A 
ATOM     14  N   UNL     1       1.094   1.975   0.002  0.00  0.00    -0.281 N 
ATOM     15  C   UNL     1      -0.014   1.211   0.009  0.00  0.00    +0.311 C 
ATOM     16  O   UNL     1       0.002  -0.004   0.002  0.00  0.00    -0.252 OA
ATOM     17  H   UNL     1       2.171   1.748  -0.009  0.00  0.00    +0.152 HD
ENDROOT
BRANCH   1  18
ATOM     18  C   UNL     1      -2.487   1.373   0.020  0.00  0.00    +0.205 C 
BRANCH  18  22
ATOM     19  N   UNL     1      -4.273  -0.184   3.518  0.00  0.00    -0.327 N 
ATOM     20  C   UNL     1      -4.821   1.060   2.960  0.00  0.00    +0.120 C 
ATOM     21  C   UNL     1      -4.400   1.188   1.494  0.00  0.00    +0.105 C 
ATOM     22  N   UNL     1      -2.933   1.176   1.406  0.00  0.00    -0.283 NA
ATOM     23  C   UNL     1      -2.385  -0.068   1.964  0.00  0.00    +0.105 C 
ATOM     24  C   UNL     1      -2.806  -0.196   3.430  0.00  0.00    +0.120 C 
BRANCH  19  28
ATOM     25  C   UNL     1      -5.535  -0.742   7.446  0.00  0.00    +0.000 A 
ATOM     26  C   UNL     1      -4.708  -1.675   6.849  0.00  0.00    +0.002 A 
ATOM     27  C   UNL     1      -4.287  -1.493   5.546  0.00  0.00    +0.023 A 
ATOM     28  C   UNL     1      -4.697  -0.372   4.836  0.00  0.00    +0.030 A 
ATOM     29  C   UNL     1      -5.524   0.566   5.441  0.00  0.00    +0.023 A 
ATOM     30  C   UNL     1      -5.945   0.376   6.742  0.00  0.00    +0.002 A 
ENDBRANCH  19  28
ENDBRANCH  18  22
ENDBRANCH   1  18
TORSDOF 3
