REMARK  Name = ZINC26525086
REMARK  4 active torsions:
REMARK  status: ('A' for Active; 'I' for Inactive)
REMARK    1  A    between atoms: C_4  and  O_23
REMARK    2  A    between atoms: C_5  and  N_7
REMARK    3  A    between atoms: C_13  and  C_15
REMARK    4  A    between atoms: C_19  and  C_21
REMARK                            x       y       z     vdW  Elec       q    Type
REMARK                         _______ _______ _______ _____ _____    ______ ____
ROOT
ATOM      1  N   UNL     1       2.097  -2.467  -0.361  0.00  0.00    -0.324 N 
ATOM      2  C   UNL     1       2.141  -3.201   0.911  0.00  0.00    +0.124 C 
ATOM      3  C   UNL     1       0.779  -3.869   1.139  0.00  0.00    +0.127 C 
ATOM      4  N   UNL     1       0.400  -4.592  -0.083  0.00  0.00    -0.295 N 
ATOM      5  C   UNL     1       0.356  -3.858  -1.356  0.00  0.00    +0.127 C 
ATOM      6  C   UNL     1       1.713  -3.189  -1.583  0.00  0.00    +0.124 C 
ATOM      7  C   UNL     1       0.099  -5.904  -0.038  0.00  0.00    +0.247 C 
ATOM      8  O   UNL     1      -0.279  -6.476  -1.042  0.00  0.00    -0.270 OA
ENDROOT
BRANCH   1  13
ATOM      9  C   UNL     1       1.725   1.191  -0.278  0.00  0.00    +0.002 A 
ATOM     10  C   UNL     1       3.028   1.595  -0.502  0.00  0.00    +0.004 A 
ATOM     11  C   UNL     1       4.026   0.655  -0.681  0.00  0.00    +0.047 A 
ATOM     12  C   UNL     1       3.723  -0.695  -0.635  0.00  0.00    +0.138 A 
ATOM     13  C   UNL     1       2.410  -1.103  -0.408  0.00  0.00    +0.072 A 
ATOM     14  C   UNL     1       1.414  -0.155  -0.230  0.00  0.00    +0.027 A 
BRANCH  12  15
ATOM     15  O   UNL     1       4.704  -1.621  -0.811  0.00  0.00    -0.505 OA
ATOM     16  H   UNL     1       5.139  -1.893   0.009  0.00  0.00    +0.292 HD
ENDBRANCH  12  15
ENDBRANCH   1  13
BRANCH   7  17
ATOM     17  C   UNL     1       0.229  -6.649   1.233  0.00  0.00    +0.038 A 
ATOM     18  C   UNL     1      -0.372  -6.161   2.395  0.00  0.00    +0.013 A 
ATOM     19  C   UNL     1      -0.252  -6.854   3.583  0.00  0.00    +0.002 A 
ATOM     20  C   UNL     1       0.462  -8.035   3.631  0.00  0.00    +0.019 A 
ATOM     21  C   UNL     1       1.068  -8.536   2.476  0.00  0.00    +0.052 A 
ATOM     22  C   UNL     1       0.946  -7.843   1.272  0.00  0.00    +0.032 A 
BRANCH  21  23
ATOM     23  C   UNL     1       1.809  -9.760   2.527  0.00  0.00    +0.099 C 
ATOM     24  N   UNL     1       2.396 -10.732   2.567  0.00  0.00    -0.191 NA
ENDBRANCH  21  23
ENDBRANCH   7  17
TORSDOF 4
