REMARK  Name = ZINC39695761
REMARK  9 active torsions:
REMARK  status: ('A' for Active; 'I' for Inactive)
REMARK    1  A    between atoms: C_1  and  C_2
REMARK    2  A    between atoms: C_9  and  C_11
REMARK    3  A    between atoms: C_11  and  C_13
REMARK    4  A    between atoms: C_11  and  N_14
REMARK    5  A    between atoms: C_15  and  C_17
REMARK    6  A    between atoms: C_28  and  C_30
REMARK    7  A    between atoms: C_30  and  C_32
REMARK    8  A    between atoms: C_30  and  O_33
REMARK    9  A    between atoms: O_33  and  C_34
REMARK                            x       y       z     vdW  Elec       q    Type
REMARK                         _______ _______ _______ _____ _____    ______ ____
ROOT
ATOM      1  C   UNL     1      -1.627  -8.741   0.988  0.00  0.00    +0.100 C 
ATOM      2  C   UNL     1      -2.898  -8.220   0.281  0.00  0.00    +0.121 C 
ATOM      3  N   UNL     1      -3.811  -9.387   0.244  0.00  0.00    -0.297 N 
ATOM      4  C   UNL     1      -3.618 -10.047   1.558  0.00  0.00    +0.115 C 
ATOM      5  C   UNL     1      -2.104  -9.940   1.825  0.00  0.00    -0.004 C 
ATOM      6  C   UNL     1      -1.847  -9.684   3.307  0.00  0.00    -0.010 C 
ATOM      7  C   UNL     1      -2.275 -10.913   4.114  0.00  0.00    -0.082 C 
ATOM      8  N   UNL     1      -1.518 -12.086   3.661  0.00  0.00    +0.379 N 
ATOM      9  C   UNL     1      -1.842 -12.381   2.260  0.00  0.00    -0.082 C 
ATOM     10  C   UNL     1      -1.396 -11.214   1.374  0.00  0.00    -0.010 C 
ATOM     11  C   UNL     1      -4.631  -9.763  -0.757  0.00  0.00    +0.256 C 
ATOM     12  O   UNL     1      -4.607  -9.171  -1.815  0.00  0.00    -0.272 OA
ATOM     13  H   UNL     1      -0.530 -11.900   3.744  0.00  0.00    -0.086 HD
ATOM     14  H   UNL     1      -1.757 -12.881   4.234  0.00  0.00    -0.086 HD
ENDROOT
BRANCH   1  16
ATOM     15  N   UNL     1       0.246  -7.734   2.250  0.00  0.00    -0.305 N 
ATOM     16  C   UNL     1      -1.048  -7.674   1.881  0.00  0.00    +0.219 C 
ATOM     17  O   UNL     1      -1.748  -6.761   2.267  0.00  0.00    -0.275 OA
ATOM     18  H   UNL     1       0.806  -8.463   1.942  0.00  0.00    +0.149 HD
BRANCH  15  19
ATOM     19  C   UNL     1       0.809  -6.696   3.119  0.00  0.00    +0.136 C 
ATOM     20  C   UNL     1       0.527  -7.047   4.581  0.00  0.00    +0.036 C 
BRANCH  19  29
ATOM     21  C   UNL     1       8.031  -5.019   2.473  0.00  0.00    +0.044 C 
ATOM     22  C   UNL     1       6.724  -5.769   2.444  0.00  0.00    -0.048 A 
ATOM     23  C   UNL     1       6.696  -7.089   2.017  0.00  0.00    +0.005 A 
ATOM     24  C   UNL     1       5.522  -7.786   1.983  0.00  0.00    +0.030 A 
ATOM     25  C   UNL     1       4.333  -7.168   2.382  0.00  0.00    +0.089 A 
ATOM     26  C   UNL     1       4.361  -5.831   2.814  0.00  0.00    +0.067 A 
ATOM     27  C   UNL     1       5.565  -5.140   2.846  0.00  0.00    +0.031 A 
ATOM     28  N   UNL     1       3.058  -5.508   3.135  0.00  0.00    -0.340 N 
ATOM     29  C   UNL     1       2.297  -6.611   2.900  0.00  0.00    +0.128 A 
ATOM     30  N   UNL     1       3.043  -7.582   2.459  0.00  0.00    -0.231 NA
ATOM     31  H   UNL     1       2.743  -4.653   3.467  0.00  0.00    +0.167 HD
ENDBRANCH  19  29
ENDBRANCH  15  19
ENDBRANCH   1  16
BRANCH  11  32
ATOM     32  C   UNL     1      -5.578 -10.919  -0.561  0.00  0.00    +0.256 C 
ATOM     33  C   UNL     1      -6.659 -10.528   0.449  0.00  0.00    +0.062 C 
BRANCH  32  34
ATOM     34  O   UNL     1      -6.190 -11.250  -1.809  0.00  0.00    -0.480 OA
BRANCH  34  35
ATOM     35  C   UNL     1      -6.642 -12.523  -1.957  0.00  0.00    +0.122 A 
ATOM     36  C   UNL     1      -7.133 -12.949  -3.183  0.00  0.00    +0.045 A 
ATOM     37  C   UNL     1      -7.590 -14.244  -3.330  0.00  0.00    +0.004 A 
ATOM     38  C   UNL     1      -7.560 -15.115  -2.257  0.00  0.00    +0.000 A 
ATOM     39  C   UNL     1      -7.072 -14.693  -1.034  0.00  0.00    +0.004 A 
ATOM     40  C   UNL     1      -6.607 -13.401  -0.883  0.00  0.00    +0.045 A 
ENDBRANCH  34  35
ENDBRANCH  32  34
ENDBRANCH  11  32
TORSDOF 6
