REMARK  Name = ZINC13459496
REMARK  5 active torsions:
REMARK  status: ('A' for Active; 'I' for Inactive)
REMARK    1  A    between atoms: C_1  and  C_2
REMARK    2  A    between atoms: C_7  and  C_10
REMARK    3  A    between atoms: C_16  and  O_20
REMARK    4  A    between atoms: C_18  and  O_19
REMARK    5  A    between atoms: O_20  and  C_21
REMARK                            x       y       z     vdW  Elec       q    Type
REMARK                         _______ _______ _______ _____ _____    ______ ____
ROOT
ATOM      1  C   UNL     1       4.169   0.688   7.551  0.00  0.00    +0.038 C 
ATOM      2  C   UNL     1       3.573   0.809   6.147  0.00  0.00    +0.120 C 
ATOM      3  C   UNL     1       4.167   2.027   5.438  0.00  0.00    +0.070 C 
ATOM      4  C   UNL     1       3.391   2.319   4.179  0.00  0.00    +0.012 C 
ATOM      5  C   UNL     1       2.169   1.812   3.970  0.00  0.00    +0.035 C 
ATOM      6  C   UNL     1       1.502   0.906   4.973  0.00  0.00    +0.150 C 
ATOM      7  O   UNL     1       2.155   0.992   6.238  0.00  0.00    -0.369 OA
ATOM      8  C   UNL     1       0.038   1.319   5.131  0.00  0.00    +0.043 C 
ATOM      9  C   UNL     1       1.436   2.130   2.721  0.00  0.00    +0.196 C 
ATOM     10  O   UNL     1       0.243   1.909   2.640  0.00  0.00    -0.287 OA
ATOM     11  C   UNL     1       2.159   2.715   1.583  0.00  0.00    +0.074 A 
ATOM     12  C   UNL     1       3.450   3.241   1.797  0.00  0.00    +0.040 A 
ATOM     13  C   UNL     1       4.151   3.802   0.742  0.00  0.00    +0.058 A 
ATOM     14  C   UNL     1       3.578   3.838  -0.531  0.00  0.00    +0.124 A 
ATOM     15  C   UNL     1       2.314   3.318  -0.747  0.00  0.00    +0.091 A 
ATOM     16  C   UNL     1       1.597   2.751   0.304  0.00  0.00    +0.132 A 
ATOM     17  C   UNL     1       4.022   3.183   3.158  0.00  0.00    +0.191 C 
ATOM     18  O   UNL     1       4.997   3.851   3.442  0.00  0.00    -0.287 OA
ENDROOT
BRANCH  16  19
ATOM     19  O   UNL     1       0.359   2.243   0.089  0.00  0.00    -0.506 OA
ATOM     20  H   UNL     1       0.355   1.307  -0.157  0.00  0.00    +0.292 HD
ENDBRANCH  16  19
BRANCH  14  21
ATOM     21  O   UNL     1       4.266   4.387  -1.564  0.00  0.00    -0.495 OA
ATOM     22  C   UNL     1       3.623   4.393  -2.841  0.00  0.00    +0.277 C 
ENDBRANCH  14  21
TORSDOF 2
