REMARK  Name = ZINC44737598
REMARK  8 active torsions:
REMARK  status: ('A' for Active; 'I' for Inactive)
REMARK    1  A    between atoms: C_1  and  C_2
REMARK    2  A    between atoms: C_9  and  C_11
REMARK    3  A    between atoms: C_11  and  C_13
REMARK    4  A    between atoms: C_11  and  N_14
REMARK    5  A    between atoms: C_15  and  C_17
REMARK    6  A    between atoms: C_28  and  C_30
REMARK    7  A    between atoms: C_30  and  C_31
REMARK    8  A    between atoms: C_36  and  C_37
REMARK                            x       y       z     vdW  Elec       q    Type
REMARK                         _______ _______ _______ _____ _____    ______ ____
ROOT
ATOM      1  C   UNL     1       1.878  -8.733   0.984  0.00  0.00    +0.100 C 
ATOM      2  C   UNL     1       2.964  -8.094   0.090  0.00  0.00    +0.121 C 
ATOM      3  N   UNL     1       4.235  -8.340   0.812  0.00  0.00    -0.300 N 
ATOM      4  C   UNL     1       4.091  -9.712   1.354  0.00  0.00    +0.115 C 
ATOM      5  C   UNL     1       2.621  -9.797   1.809  0.00  0.00    -0.004 C 
ATOM      6  C   UNL     1       2.512  -9.482   3.298  0.00  0.00    -0.010 C 
ATOM      7  C   UNL     1       3.210 -10.584   4.101  0.00  0.00    -0.082 C 
ATOM      8  N   UNL     1       2.583 -11.878   3.806  0.00  0.00    +0.379 N 
ATOM      9  C   UNL     1       2.773 -12.217   2.391  0.00  0.00    -0.082 C 
ATOM     10  C   UNL     1       2.057 -11.184   1.516  0.00  0.00    -0.010 C 
ATOM     11  C   UNL     1       5.284  -7.504   0.945  0.00  0.00    +0.220 C 
ATOM     12  O   UNL     1       6.262  -7.854   1.571  0.00  0.00    -0.275 OA
ATOM     13  H   UNL     1       3.003 -12.593   4.381  0.00  0.00    -0.086 HD
ATOM     14  H   UNL     1       1.595 -11.826   4.008  0.00  0.00    -0.086 HD
ENDROOT
BRANCH   1  16
ATOM     15  N   UNL     1      -0.004  -7.836   2.315  0.00  0.00    -0.305 N 
ATOM     16  C   UNL     1       1.268  -7.697   1.892  0.00  0.00    +0.219 C 
ATOM     17  O   UNL     1       1.921  -6.737   2.241  0.00  0.00    -0.275 OA
ATOM     18  H   UNL     1      -0.527  -8.604   2.035  0.00  0.00    +0.149 HD
BRANCH  15  19
ATOM     19  C   UNL     1      -0.597  -6.828   3.198  0.00  0.00    +0.136 C 
ATOM     20  C   UNL     1      -0.234  -7.145   4.650  0.00  0.00    +0.036 C 
BRANCH  19  29
ATOM     21  C   UNL     1      -7.933  -5.628   2.837  0.00  0.00    +0.044 C 
ATOM     22  C   UNL     1      -6.582  -6.292   2.760  0.00  0.00    -0.048 A 
ATOM     23  C   UNL     1      -6.486  -7.612   2.341  0.00  0.00    +0.005 A 
ATOM     24  C   UNL     1      -5.271  -8.232   2.264  0.00  0.00    +0.030 A 
ATOM     25  C   UNL     1      -4.111  -7.534   2.610  0.00  0.00    +0.089 A 
ATOM     26  C   UNL     1      -4.207  -6.198   3.033  0.00  0.00    +0.067 A 
ATOM     27  C   UNL     1      -5.450  -5.583   3.100  0.00  0.00    +0.031 A 
ATOM     28  N   UNL     1      -2.916  -5.788   3.298  0.00  0.00    -0.340 N 
ATOM     29  C   UNL     1      -2.096  -6.842   3.040  0.00  0.00    +0.128 A 
ATOM     30  N   UNL     1      -2.794  -7.863   2.638  0.00  0.00    -0.231 NA
ATOM     31  H   UNL     1      -2.644  -4.910   3.610  0.00  0.00    +0.167 HD
ENDBRANCH  19  29
ENDBRANCH  15  19
ENDBRANCH   1  16
BRANCH  11  32
ATOM     32  C   UNL     1       5.242  -6.136   0.316  0.00  0.00    +0.131 C 
BRANCH  32  33
ATOM     33  C   UNL     1       6.528  -5.407   0.611  0.00  0.00    -0.036 A 
ATOM     34  C   UNL     1       6.605  -4.551   1.694  0.00  0.00    +0.004 A 
ATOM     35  C   UNL     1       7.784  -3.883   1.964  0.00  0.00    +0.000 A 
ATOM     36  C   UNL     1       8.887  -4.072   1.152  0.00  0.00    +0.000 A 
ATOM     37  C   UNL     1       8.811  -4.928   0.070  0.00  0.00    +0.003 A 
ATOM     38  C   UNL     1       7.632  -5.600  -0.198  0.00  0.00    -0.047 A 
ATOM     39  C   UNL     1       7.550  -6.538  -1.374  0.00  0.00    +0.044 C 
ENDBRANCH  32  33
ENDBRANCH  11  32
TORSDOF 5
