REMARK  Name = ZINC64439228
REMARK  8 active torsions:
REMARK  status: ('A' for Active; 'I' for Inactive)
REMARK    1  A    between atoms: C_1  and  C_2
REMARK    2  A    between atoms: C_5  and  C_8
REMARK    3  A    between atoms: C_8  and  N_9
REMARK    4  A    between atoms: C_10  and  C_12
REMARK    5  A    between atoms: C_12  and  N_13
REMARK    6  A    between atoms: C_20  and  C_35
REMARK    7  A    between atoms: C_21  and  C_23
REMARK    8  A    between atoms: C_25  and  C_28
REMARK                            x       y       z     vdW  Elec       q    Type
REMARK                         _______ _______ _______ _____ _____    ______ ____
ROOT
ATOM      1  N   UNL     1       3.156  -8.016  -0.059  0.00  0.00    -0.290 N 
ATOM      2  C   UNL     1       3.166  -8.687   1.120  0.00  0.00    +0.203 A 
ATOM      3  N   UNL     1       3.183  -9.991   1.171  0.00  0.00    -0.230 NA
ATOM      4  C   UNL     1       3.192 -10.730   0.069  0.00  0.00    +0.116 A 
ATOM      5  C   UNL     1       3.183 -10.149  -1.219  0.00  0.00    +0.076 A 
ATOM      6  C   UNL     1       3.158  -8.670  -1.237  0.00  0.00    +0.263 A 
ATOM      7  O   UNL     1       3.144  -8.058  -2.291  0.00  0.00    -0.267 OA
ATOM      8  C   UNL     1       3.194 -11.047  -2.292  0.00  0.00    -0.017 A 
ATOM      9  C   UNL     1       3.212 -12.389  -2.053  0.00  0.00    +0.082 A 
ATOM     10  S   UNL     1       3.215 -12.473  -0.270  0.00  0.00    -0.063 S 
ATOM     11  C   UNL     1       3.186 -10.532  -3.708  0.00  0.00    +0.046 C 
ENDROOT
BRANCH   9  12
ATOM     12  C   UNL     1       3.227 -13.492  -3.022  0.00  0.00    +0.266 A 
ATOM     13  N   UNL     1       3.239 -14.776  -2.731  0.00  0.00    -0.187 NA
ATOM     14  C   UNL     1       3.249 -15.499  -3.860  0.00  0.00    +0.202 A 
ATOM     15  N   UNL     1       3.243 -14.684  -4.888  0.00  0.00    -0.056 NA
ATOM     16  O   UNL     1       3.223 -13.366  -4.363  0.00  0.00    -0.332 OA
BRANCH  14  17
ATOM     17  C   UNL     1       3.265 -16.982  -3.935  0.00  0.00    +0.023 A 
ATOM     18  C   UNL     1       3.264 -17.740  -2.766  0.00  0.00    +0.014 A 
ATOM     19  C   UNL     1       3.279 -19.117  -2.840  0.00  0.00    +0.039 A 
ATOM     20  C   UNL     1       3.295 -19.747  -4.074  0.00  0.00    +0.123 A 
ATOM     21  C   UNL     1       3.295 -18.997  -5.239  0.00  0.00    +0.039 A 
ATOM     22  C   UNL     1       3.274 -17.619  -5.174  0.00  0.00    +0.014 A 
ATOM     23  F   UNL     1       3.310 -21.096  -4.142  0.00  0.00    -0.205 F 
ENDBRANCH  14  17
ENDBRANCH   9  12
BRANCH   1  24
ATOM     24  C   UNL     1       3.137  -6.551  -0.051  0.00  0.00    +0.221 C 
BRANCH  24  26
ATOM     25  N   UNL     1       1.447  -4.746  -0.032  0.00  0.00    -0.310 N 
ATOM     26  C   UNL     1       1.710  -6.067  -0.040  0.00  0.00    +0.233 C 
ATOM     27  O   UNL     1       0.799  -6.867  -0.040  0.00  0.00    -0.274 OA
ATOM     28  H   UNL     1       2.176  -4.106  -0.032  0.00  0.00    +0.149 HD
BRANCH  25  29
ATOM     29  C   UNL     1       0.059  -4.275  -0.021  0.00  0.00    +0.139 C 
BRANCH  29  34
ATOM     30  C   UNL     1      -0.018   1.503   0.010  0.00  0.00    +0.044 C 
ATOM     31  C   UNL     1       0.002  -0.004   0.002  0.00  0.00    -0.050 A 
ATOM     32  C   UNL     1       0.006  -0.689  -1.199  0.00  0.00    +0.003 A 
ATOM     33  C   UNL     1       0.025  -2.071  -1.206  0.00  0.00    +0.005 A 
ATOM     34  C   UNL     1       0.040  -2.768  -0.013  0.00  0.00    -0.030 A 
ATOM     35  C   UNL     1       0.037  -2.084   1.188  0.00  0.00    +0.005 A 
ATOM     36  C   UNL     1       0.023  -0.702   1.195  0.00  0.00    +0.003 A 
ENDBRANCH  29  34
ENDBRANCH  25  29
ENDBRANCH  24  26
ENDBRANCH   1  24
TORSDOF 6
