REMARK  Name = ZINC39686661
REMARK  10 active torsions:
REMARK  status: ('A' for Active; 'I' for Inactive)
REMARK    1  A    between atoms: C_1  and  C_2
REMARK    2  A    between atoms: C_2  and  C_4
REMARK    3  A    between atoms: C_2  and  N_13
REMARK    4  A    between atoms: C_4  and  C_5
REMARK    5  A    between atoms: C_10  and  O_11
REMARK    6  A    between atoms: O_11  and  C_12
REMARK    7  A    between atoms: C_14  and  C_16
REMARK    8  A    between atoms: C_27  and  C_29
REMARK    9  A    between atoms: C_33  and  O_34
REMARK   10  A    between atoms: O_34  and  C_35
REMARK                            x       y       z     vdW  Elec       q    Type
REMARK                         _______ _______ _______ _____ _____    ______ ____
ROOT
ATOM      1  C   UNL     1       2.120  -3.005  -5.663  0.00  0.00    +0.100 C 
ATOM      2  C   UNL     1       1.666  -4.287  -4.929  0.00  0.00    +0.121 C 
ATOM      3  N   UNL     1       0.219  -4.397  -5.229  0.00  0.00    -0.296 N 
ATOM      4  C   UNL     1       0.105  -3.986  -6.649  0.00  0.00    +0.115 C 
ATOM      5  C   UNL     1       1.095  -2.813  -6.794  0.00  0.00    -0.004 C 
ATOM      6  C   UNL     1       1.788  -2.872  -8.152  0.00  0.00    -0.010 C 
ATOM      7  C   UNL     1       0.759  -2.620  -9.257  0.00  0.00    -0.082 C 
ATOM      8  N   UNL     1       0.137  -1.306  -9.059  0.00  0.00    +0.379 N 
ATOM      9  C   UNL     1      -0.606  -1.289  -7.793  0.00  0.00    -0.082 C 
ATOM     10  C   UNL     1       0.366  -1.484  -6.626  0.00  0.00    -0.010 C 
ATOM     11  C   UNL     1      -0.769  -4.785  -4.399  0.00  0.00    +0.251 C 
ATOM     12  O   UNL     1      -1.922  -4.796  -4.789  0.00  0.00    -0.270 OA
ATOM     13  H   UNL     1       0.853  -0.596  -9.036  0.00  0.00    -0.086 HD
ATOM     14  H   UNL     1      -0.496  -1.116  -9.821  0.00  0.00    -0.086 HD
ENDROOT
BRANCH  11  15
ATOM     15  C   UNL     1      -0.455  -5.196  -3.023  0.00  0.00    +0.087 A 
ATOM     16  C   UNL     1       0.379  -4.449  -2.220  0.00  0.00    +0.063 A 
ATOM     17  S   UNL     1       0.433  -5.299  -0.774  0.00  0.00    -0.081 S 
ATOM     18  C   UNL     1      -0.637  -6.664  -1.174  0.00  0.00    +0.120 A 
ATOM     19  C   UNL     1      -1.011  -6.399  -2.446  0.00  0.00    +0.158 A 
ATOM     20 CL   UNL     1      -1.095  -8.006  -0.172  0.00  0.00    -0.072 Cl
BRANCH  19  21
ATOM     21  O   UNL     1      -1.851  -7.215  -3.140  0.00  0.00    -0.492 OA
ATOM     22  C   UNL     1      -1.254  -8.269  -3.898  0.00  0.00    +0.277 C 
ENDBRANCH  19  21
ENDBRANCH  11  15
BRANCH   1  24
ATOM     23  N   UNL     1       2.858  -0.745  -4.980  0.00  0.00    -0.312 N 
ATOM     24  C   UNL     1       2.094  -1.826  -4.726  0.00  0.00    +0.218 C 
ATOM     25  O   UNL     1       1.385  -1.849  -3.741  0.00  0.00    -0.275 OA
ATOM     26  H   UNL     1       3.374  -0.699  -5.800  0.00  0.00    +0.149 HD
BRANCH  23  28
ATOM     27  C   UNL     1       1.715   1.290  -4.251  0.00  0.00    +0.028 C 
ATOM     28  C   UNL     1       2.907   0.360  -4.019  0.00  0.00    +0.074 C 
BRANCH  28  29
ATOM     29  C   UNL     1       4.208   1.142  -4.208  0.00  0.00    +0.060 C 
BRANCH  29  30
ATOM     30  C   UNL     1       5.377   0.275  -3.814  0.00  0.00    -0.004 A 
ATOM     31  C   UNL     1       5.858   0.310  -2.519  0.00  0.00    +0.007 A 
ATOM     32  C   UNL     1       6.930  -0.485  -2.157  0.00  0.00    +0.000 A 
ATOM     33  C   UNL     1       7.523  -1.316  -3.090  0.00  0.00    +0.004 A 
ATOM     34  C   UNL     1       7.046  -1.354  -4.385  0.00  0.00    +0.046 A 
ATOM     35  C   UNL     1       5.967  -0.562  -4.750  0.00  0.00    +0.123 A 
BRANCH  35  36
ATOM     36  O   UNL     1       5.492  -0.602  -6.022  0.00  0.00    -0.495 OA
ATOM     37  C   UNL     1       6.223  -1.392  -6.963  0.00  0.00    +0.277 C 
ENDBRANCH  35  36
ENDBRANCH  29  30
ENDBRANCH  28  29
ENDBRANCH  23  28
ENDBRANCH   1  24
TORSDOF 7
