REMARK  Name = ZINC42747371
REMARK  9 active torsions:
REMARK  status: ('A' for Active; 'I' for Inactive)
REMARK    1  A    between atoms: C_1  and  C_2
REMARK    2  A    between atoms: C_3  and  C_26
REMARK    3  A    between atoms: C_4  and  C_25
REMARK    4  A    between atoms: C_5  and  S_10
REMARK    5  A    between atoms: C_6  and  C_9
REMARK    6  A    between atoms: C_7  and  C_8
REMARK    7  A    between atoms: S_10  and  N_13
REMARK    8  A    between atoms: C_15  and  C_22
REMARK    9  A    between atoms: C_19  and  C_21
REMARK                            x       y       z     vdW  Elec       q    Type
REMARK                         _______ _______ _______ _____ _____    ______ ____
ROOT
ATOM      1  S   UNL     1       0.700  -4.749   0.395  0.00  0.00    +0.062 S 
ATOM      2  O   UNL     1      -0.092  -4.726   1.574  0.00  0.00    -0.153 OA
ATOM      3  O   UNL     1       0.460  -5.662  -0.667  0.00  0.00    -0.153 OA
ENDROOT
BRANCH   1   8
ATOM      4  C   UNL     1       0.401   0.784  -1.993  0.00  0.00    +0.044 C 
ATOM      5  C   UNL     1       0.475  -0.598  -1.397  0.00  0.00    -0.044 A 
ATOM      6  C   UNL     1       1.268  -1.564  -1.988  0.00  0.00    -0.043 A 
ATOM      7  C   UNL     1       1.336  -2.832  -1.441  0.00  0.00    -0.021 A 
ATOM      8  C   UNL     1       0.613  -3.133  -0.302  0.00  0.00    +0.112 A 
ATOM      9  C   UNL     1      -0.178  -2.166   0.290  0.00  0.00    -0.021 A 
ATOM     10  C   UNL     1      -0.243  -0.897  -0.255  0.00  0.00    -0.043 A 
ATOM     11  C   UNL     1      -1.102   0.158   0.394  0.00  0.00    +0.044 C 
ATOM     12  C   UNL     1      -0.966  -2.495   1.532  0.00  0.00    +0.046 C 
ATOM     13  C   UNL     1       2.199  -3.885  -2.087  0.00  0.00    +0.046 C 
ATOM     14  C   UNL     1       2.055  -1.236  -3.230  0.00  0.00    +0.044 C 
ENDBRANCH   1   8
BRANCH   1  15
ATOM     15  N   UNL     1       2.265  -4.989   0.881  0.00  0.00    -0.173 NA
ATOM     16  C   UNL     1       3.159  -5.871   0.117  0.00  0.00    +0.122 C 
ATOM     17  C   UNL     1       3.753  -6.914   1.069  0.00  0.00    +0.090 C 
ATOM     18  C   UNL     1       4.426  -6.201   2.244  0.00  0.00    +0.015 C 
ATOM     19  C   UNL     1       3.385  -5.385   3.012  0.00  0.00    +0.021 C 
ATOM     20  C   UNL     1       2.788  -4.320   2.079  0.00  0.00    +0.077 C 
ATOM     21  C   UNL     1       1.651  -3.587   2.795  0.00  0.00    +0.026 C 
BRANCH  17  22
ATOM     22  C   UNL     1       2.655  -7.808   1.584  0.00  0.00    +0.215 C 
ATOM     23  O   UNL     1       1.510  -7.630   1.227  0.00  0.00    -0.276 OA
ATOM     24  N   UNL     1       2.945  -8.806   2.443  0.00  0.00    -0.329 N 
ATOM     25  H   UNL     1       3.861  -8.948   2.729  0.00  0.00    +0.145 HD
ATOM     26  H   UNL     1       2.238  -9.381   2.775  0.00  0.00    +0.145 HD
ENDBRANCH  17  22
ENDBRANCH   1  15
TORSDOF 3
