REMARK  Name = ZINC40345029
REMARK  7 active torsions:
REMARK  status: ('A' for Active; 'I' for Inactive)
REMARK    1  A    between atoms: C_1  and  C_2
REMARK    2  A    between atoms: C_5  and  C_8
REMARK    3  A    between atoms: C_8  and  N_9
REMARK    4  A    between atoms: C_10  and  C_28
REMARK    5  A    between atoms: C_13  and  C_20
REMARK    6  A    between atoms: C_23  and  O_26
REMARK    7  A    between atoms: O_26  and  C_27
REMARK                            x       y       z     vdW  Elec       q    Type
REMARK                         _______ _______ _______ _____ _____    ______ ____
ROOT
ATOM      1  N   UNL     1       1.447  -4.746  -0.032  0.00  0.00    -0.281 N 
ATOM      2  C   UNL     1       2.257  -5.010  -1.228  0.00  0.00    +0.142 C 
ATOM      3  C   UNL     1       3.599  -5.470  -0.729  0.00  0.00    +0.035 A 
ATOM      4  C   UNL     1       4.890  -5.905  -1.047  0.00  0.00    +0.099 A 
ATOM      5  N   UNL     1       5.522  -6.130   0.088  0.00  0.00    -0.173 NA
ATOM      6  N   UNL     1       4.758  -5.879   1.091  0.00  0.00    -0.272 N 
ATOM      7  H   UNL     1       5.013  -5.973   2.023  0.00  0.00    +0.189 HD
ATOM      8  C   UNL     1       3.535  -5.460   0.651  0.00  0.00    +0.126 A 
ATOM      9  C   UNL     1       2.199  -5.004   1.053  0.00  0.00    +0.266 C 
ATOM     10  O   UNL     1       1.825  -4.881   2.203  0.00  0.00    -0.268 OA
ENDROOT
BRANCH   2  11
ATOM     11  C   UNL     1       1.615  -6.089  -2.061  0.00  0.00    -0.022 A 
ATOM     12  C   UNL     1       1.003  -7.165  -1.446  0.00  0.00    +0.007 A 
ATOM     13  C   UNL     1       0.413  -8.155  -2.210  0.00  0.00    +0.015 A 
ATOM     14  C   UNL     1       0.435  -8.068  -3.590  0.00  0.00    +0.018 A 
ATOM     15  C   UNL     1       1.048  -6.991  -4.206  0.00  0.00    +0.015 A 
ATOM     16  C   UNL     1       1.632  -5.999  -3.441  0.00  0.00    +0.007 A 
ATOM     17 BR   UNL     1      -0.370  -9.422  -4.636  0.00  0.00    -0.050 Br
ENDBRANCH   2  11
BRANCH   4  18
ATOM     18  C   UNL     1       5.446  -6.082  -2.412  0.00  0.00    +0.003 A 
ATOM     19  C   UNL     1       4.624  -6.521  -3.449  0.00  0.00    +0.013 A 
ATOM     20  C   UNL     1       5.144  -6.685  -4.716  0.00  0.00    +0.046 A 
ATOM     21  C   UNL     1       6.483  -6.414  -4.959  0.00  0.00    +0.120 A 
ATOM     22  C   UNL     1       7.304  -5.977  -3.928  0.00  0.00    +0.046 A 
ATOM     23  C   UNL     1       6.789  -5.806  -2.660  0.00  0.00    +0.013 A 
BRANCH  21  24
ATOM     24  O   UNL     1       6.992  -6.577  -6.208  0.00  0.00    -0.495 OA
ATOM     25  C   UNL     1       8.378  -6.281  -6.388  0.00  0.00    +0.277 C 
ENDBRANCH  21  24
ENDBRANCH   4  18
BRANCH   1  26
ATOM     26  C   UNL     1       0.059  -4.275  -0.021  0.00  0.00    +0.144 C 
BRANCH  26  31
ATOM     27  C   UNL     1      -0.018   1.503   0.010  0.00  0.00    +0.044 C 
ATOM     28  C   UNL     1       0.002  -0.004   0.002  0.00  0.00    -0.050 A 
ATOM     29  C   UNL     1       0.006  -0.689  -1.199  0.00  0.00    +0.003 A 
ATOM     30  C   UNL     1       0.025  -2.071  -1.206  0.00  0.00    +0.005 A 
ATOM     31  C   UNL     1       0.040  -2.768  -0.013  0.00  0.00    -0.030 A 
ATOM     32  C   UNL     1       0.037  -2.084   1.188  0.00  0.00    +0.005 A 
ATOM     33  C   UNL     1       0.023  -0.702   1.195  0.00  0.00    +0.003 A 
ENDBRANCH  26  31
ENDBRANCH   1  26
TORSDOF 5
