REMARK  Name = ZINC10103419
REMARK  8 active torsions:
REMARK  status: ('A' for Active; 'I' for Inactive)
REMARK    1  A    between atoms: C_1  and  C_2
REMARK    2  A    between atoms: C_2  and  C_3
REMARK    3  A    between atoms: C_6  and  N_9
REMARK    4  A    between atoms: C_10  and  C_33
REMARK    5  A    between atoms: C_11  and  C_32
REMARK    6  A    between atoms: N_19  and  C_24
REMARK    7  A    between atoms: N_22  and  C_23
REMARK    8  A    between atoms: C_24  and  C_25
REMARK                            x       y       z     vdW  Elec       q    Type
REMARK                         _______ _______ _______ _____ _____    ______ ____
ROOT
ATOM      1  N   UNL     1      -2.406  -2.296   6.310  0.00  0.00    -0.282 N 
ATOM      2  C   UNL     1      -3.646  -2.099   5.729  0.00  0.00    +0.043 A 
ATOM      3  C   UNL     1      -3.457  -1.653   4.491  0.00  0.00    +0.044 A 
ATOM      4  N   UNL     1      -2.095  -1.558   4.264  0.00  0.00    -0.274 N 
ATOM      5  C   UNL     1      -1.451  -1.955   5.386  0.00  0.00    +0.223 A 
ATOM      6  N   UNL     1      -0.143  -1.872   5.192  0.00  0.00    -0.193 NA
ATOM      7  C   UNL     1       0.106  -1.428   3.963  0.00  0.00    +0.170 A 
ATOM      8  C   UNL     1      -1.121  -1.216   3.337  0.00  0.00    +0.157 A 
ATOM      9  C   UNL     1      -1.143  -0.740   2.016  0.00  0.00    +0.283 A 
ATOM     10  O   UNL     1      -2.205  -0.547   1.449  0.00  0.00    -0.265 OA
ATOM     11  N   UNL     1       0.022  -0.500   1.381  0.00  0.00    -0.255 N 
ATOM     12  C   UNL     1       1.201  -0.713   1.990  0.00  0.00    +0.334 A 
ATOM     13  O   UNL     1       2.231  -0.489   1.383  0.00  0.00    -0.246 OA
ATOM     14  N   UNL     1       1.270  -1.163   3.257  0.00  0.00    -0.279 N 
ATOM     15  C   UNL     1       2.575  -1.377   3.888  0.00  0.00    +0.155 C 
ATOM     16  C   UNL     1      -4.541  -1.308   3.503  0.00  0.00    +0.066 C 
ATOM     17  C   UNL     1      -4.979  -2.347   6.385  0.00  0.00    +0.066 C 
ENDROOT
BRANCH   1  21
ATOM     18  C   UNL     1      -1.700  -3.676  10.178  0.00  0.00    -0.047 A 
ATOM     19  C   UNL     1      -1.327  -2.392   9.825  0.00  0.00    +0.005 A 
ATOM     20  C   UNL     1      -1.559  -1.932   8.544  0.00  0.00    +0.026 A 
ATOM     21  C   UNL     1      -2.168  -2.760   7.610  0.00  0.00    +0.050 A 
ATOM     22  C   UNL     1      -2.546  -4.047   7.969  0.00  0.00    +0.026 A 
ATOM     23  C   UNL     1      -2.306  -4.503   9.251  0.00  0.00    +0.005 A 
BRANCH  18  25
ATOM     24  C   UNL     1      -2.652  -3.855  12.461  0.00  0.00    +0.009 C 
ATOM     25  C   UNL     1      -1.444  -4.175  11.577  0.00  0.00    +0.032 C 
ENDBRANCH  18  25
ENDBRANCH   1  21
BRANCH  11  26
ATOM     26  C   UNL     1       0.002  -0.004   0.002  0.00  0.00    +0.165 C 
BRANCH  26  27
ATOM     27  C   UNL     1      -0.018   1.503   0.010  0.00  0.00    -0.027 A 
ATOM     28  C   UNL     1      -1.225   2.177   0.020  0.00  0.00    +0.006 A 
ATOM     29  C   UNL     1      -1.244   3.559   0.032  0.00  0.00    +0.015 A 
ATOM     30  C   UNL     1      -0.056   4.268   0.025  0.00  0.00    +0.018 A 
ATOM     31  C   UNL     1       1.151   3.592   0.010  0.00  0.00    +0.015 A 
ATOM     32  C   UNL     1       1.169   2.210   0.003  0.00  0.00    +0.006 A 
ATOM     33 BR   UNL     1      -0.082   6.158   0.035  0.00  0.00    -0.050 Br
ENDBRANCH  26  27
ENDBRANCH  11  26
TORSDOF 4
