REMARK  Name = ZINC60670319
REMARK  13 active torsions:
REMARK  status: ('A' for Active; 'I' for Inactive)
REMARK    1  A    between atoms: C_1  and  C_2
REMARK    2  A    between atoms: C_4  and  C_23
REMARK    3  A    between atoms: N_6  and  C_8
REMARK    4  A    between atoms: C_8  and  C_9
REMARK    5  A    between atoms: C_9  and  N_10
REMARK    6  A    between atoms: C_11  and  C_13
REMARK    7  A    between atoms: C_13  and  C_14
REMARK    8  A    between atoms: C_13  and  N_15
REMARK    9  A    between atoms: C_16  and  O_18
REMARK   10  A    between atoms: O_18  and  C_19
REMARK   11  A    between atoms: C_19  and  C_20
REMARK   12  A    between atoms: C_19  and  C_21
REMARK   13  A    between atoms: C_19  and  C_22
REMARK                            x       y       z     vdW  Elec       q    Type
REMARK                         _______ _______ _______ _____ _____    ______ ____
ROOT
ATOM      1  N   UNL     1       3.774  -2.508   3.379  0.00  0.00    -0.316 N 
ATOM      2  C   UNL     1       5.093  -2.243   3.458  0.00  0.00    +0.233 C 
ATOM      3  O   UNL     1       5.638  -1.607   2.581  0.00  0.00    -0.274 OA
ATOM      4  H   UNL     1       3.338  -3.016   4.080  0.00  0.00    +0.149 HD
ENDROOT
BRANCH   2   5
ATOM      5  C   UNL     1       5.891  -2.737   4.638  0.00  0.00    +0.159 C 
ATOM      6  C   UNL     1       5.316  -2.144   5.926  0.00  0.00    +0.038 C 
BRANCH   5   7
ATOM      7  N   UNL     1       7.288  -2.322   4.490  0.00  0.00    -0.270 N 
ATOM      8  C   UNL     1       8.267  -3.023   5.096  0.00  0.00    +0.401 C 
ATOM      9  O   UNL     1       7.990  -3.999   5.764  0.00  0.00    -0.226 OA
ATOM     10  H   UNL     1       7.509  -1.543   3.956  0.00  0.00    +0.153 HD
BRANCH   8  11
ATOM     11  O   UNL     1       9.551  -2.642   4.960  0.00  0.00    -0.445 OA
BRANCH  11  12
ATOM     12  C   UNL     1      10.536  -3.432   5.630  0.00  0.00    +0.107 C 
ATOM     13  C   UNL     1      10.477  -4.869   5.110  0.00  0.00    +0.055 C 
ATOM     14  C   UNL     1      11.925  -2.849   5.361  0.00  0.00    +0.055 C 
ATOM     15  C   UNL     1      10.261  -3.421   7.135  0.00  0.00    +0.055 C 
ENDBRANCH  11  12
ENDBRANCH   8  11
ENDBRANCH   5   7
ENDBRANCH   2   5
BRANCH   1  16
ATOM     16  C   UNL     1       2.998  -2.028   2.232  0.00  0.00    +0.086 C 
BRANCH  16  17
ATOM     17  C   UNL     1       1.539  -2.461   2.387  0.00  0.00    -0.060 C 
BRANCH  17  23
ATOM     18  C   UNL     1      -0.019   1.526   0.010  0.00  0.00    +0.005 C 
ATOM     19  C   UNL     1       0.002  -0.004   0.002  0.00  0.00    -0.031 C 
ATOM     20  C   UNL     1      -1.434  -0.535   0.018  0.00  0.00    +0.003 C 
ATOM     21  C   UNL     1      -1.402  -2.064   0.089  0.00  0.00    -0.031 C 
ATOM     22  C   UNL     1      -0.610  -2.496   1.325  0.00  0.00    -0.076 C 
ATOM     23  N   UNL     1       0.761  -1.980   1.237  0.00  0.00    +0.381 N 
ATOM     24  C   UNL     1       0.742  -0.512   1.241  0.00  0.00    -0.076 C 
ATOM     25  C   UNL     1      -0.729  -2.620  -1.168  0.00  0.00    +0.005 C 
ATOM     26  H   UNL     1       1.189  -2.307   0.384  0.00  0.00    -0.082 HD
ENDBRANCH  17  23
ENDBRANCH  16  17
ENDBRANCH   1  16
TORSDOF 7
