REMARK  Name = ZINC64871172
REMARK  4 active torsions:
REMARK  status: ('A' for Active; 'I' for Inactive)
REMARK    1  A    between atoms: C_4  and  C_7
REMARK    2  A    between atoms: C_10  and  C_14
REMARK    3  A    between atoms: N_24  and  C_27
REMARK    4  A    between atoms: C_27  and  C_28
REMARK                            x       y       z     vdW  Elec       q    Type
REMARK                         _______ _______ _______ _____ _____    ______ ____
ROOT
ATOM      1  C   UNL     1       5.168  -3.289   2.029  0.00  0.00    -0.000 A 
ATOM      2  C   UNL     1       5.357  -4.143   0.953  0.00  0.00    +0.008 A 
ATOM      3  C   UNL     1       5.937  -5.381   1.138  0.00  0.00    +0.016 A 
ATOM      4  C   UNL     1       6.333  -5.769   2.416  0.00  0.00    +0.063 A 
ATOM      5  C   UNL     1       6.142  -4.902   3.505  0.00  0.00    +0.056 A 
ATOM      6  C   UNL     1       5.562  -3.659   3.299  0.00  0.00    +0.034 A 
ATOM      7  N   UNL     1       6.547  -5.315   4.766  0.00  0.00    -0.307 N 
ATOM      8  H   UNL     1       6.421  -4.727   5.528  0.00  0.00    +0.170 HD
ATOM      9  C   UNL     1       7.112  -6.521   4.943  0.00  0.00    +0.330 A 
ATOM     10  O   UNL     1       7.453  -6.846   6.064  0.00  0.00    -0.246 OA
ATOM     11  N   UNL     1       7.316  -7.384   3.935  0.00  0.00    -0.256 N 
ATOM     12  C   UNL     1       6.958  -7.080   2.669  0.00  0.00    +0.265 A 
ATOM     13  O   UNL     1       7.147  -7.866   1.761  0.00  0.00    -0.267 OA
ENDROOT
BRANCH   1  16
ATOM     14  C   UNL     1       3.711  -0.707  -0.038  0.00  0.00    +0.180 C 
ATOM     15  N   UNL     1       3.584  -1.997   0.674  0.00  0.00    -0.265 NA
ATOM     16  C   UNL     1       4.533  -1.940   1.808  0.00  0.00    +0.242 C 
ATOM     17  O   UNL     1       5.529  -0.972   1.407  0.00  0.00    -0.274 OA
ATOM     18  N   UNL     1       4.738   0.064   0.702  0.00  0.00    -0.177 NA
ATOM     19  H   UNL     1       2.639  -2.139   0.999  0.00  0.00    +0.127 HD
ATOM     20  H   UNL     1       4.310   0.700   1.358  0.00  0.00    +0.156 HD
BRANCH  14  24
ATOM     21  C   UNL     1      -0.017   1.378   0.010  0.00  0.00    +0.000 A 
ATOM     22  C   UNL     1       1.171   2.086   0.002  0.00  0.00    +0.000 A 
ATOM     23  C   UNL     1       2.377   1.411  -0.013  0.00  0.00    +0.006 A 
ATOM     24  C   UNL     1       2.396   0.029  -0.020  0.00  0.00    -0.014 A 
ATOM     25  C   UNL     1       1.208  -0.679  -0.012  0.00  0.00    +0.006 A 
ATOM     26  C   UNL     1       0.002  -0.004   0.002  0.00  0.00    +0.000 A 
ENDBRANCH  14  24
ENDBRANCH   1  16
BRANCH  11  27
ATOM     27  C   UNL     1       7.939  -8.680   4.214  0.00  0.00    +0.165 C 
BRANCH  27  28
ATOM     28  C   UNL     1       6.870  -9.693   4.535  0.00  0.00    -0.027 A 
ATOM     29  C   UNL     1       6.454  -9.866   5.842  0.00  0.00    +0.007 A 
ATOM     30  C   UNL     1       5.474 -10.794   6.138  0.00  0.00    +0.020 A 
ATOM     31  C   UNL     1       4.909 -11.550   5.126  0.00  0.00    +0.041 A 
ATOM     32  C   UNL     1       5.326 -11.376   3.818  0.00  0.00    +0.020 A 
ATOM     33  C   UNL     1       6.303 -10.443   3.523  0.00  0.00    +0.007 A 
ATOM     34 CL   UNL     1       3.678 -12.716   5.497  0.00  0.00    -0.084 Cl
ENDBRANCH  27  28
ENDBRANCH  11  27
TORSDOF 4
