REMARK  Name = ZINC20882143
REMARK  9 active torsions:
REMARK  status: ('A' for Active; 'I' for Inactive)
REMARK    1  A    between atoms: C_1  and  C_2
REMARK    2  A    between atoms: C_2  and  O_3
REMARK    3  A    between atoms: O_3  and  C_4
REMARK    4  A    between atoms: C_6  and  C_14
REMARK    5  A    between atoms: C_8  and  N_11
REMARK    6  A    between atoms: C_9  and  O_10
REMARK    7  A    between atoms: C_19  and  C_24
REMARK    8  A    between atoms: C_28  and  O_30
REMARK    9  A    between atoms: O_30  and  C_31
REMARK                            x       y       z     vdW  Elec       q    Type
REMARK                         _______ _______ _______ _____ _____    ______ ____
ROOT
ATOM      1  C   UNL     1      -2.665   2.386  -2.498  0.00  0.00    +0.136 C 
ATOM      2  C   UNL     1      -1.947   1.925  -1.252  0.00  0.00    +0.036 C 
ATOM      3  C   UNL     1      -2.519   1.659  -0.066  0.00  0.00    +0.017 C 
ATOM      4  C   UNL     1      -1.677   1.175   1.103  0.00  0.00    +0.059 C 
ATOM      5  C   UNL     1      -0.279   1.796   1.033  0.00  0.00    +0.032 C 
ATOM      6  C   UNL     1       0.352   1.361  -0.295  0.00  0.00    +0.088 C 
ATOM      7  C   UNL     1      -0.549   1.781  -1.417  0.00  0.00    +0.163 C 
ATOM      8  O   UNL     1      -0.062   2.006  -2.508  0.00  0.00    -0.292 OA
ATOM      9  N   UNL     1      -3.844   1.783   0.203  0.00  0.00    -0.316 N 
ATOM     10  C   UNL     1      -4.866   1.305  -0.610  0.00  0.00    +0.052 A 
ATOM     11  C   UNL     1      -5.729   0.304  -0.201  0.00  0.00    +0.025 A 
ATOM     12  C   UNL     1      -6.754  -0.094  -1.042  0.00  0.00    +0.002 A 
ATOM     13  C   UNL     1      -6.915   0.506  -2.278  0.00  0.00    +0.002 A 
ATOM     14  C   UNL     1      -6.041   1.495  -2.696  0.00  0.00    +0.025 A 
ATOM     15  C   UNL     1      -5.002   1.881  -1.864  0.00  0.00    +0.049 A 
ATOM     16  N   UNL     1      -4.036   2.794  -2.284  0.00  0.00    -0.331 N 
ATOM     17  H   UNL     1      -4.173   2.292   1.120  0.00  0.00    +0.152 HD
ATOM     18  H   UNL     1      -4.332   3.840  -2.451  0.00  0.00    +0.147 HD
ENDROOT
BRANCH   1  21
ATOM     19  C   UNL     1      -1.979   0.387  -5.630  0.00  0.00    +0.164 A 
ATOM     20  C   UNL     1      -1.992   1.420  -4.707  0.00  0.00    +0.055 A 
ATOM     21  C   UNL     1      -2.651   1.262  -3.502  0.00  0.00    -0.017 A 
ATOM     22  C   UNL     1      -3.293   0.072  -3.212  0.00  0.00    +0.042 A 
ATOM     23  C   UNL     1      -3.288  -0.961  -4.132  0.00  0.00    +0.171 A 
ATOM     24  C   UNL     1      -2.630  -0.808  -5.341  0.00  0.00    +0.189 A 
BRANCH  23  25
ATOM     25  N   UNL     1      -3.982  -2.231  -3.821  0.00  0.00    +0.060 N 
ATOM     26  O   UNL     1      -4.561  -2.365  -2.758  0.00  0.00    -0.126 OA
ATOM     27  O   UNL     1      -3.974  -3.142  -4.629  0.00  0.00    -0.126 OA
ENDBRANCH  23  25
BRANCH  24  28
ATOM     28  O   UNL     1      -2.620  -1.825  -6.245  0.00  0.00    -0.502 OA
ATOM     29  H   UNL     1      -3.135  -2.770  -6.015  0.00  0.00    +0.292 HD
ENDBRANCH  24  28
BRANCH  19  30
ATOM     30  O   UNL     1      -1.331   0.541  -6.816  0.00  0.00    -0.488 OA
BRANCH  30  32
ATOM     31  C   UNL     1      -0.015   1.782  -8.419  0.00  0.00    +0.048 C 
ATOM     32  C   UNL     1      -0.685   1.795  -7.044  0.00  0.00    +0.226 C 
ENDBRANCH  30  32
ENDBRANCH  19  30
ENDBRANCH   1  21
BRANCH   5  33
ATOM     33  C   UNL     1       0.563   1.304   2.183  0.00  0.00    -0.040 A 
ATOM     34  C   UNL     1       0.781  -0.051   2.350  0.00  0.00    +0.004 A 
ATOM     35  C   UNL     1       1.552  -0.505   3.403  0.00  0.00    +0.004 A 
ATOM     36  C   UNL     1       2.108   0.396   4.292  0.00  0.00    +0.045 A 
ATOM     37  C   UNL     1       1.891   1.756   4.127  0.00  0.00    +0.120 A 
ATOM     38  C   UNL     1       1.120   2.209   3.066  0.00  0.00    +0.049 A 
BRANCH  37  39
ATOM     39  O   UNL     1       2.437   2.643   4.999  0.00  0.00    -0.495 OA
ATOM     40  C   UNL     1       3.223   2.106   6.064  0.00  0.00    +0.277 C 
ENDBRANCH  37  39
ENDBRANCH   5  33
TORSDOF 7
