REMARK  Name = ZINC60364091
REMARK  10 active torsions:
REMARK  status: ('A' for Active; 'I' for Inactive)
REMARK    1  A    between atoms: C_1  and  C_2
REMARK    2  A    between atoms: C_5  and  C_9
REMARK    3  A    between atoms: C_6  and  O_8
REMARK    4  A    between atoms: N_11  and  C_12
REMARK    5  A    between atoms: C_12  and  C_13
REMARK    6  A    between atoms: C_13  and  C_14
REMARK    7  A    between atoms: N_16  and  C_17
REMARK    8  A    between atoms: C_17  and  C_18
REMARK    9  A    between atoms: C_18  and  N_19
REMARK   10  A    between atoms: C_23  and  C_24
REMARK                            x       y       z     vdW  Elec       q    Type
REMARK                         _______ _______ _______ _____ _____    ______ ____
ROOT
ATOM      1  C   UNL     1       0.435  -8.524  -2.124  0.00  0.00    +0.215 C 
ATOM      2  O   UNL     1       0.532  -9.196  -1.119  0.00  0.00    -0.276 OA
ATOM      3  N   UNL     1       0.326  -9.122  -3.327  0.00  0.00    -0.314 N 
ATOM      4  H   UNL     1       0.248  -8.584  -4.131  0.00  0.00    +0.149 HD
ENDROOT
BRANCH   1   5
ATOM      5  C   UNL     1       0.436  -7.020  -2.027  0.00  0.00    +0.114 C 
BRANCH   5   6
ATOM      6  C   UNL     1       0.570  -6.603  -0.561  0.00  0.00    +0.113 C 
BRANCH   6   9
ATOM      7  C   UNL     1       0.679  -4.543   0.735  0.00  0.00    +0.248 C 
ATOM      8  O   UNL     1       0.777  -5.217   1.743  0.00  0.00    -0.270 OA
ATOM      9  N   UNL     1       0.570  -5.141  -0.468  0.00  0.00    -0.311 N 
ATOM     10  H   UNL     1       0.492  -4.604  -1.271  0.00  0.00    +0.149 HD
BRANCH   7  15
ATOM     11  C   UNL     1       0.679   1.201   1.098  0.00  0.00    +0.044 C 
ATOM     12  C   UNL     1       0.679  -0.303   1.007  0.00  0.00    -0.047 A 
ATOM     13  C   UNL     1       0.568  -0.918  -0.230  0.00  0.00    +0.004 A 
ATOM     14  C   UNL     1       0.568  -2.293  -0.325  0.00  0.00    +0.017 A 
ATOM     15  C   UNL     1       0.679  -3.071   0.830  0.00  0.00    +0.078 A 
ATOM     16  C   UNL     1       0.792  -2.445   2.079  0.00  0.00    +0.129 A 
ATOM     17  C   UNL     1       0.796  -1.060   2.155  0.00  0.00    +0.049 A 
BRANCH  16  18
ATOM     18  O   UNL     1       0.901  -3.190   3.207  0.00  0.00    -0.506 OA
ATOM     19  H   UNL     1       1.812  -3.401   3.453  0.00  0.00    +0.292 HD
ENDBRANCH  16  18
ENDBRANCH   7  15
ENDBRANCH   6   9
ENDBRANCH   5   6
ENDBRANCH   1   5
BRANCH   3  20
ATOM     20  C   UNL     1       0.326 -10.584  -3.421  0.00  0.00    +0.123 C 
BRANCH  20  21
ATOM     21  C   UNL     1       0.192 -11.001  -4.887  0.00  0.00    +0.136 C 
BRANCH  21  22
ATOM     22  N   UNL     1       0.191 -12.463  -4.981  0.00  0.00    -0.227 N 
ATOM     23  C   UNL     1       1.340 -13.101  -5.125  0.00  0.00    +0.260 C 
ATOM     24  O   UNL     1       2.400 -12.506  -5.181  0.00  0.00    -0.269 OA
ATOM     25  C   UNL     1       1.272 -14.575  -5.213  0.00  0.00    +0.080 C 
ATOM     26  C   UNL     1       2.272 -15.479  -5.360  0.00  0.00    +0.031 C 
ATOM     27  S   UNL     1      -0.491 -14.837  -5.073  0.00  0.00    -0.026 S 
ATOM     28  C   UNL     1      -0.981 -13.127  -4.914  0.00  0.00    +0.286 C 
ATOM     29  O   UNL     1      -2.100 -12.671  -4.779  0.00  0.00    -0.262 OA
BRANCH  26  30
ATOM     30  C   UNL     1       1.982 -16.916  -5.262  0.00  0.00    +0.011 A 
ATOM     31  C   UNL     1       0.800 -17.357  -4.656  0.00  0.00    +0.011 A 
ATOM     32  C   UNL     1       0.536 -18.706  -4.568  0.00  0.00    +0.001 A 
ATOM     33  C   UNL     1       1.435 -19.628  -5.078  0.00  0.00    +0.003 A 
ATOM     34  C   UNL     1       2.606 -19.204  -5.680  0.00  0.00    +0.039 A 
ATOM     35  C   UNL     1       2.885 -17.854  -5.781  0.00  0.00    +0.131 A 
ATOM     36  F   UNL     1       4.027 -17.441  -6.373  0.00  0.00    -0.205 F 
ENDBRANCH  26  30
ENDBRANCH  21  22
ENDBRANCH  20  21
ENDBRANCH   3  20
TORSDOF 9
