REMARK  Name = ZINC08629118
REMARK  8 active torsions:
REMARK  status: ('A' for Active; 'I' for Inactive)
REMARK    1  A    between atoms: C_7  and  C_22
REMARK    2  A    between atoms: C_12  and  C_13
REMARK    3  A    between atoms: C_16  and  O_19
REMARK    4  A    between atoms: C_22  and  O_24
REMARK    5  A    between atoms: O_24  and  C_25
REMARK    6  A    between atoms: C_25  and  C_26
REMARK    7  A    between atoms: N_28  and  N_29
REMARK    8  A    between atoms: C_30  and  C_32
REMARK                            x       y       z     vdW  Elec       q    Type
REMARK                         _______ _______ _______ _____ _____    ______ ____
ROOT
ATOM      1  C   UNL     1       0.007   1.391   0.185  0.00  0.00    +0.001 A 
ATOM      2  C   UNL     1       1.195   2.114   0.108  0.00  0.00    +0.002 A 
ATOM      3  C   UNL     1       2.400   1.484   0.056  0.00  0.00    +0.028 A 
ATOM      4  C   UNL     1       2.453   0.077   0.082  0.00  0.00    +0.072 A 
ATOM      5  C   UNL     1       1.240  -0.653   0.160  0.00  0.00    +0.015 A 
ATOM      6  C   UNL     1       0.020   0.027   0.211  0.00  0.00    +0.011 A 
ATOM      7  C   UNL     1       1.306  -2.114   0.186  0.00  0.00    +0.073 A 
ATOM      8  C   UNL     1       2.563  -2.700   0.132  0.00  0.00    -0.007 A 
ATOM      9  C   UNL     1       3.710  -1.893   0.055  0.00  0.00    +0.072 A 
ATOM     10  N   UNL     1       3.616  -0.567   0.032  0.00  0.00    -0.247 NA
ATOM     11  C   UNL     1       4.921  -2.735   0.009  0.00  0.00    -0.021 C 
ATOM     12  C   UNL     1       6.188  -2.289  -0.067  0.00  0.00    +0.013 C 
ATOM     13  C   UNL     1       4.495  -4.181   0.060  0.00  0.00    +0.042 C 
ATOM     14  C   UNL     1       2.963  -4.155   0.140  0.00  0.00    +0.043 C 
ENDROOT
BRANCH  12  15
ATOM     15  C   UNL     1       7.309  -3.239   0.030  0.00  0.00    -0.024 A 
ATOM     16  C   UNL     1       8.622  -2.766   0.121  0.00  0.00    +0.011 A 
ATOM     17  C   UNL     1       9.668  -3.658   0.216  0.00  0.00    +0.046 A 
ATOM     18  C   UNL     1       9.420  -5.025   0.212  0.00  0.00    +0.117 A 
ATOM     19  C   UNL     1       8.118  -5.500   0.117  0.00  0.00    +0.046 A 
ATOM     20  C   UNL     1       7.065  -4.616   0.026  0.00  0.00    +0.011 A 
BRANCH  18  21
ATOM     21  O   UNL     1      10.454  -5.901   0.300  0.00  0.00    -0.507 OA
ATOM     22  H   UNL     1      10.822  -6.164  -0.555  0.00  0.00    +0.292 HD
ENDBRANCH  18  21
ENDBRANCH  12  15
BRANCH   7  23
ATOM     23  C   UNL     1       0.080  -2.936   0.267  0.00  0.00    +0.341 C 
ATOM     24  O   UNL     1      -0.478  -3.294  -0.750  0.00  0.00    -0.245 OA
BRANCH  23  25
ATOM     25  O   UNL     1      -0.417  -3.287   1.468  0.00  0.00    -0.452 OA
BRANCH  25  26
ATOM     26  C   UNL     1      -1.624  -4.094   1.471  0.00  0.00    +0.329 C 
BRANCH  26  27
ATOM     27  C   UNL     1      -2.029  -4.386   2.893  0.00  0.00    +0.267 C 
ATOM     28  O   UNL     1      -1.366  -3.957   3.813  0.00  0.00    -0.271 OA
ATOM     29  N   UNL     1      -3.128  -5.125   3.142  0.00  0.00    -0.231 N 
ATOM     30  H   UNL     1      -3.659  -5.469   2.407  0.00  0.00    +0.173 HD
BRANCH  29  31
ATOM     31  N   UNL     1      -3.505  -5.397   4.464  0.00  0.00    -0.230 N 
ATOM     32  C   UNL     1      -4.604  -6.136   4.713  0.00  0.00    +0.267 C 
ATOM     33  O   UNL     1      -5.269  -6.568   3.790  0.00  0.00    -0.268 OA
ATOM     34  H   UNL     1      -2.975  -5.053   5.200  0.00  0.00    +0.173 HD
BRANCH  32  35
ATOM     35  C   UNL     1      -4.998  -6.420   6.096  0.00  0.00    +0.075 A 
ATOM     36  C   UNL     1      -6.082  -7.146   6.564  0.00  0.00    +0.021 A 
ATOM     37  C   UNL     1      -6.217  -7.262   7.926  0.00  0.00    +0.008 A 
ATOM     38  C   UNL     1      -5.304  -6.663   8.735  0.00  0.00    +0.046 A 
ATOM     39  S   UNL     1      -4.211  -5.916   7.616  0.00  0.00    -0.092 S 
ENDBRANCH  32  35
ENDBRANCH  29  31
ENDBRANCH  26  27
ENDBRANCH  25  26
ENDBRANCH  23  25
ENDBRANCH   7  23
TORSDOF 8
