REMARK  Name = ZINC12030683
REMARK  5 active torsions:
REMARK  status: ('A' for Active; 'I' for Inactive)
REMARK    1  A    between atoms: C_10  and  C_11
REMARK    2  A    between atoms: C_11  and  N_12
REMARK    3  A    between atoms: C_14  and  N_19
REMARK    4  A    between atoms: N_22  and  C_23
REMARK    5  A    between atoms: C_23  and  C_24
REMARK                            x       y       z     vdW  Elec       q    Type
REMARK                         _______ _______ _______ _____ _____    ______ ____
ROOT
ATOM      1  N   UNL     1       4.054   2.578   1.338  0.00  0.00    -0.295 N 
ATOM      2  C   UNL     1       3.654   3.871   1.906  0.00  0.00    +0.131 C 
ATOM      3  C   UNL     1       3.812   3.713   3.437  0.00  0.00    +0.100 C 
ATOM      4  C   UNL     1       4.890   2.608   3.528  0.00  0.00    +0.119 C 
ATOM      5  C   UNL     1       4.758   1.852   2.225  0.00  0.00    +0.218 C 
ATOM      6  O   UNL     1       5.219   0.751   2.010  0.00  0.00    -0.276 OA
ENDROOT
BRANCH   3   7
ATOM      7  N   UNL     1       4.287   4.960   4.043  0.00  0.00    -0.295 N 
ATOM      8  C   UNL     1       4.136   5.166   5.366  0.00  0.00    +0.300 C 
ATOM      9  O   UNL     1       3.607   4.317   6.057  0.00  0.00    -0.253 OA
ATOM     10  N   UNL     1       4.572   6.312   5.924  0.00  0.00    -0.292 N 
ATOM     11  H   UNL     1       4.709   5.637   3.491  0.00  0.00    +0.151 HD
ATOM     12  H   UNL     1       4.995   6.990   5.372  0.00  0.00    +0.151 HD
BRANCH  10  13
ATOM     13  C   UNL     1       4.409   6.536   7.362  0.00  0.00    +0.180 C 
BRANCH  13  14
ATOM     14  C   UNL     1       4.976   7.884   7.729  0.00  0.00    +0.122 A 
ATOM     15  C   UNL     1       4.298   9.046   7.738  0.00  0.00    +0.046 A 
ATOM     16  C   UNL     1       5.210  10.048   8.140  0.00  0.00    +0.041 A 
ATOM     17  C   UNL     1       6.391   9.439   8.352  0.00  0.00    +0.195 A 
ATOM     18  O   UNL     1       6.241   8.127   8.107  0.00  0.00    -0.466 OA
ENDBRANCH  13  14
ENDBRANCH  10  13
ENDBRANCH   3   7
BRANCH   1  19
ATOM     19  C   UNL     1       3.733   2.137  -0.021  0.00  0.00    +0.143 C 
BRANCH  19  29
ATOM     20  C   UNL     1      -1.207   3.475   0.031  0.00  0.00    +0.001 A 
ATOM     21  C   UNL     1      -0.002   4.175   0.023  0.00  0.00    +0.001 A 
ATOM     22  C   UNL     1       1.190   3.518   0.009  0.00  0.00    +0.009 A 
ATOM     23  C   UNL     1       1.209   2.112   0.002  0.00  0.00    -0.013 A 
ATOM     24  C   UNL     1      -0.017   1.401   0.010  0.00  0.00    -0.018 A 
ATOM     25  C   UNL     1      -1.228   2.114   0.019  0.00  0.00    +0.008 A 
ATOM     26  C   UNL     1       0.002  -0.004   0.002  0.00  0.00    +0.008 A 
ATOM     27  C   UNL     1       1.194  -0.661  -0.013  0.00  0.00    +0.001 A 
ATOM     28  C   UNL     1       2.399   0.038  -0.021  0.00  0.00    +0.006 A 
ATOM     29  C   UNL     1       2.419   1.399  -0.013  0.00  0.00    -0.022 A 
ENDBRANCH  19  29
ENDBRANCH   1  19
TORSDOF 5
