REMARK  Name = ZINC14383268
REMARK  9 active torsions:
REMARK  status: ('A' for Active; 'I' for Inactive)
REMARK    1  A    between atoms: C_1  and  C_2
REMARK    2  A    between atoms: C_2  and  C_3
REMARK    3  A    between atoms: C_6  and  C_9
REMARK    4  A    between atoms: N_11  and  C_12
REMARK    5  A    between atoms: N_11  and  C_19
REMARK    6  A    between atoms: C_12  and  C_13
REMARK    7  A    between atoms: C_20  and  N_35
REMARK    8  A    between atoms: N_21  and  C_28
REMARK    9  A    between atoms: C_28  and  C_29
REMARK                            x       y       z     vdW  Elec       q    Type
REMARK                         _______ _______ _______ _____ _____    ______ ____
ROOT
ATOM      1  C   UNL     1       2.540  -4.263   0.212  0.00  0.00    +0.140 A 
ATOM      2  C   UNL     1       2.772  -4.885   1.422  0.00  0.00    +0.128 A 
ATOM      3  N   UNL     1       2.710  -6.257   1.494  0.00  0.00    -0.276 N 
ATOM      4  C   UNL     1       2.437  -6.985   0.396  0.00  0.00    +0.331 A 
ATOM      5  O   UNL     1       2.391  -8.197   0.480  0.00  0.00    -0.246 OA
ATOM      6  N   UNL     1       2.213  -6.397  -0.792  0.00  0.00    -0.273 N 
ATOM      7  H   UNL     1       2.013  -6.962  -1.593  0.00  0.00    +0.173 HD
ATOM      8  C   UNL     1       2.257  -5.056  -0.917  0.00  0.00    +0.277 A 
ATOM      9  O   UNL     1       2.053  -4.533  -1.999  0.00  0.00    -0.266 OA
ENDROOT
BRANCH   1  12
ATOM     10  C   UNL     1       1.507  -2.174  -0.312  0.00  0.00    +0.251 C 
ATOM     11  O   UNL     1       1.561  -0.965  -0.436  0.00  0.00    -0.270 OA
ATOM     12  N   UNL     1       2.590  -2.858   0.106  0.00  0.00    -0.256 N 
BRANCH  10  16
ATOM     13  C   UNL     1      -2.097  -4.240  -1.198  0.00  0.00    -0.048 A 
ATOM     14  C   UNL     1      -1.827  -3.031  -1.815  0.00  0.00    +0.004 A 
ATOM     15  C   UNL     1      -0.658  -2.355  -1.531  0.00  0.00    +0.013 A 
ATOM     16  C   UNL     1       0.253  -2.893  -0.620  0.00  0.00    +0.037 A 
ATOM     17  C   UNL     1      -0.026  -4.112  -0.002  0.00  0.00    +0.013 A 
ATOM     18  C   UNL     1      -1.199  -4.778  -0.294  0.00  0.00    +0.004 A 
BRANCH  13  20
ATOM     19  C   UNL     1      -3.144  -5.918  -2.693  0.00  0.00    +0.009 C 
ATOM     20  C   UNL     1      -3.376  -4.973  -1.512  0.00  0.00    +0.032 C 
ENDBRANCH  13  20
ENDBRANCH  10  16
BRANCH  12  21
ATOM     21  C   UNL     1       3.821  -2.141   0.451  0.00  0.00    +0.149 C 
BRANCH  21  22
ATOM     22  C   UNL     1       4.677  -1.993  -0.781  0.00  0.00    -0.030 A 
ATOM     23  C   UNL     1       5.548  -3.003  -1.143  0.00  0.00    +0.005 A 
ATOM     24  C   UNL     1       6.330  -2.869  -2.275  0.00  0.00    +0.000 A 
ATOM     25  C   UNL     1       6.248  -1.720  -3.039  0.00  0.00    +0.000 A 
ATOM     26  C   UNL     1       5.381  -0.707  -2.674  0.00  0.00    +0.000 A 
ATOM     27  C   UNL     1       4.596  -0.844  -1.545  0.00  0.00    +0.005 A 
ENDBRANCH  21  22
ENDBRANCH  12  21
ENDBRANCH   1  12
BRANCH   2  28
ATOM     28  N   UNL     1       3.056  -4.142   2.542  0.00  0.00    -0.343 N 
ATOM     29  H   UNL     1       2.966  -3.176   2.519  0.00  0.00    +0.144 HD
ATOM     30  H   UNL     1       3.348  -4.582   3.356  0.00  0.00    +0.144 HD
ENDBRANCH   2  28
BRANCH   3  31
ATOM     31  C   UNL     1       2.949  -6.930   2.773  0.00  0.00    +0.163 C 
BRANCH  31  32
ATOM     32  C   UNL     1       4.418  -7.234   2.915  0.00  0.00    -0.028 A 
ATOM     33  C   UNL     1       4.922  -8.437   2.458  0.00  0.00    +0.005 A 
ATOM     34  C   UNL     1       6.271  -8.713   2.583  0.00  0.00    +0.000 A 
ATOM     35  C   UNL     1       7.113  -7.790   3.175  0.00  0.00    +0.000 A 
ATOM     36  C   UNL     1       6.608  -6.590   3.637  0.00  0.00    +0.000 A 
ATOM     37  C   UNL     1       5.260  -6.311   3.507  0.00  0.00    +0.005 A 
ENDBRANCH  31  32
ENDBRANCH   3  31
TORSDOF 8
