REMARK  Name = ZINC22159409
REMARK  4 active torsions:
REMARK  status: ('A' for Active; 'I' for Inactive)
REMARK    1  A    between atoms: C_1  and  N_2
REMARK    2  A    between atoms: N_6  and  C_9
REMARK    3  A    between atoms: C_10  and  C_17
REMARK    4  A    between atoms: C_18  and  C_19
REMARK                            x       y       z     vdW  Elec       q    Type
REMARK                         _______ _______ _______ _____ _____    ______ ____
ROOT
ATOM      1  C   UNL     1      -2.381   1.601  -0.880  0.00  0.00    +0.148 A 
ATOM      2  C   UNL     1      -1.429   2.614  -0.760  0.00  0.00    +0.089 A 
ATOM      3  N   UNL     1      -1.655   3.236   0.487  0.00  0.00    -0.292 N 
ATOM      4  C   UNL     1      -1.126   4.267   1.227  0.00  0.00    +0.101 A 
ATOM      5  C   UNL     1      -1.634   4.584   2.418  0.00  0.00    +0.067 A 
ATOM      6  S   UNL     1      -2.960   3.398   2.577  0.00  0.00    -0.058 S 
ATOM      7  C   UNL     1      -2.721   2.568   1.022  0.00  0.00    +0.180 A 
ATOM      8  N   UNL     1      -3.133   1.618   0.220  0.00  0.00    -0.206 NA
ENDROOT
BRANCH   1  14
ATOM      9  C   UNL     1      -3.990  -3.150  -3.602  0.00  0.00    -0.096 C 
ATOM     10  N   UNL     1      -3.734  -1.748  -3.245  0.00  0.00    +0.379 N 
ATOM     11  C   UNL     1      -4.048  -0.846  -4.377  0.00  0.00    -0.078 C 
ATOM     12  C   UNL     1      -3.519   0.580  -4.157  0.00  0.00    +0.000 C 
ATOM     13  C   UNL     1      -3.731   1.051  -2.740  0.00  0.00    +0.104 C 
ATOM     14  N   UNL     1      -2.520   0.732  -1.953  0.00  0.00    -0.315 N 
ATOM     15  C   UNL     1      -2.447  -0.601  -1.532  0.00  0.00    +0.088 C 
ATOM     16  C   UNL     1      -2.397  -1.583  -2.720  0.00  0.00    -0.060 C 
ATOM     17  H   UNL     1      -4.395  -1.459  -2.415  0.00  0.00    -0.082 HD
ENDBRANCH   1  14
BRANCH   2  18
ATOM     18  C   UNL     1      -0.438   2.945  -1.691  0.00  0.00    +0.037 C 
ATOM     19  C   UNL     1      -0.355   4.230  -2.182  0.00  0.00    +0.098 C 
BRANCH  19  20
ATOM     20  C   UNL     1       0.634   4.560  -3.119  0.00  0.00    +0.380 C 
ATOM     21  O   UNL     1       1.420   3.711  -3.501  0.00  0.00    -0.241 OA
ATOM     22  O   UNL     1       0.715   5.820  -3.600  0.00  0.00    -0.241 OA
ENDBRANCH  19  20
ENDBRANCH   2  18
TORSDOF 3
