REMARK  Name = ZINC67271359
REMARK  7 active torsions:
REMARK  status: ('A' for Active; 'I' for Inactive)
REMARK    1  A    between atoms: C_1  and  C_2
REMARK    2  A    between atoms: N_5  and  C_8
REMARK    3  A    between atoms: C_8  and  C_10
REMARK    4  A    between atoms: C_8  and  C_11
REMARK    5  A    between atoms: C_11  and  N_12
REMARK    6  A    between atoms: C_13  and  C_15
REMARK    7  A    between atoms: N_21  and  C_22
REMARK                            x       y       z     vdW  Elec       q    Type
REMARK                         _______ _______ _______ _____ _____    ______ ____
ROOT
ATOM      1  N   UNL     1      -2.958  -4.171   0.333  0.00  0.00    -0.312 N 
ATOM      2  C   UNL     1      -4.296  -4.326   0.354  0.00  0.00    +0.262 C 
ATOM      3  O   UNL     1      -4.829  -4.893   1.291  0.00  0.00    -0.269 OA
ATOM      4  H   UNL     1      -2.533  -3.719  -0.413  0.00  0.00    +0.149 HD
ENDROOT
BRANCH   2   5
ATOM      5  C   UNL     1      -5.111  -3.813  -0.752  0.00  0.00    +0.127 A 
ATOM      6  C   UNL     1      -4.668  -3.099  -1.811  0.00  0.00    +0.116 A 
ATOM      7  N   UNL     1      -5.744  -2.819  -2.609  0.00  0.00    -0.339 N 
ATOM      8  H   UNL     1      -5.717  -2.318  -3.439  0.00  0.00    +0.167 HD
ATOM      9  C   UNL     1      -6.847  -3.353  -2.051  0.00  0.00    +0.163 A 
ATOM     10  S   UNL     1      -8.433  -3.263  -2.688  0.00  0.00    -0.013 S 
ATOM     11  N   UNL     1      -6.491  -3.977  -0.911  0.00  0.00    -0.284 N 
BRANCH  11  12
ATOM     12  C   UNL     1      -7.349  -4.661  -0.041  0.00  0.00    +0.049 A 
ATOM     13  C   UNL     1      -7.622  -4.143   1.218  0.00  0.00    +0.026 A 
ATOM     14  C   UNL     1      -8.469  -4.820   2.073  0.00  0.00    +0.002 A 
ATOM     15  C   UNL     1      -9.044  -6.014   1.677  0.00  0.00    +0.000 A 
ATOM     16  C   UNL     1      -8.773  -6.534   0.425  0.00  0.00    +0.002 A 
ATOM     17  C   UNL     1      -7.932  -5.858  -0.438  0.00  0.00    +0.026 A 
ENDBRANCH  11  12
ENDBRANCH   2   5
BRANCH   1  18
ATOM     18  C   UNL     1      -2.143  -4.683   1.438  0.00  0.00    +0.089 C 
BRANCH  18  19
ATOM     19  C   UNL     1      -0.687  -4.260   1.237  0.00  0.00    -0.054 C 
ATOM     20  C   UNL     1       0.142  -4.695   2.448  0.00  0.00    -0.012 C 
BRANCH  19  25
ATOM     21  C   UNL     1       0.356   1.337   1.562  0.00  0.00    +0.007 C 
ATOM     22  C   UNL     1       0.372  -0.173   1.810  0.00  0.00    -0.018 C 
ATOM     23  C   UNL     1       0.822  -0.896   0.537  0.00  0.00    -0.016 C 
ATOM     24  C   UNL     1       0.759  -2.408   0.767  0.00  0.00    -0.078 C 
ATOM     25  N   UNL     1      -0.617  -2.800   1.094  0.00  0.00    +0.382 N 
ATOM     26  C   UNL     1      -1.029  -2.166   2.352  0.00  0.00    -0.078 C 
ATOM     27  C   UNL     1      -1.036  -0.645   2.183  0.00  0.00    -0.016 C 
ATOM     28  H   UNL     1      -1.234  -2.507   0.352  0.00  0.00    -0.081 HD
ENDBRANCH  19  25
ENDBRANCH  18  19
ENDBRANCH   1  18
TORSDOF 5
