REMARK  Name = ZINC47154153
REMARK  5 active torsions:
REMARK  status: ('A' for Active; 'I' for Inactive)
REMARK    1  A    between atoms: C_1  and  C_2
REMARK    2  A    between atoms: C_2  and  C_4
REMARK    3  A    between atoms: C_2  and  N_14
REMARK    4  A    between atoms: N_17  and  C_18
REMARK    5  A    between atoms: C_23  and  N_24
REMARK                            x       y       z     vdW  Elec       q    Type
REMARK                         _______ _______ _______ _____ _____    ______ ____
ROOT
ATOM      1  N   UNL     1       0.709  -0.506   1.184  0.00  0.00    -0.293 N 
ATOM      2  C   UNL     1       2.053  -0.604   1.172  0.00  0.00    +0.304 C 
ATOM      3  O   UNL     1       2.677  -0.294   0.176  0.00  0.00    -0.252 OA
ATOM      4  N   UNL     1       2.706  -1.046   2.266  0.00  0.00    -0.268 N 
ATOM      5  H   UNL     1       0.211  -0.754   1.978  0.00  0.00    +0.151 HD
ATOM      6  H   UNL     1       2.217  -1.216   3.086  0.00  0.00    +0.156 HD
ENDROOT
BRANCH   4   7
ATOM      7  C   UNL     1       4.090  -1.261   2.216  0.00  0.00    +0.057 A 
ATOM      8  C   UNL     1       4.710  -1.526   1.005  0.00  0.00    +0.045 A 
ATOM      9  C   UNL     1       6.076  -1.737   0.959  0.00  0.00    +0.043 A 
ATOM     10  C   UNL     1       6.828  -1.685   2.119  0.00  0.00    +0.022 A 
ATOM     11  C   UNL     1       6.217  -1.422   3.331  0.00  0.00    +0.026 A 
ATOM     12  C   UNL     1       4.848  -1.203   3.385  0.00  0.00    +0.051 A 
ATOM     13 CL   UNL     1       6.850  -2.070  -0.559  0.00  0.00    -0.083 Cl
BRANCH  12  14
ATOM     14  N   UNL     1       4.229  -0.930   4.611  0.00  0.00    -0.328 N 
ATOM     15  C   UNL     1       3.718  -2.021   5.451  0.00  0.00    +0.105 C 
ATOM     16  C   UNL     1       4.315  -1.884   6.855  0.00  0.00    +0.019 C 
ATOM     17  C   UNL     1       4.020  -0.483   7.396  0.00  0.00    +0.003 C 
ATOM     18  C   UNL     1       4.672   0.564   6.489  0.00  0.00    +0.019 C 
ATOM     19  C   UNL     1       4.084   0.454   5.084  0.00  0.00    +0.105 C 
ENDBRANCH  12  14
ENDBRANCH   4   7
BRANCH   1  21
ATOM     20  C   UNL     1      -0.035   1.504   0.006  0.00  0.00    +0.033 C 
ATOM     21  C   UNL     1      -0.000  -0.025  -0.005  0.00  0.00    +0.102 C 
BRANCH  21  22
ATOM     22  C   UNL     1      -1.409  -0.560   0.001  0.00  0.00    -0.027 A 
ATOM     23  C   UNL     1      -2.126  -0.614   1.183  0.00  0.00    +0.007 A 
ATOM     24  C   UNL     1      -3.416  -1.102   1.195  0.00  0.00    +0.024 A 
ATOM     25  C   UNL     1      -4.007  -1.545   0.013  0.00  0.00    +0.037 A 
ATOM     26  C   UNL     1      -3.278  -1.485  -1.167  0.00  0.00    -0.017 A 
ATOM     27  C   UNL     1      -1.992  -0.993  -1.177  0.00  0.00    +0.011 A 
ATOM     28  C   UNL     1      -4.179  -2.027  -2.253  0.00  0.00    +0.133 C 
ATOM     29  C   UNL     1      -5.460  -2.380  -1.525  0.00  0.00    +0.222 C 
ATOM     30  O   UNL     1      -6.462  -2.851  -2.019  0.00  0.00    -0.275 OA
ATOM     31  N   UNL     1      -5.276  -2.072  -0.230  0.00  0.00    -0.285 N 
ATOM     32  H   UNL     1      -5.949  -2.201   0.457  0.00  0.00    +0.155 HD
ENDBRANCH  21  22
ENDBRANCH   1  21
TORSDOF 4
