REMARK  Name = ZINC04062055
REMARK  8 active torsions:
REMARK  status: ('A' for Active; 'I' for Inactive)
REMARK    1  A    between atoms: C_1  and  O_2
REMARK    2  A    between atoms: O_2  and  C_3
REMARK    3  A    between atoms: C_6  and  C_9
REMARK    4  A    between atoms: C_17  and  O_30
REMARK    5  A    between atoms: C_20  and  C_21
REMARK    6  A    between atoms: C_20  and  N_59
REMARK    7  A    between atoms: N_23  and  C_24
REMARK    8  A    between atoms: C_24  and  C_25
REMARK                            x       y       z     vdW  Elec       q    Type
REMARK                         _______ _______ _______ _____ _____    ______ ____
ROOT
ATOM      1  C   UNL     1      -1.077   7.567   1.775  0.00  0.00    -0.031 C 
ATOM      2  C   UNL     1       0.189   8.328   2.173  0.00  0.00    +0.011 C 
ATOM      3  C   UNL     1       0.605   7.934   3.590  0.00  0.00    +0.005 C 
ATOM      4  C   UNL     1      -0.515   8.290   4.571  0.00  0.00    +0.000 C 
ATOM      5  C   UNL     1      -0.778   9.796   4.516  0.00  0.00    +0.003 C 
ATOM      6  C   UNL     1      -1.202  10.187   3.099  0.00  0.00    +0.035 C 
ATOM      7  C   UNL     1      -0.086   9.833   2.113  0.00  0.00    +0.066 C 
ATOM      8  C   UNL     1      -0.534  10.200   0.695  0.00  0.00    +0.016 C 
ATOM      9  C   UNL     1      -1.780   9.388   0.336  0.00  0.00    -0.075 C 
ATOM     10  N   UNL     1      -1.450   7.948   0.395  0.00  0.00    +0.390 N 
ATOM     11  H   UNL     1      -0.655   7.763  -0.228  0.00  0.00    -0.080 HD
ENDROOT
BRANCH   1  15
ATOM     12  C   UNL     1      -0.310   3.365   1.895  0.00  0.00    +0.120 A 
ATOM     13  C   UNL     1       0.105   4.116   0.805  0.00  0.00    +0.046 A 
ATOM     14  C   UNL     1      -0.150   5.473   0.766  0.00  0.00    +0.005 A 
ATOM     15  C   UNL     1      -0.806   6.085   1.817  0.00  0.00    -0.060 A 
ATOM     16  C   UNL     1      -1.216   5.340   2.907  0.00  0.00    +0.005 A 
ATOM     17  C   UNL     1      -0.969   3.981   2.949  0.00  0.00    +0.046 A 
BRANCH  12  19
ATOM     18  C   UNL     1       0.617   1.462   0.813  0.00  0.00    +0.277 C 
ATOM     19  O   UNL     1      -0.066   2.029   1.933  0.00  0.00    -0.495 OA
ENDBRANCH  12  19
ENDBRANCH   1  15
BRANCH   7  20
ATOM     20  O   UNL     1       1.101  10.552   2.455  0.00  0.00    -0.388 OA
ATOM     21  H   UNL     1       0.998  11.513   2.437  0.00  0.00    +0.210 HD
ENDBRANCH   7  20
BRANCH  10  22
ATOM     22  C   UNL     1      -2.607   7.146  -0.054  0.00  0.00    +0.019 C 
BRANCH  22  23
ATOM     23  C   UNL     1      -3.816   7.437   0.797  0.00  0.00    +0.197 C 
ATOM     24  O   UNL     1      -3.716   8.158   1.767  0.00  0.00    -0.278 OA
ATOM     25  N   UNL     1      -5.009   6.896   0.480  0.00  0.00    -0.310 N 
ATOM     26  H   UNL     1      -5.090   6.319  -0.295  0.00  0.00    +0.149 HD
BRANCH  25  27
ATOM     27  C   UNL     1      -6.185   7.179   1.308  0.00  0.00    +0.178 C 
BRANCH  27  28
ATOM     28  C   UNL     1      -7.382   6.459   0.743  0.00  0.00    +0.122 A 
ATOM     29  C   UNL     1      -7.778   5.215   1.069  0.00  0.00    +0.046 A 
ATOM     30  C   UNL     1      -8.937   4.941   0.306  0.00  0.00    +0.041 A 
ATOM     31  C   UNL     1      -9.179   6.034  -0.441  0.00  0.00    +0.195 A 
ATOM     32  O   UNL     1      -8.237   6.952  -0.168  0.00  0.00    -0.466 OA
ENDBRANCH  27  28
ENDBRANCH  25  27
ENDBRANCH  22  23
ENDBRANCH  10  22
TORSDOF 7
