REMARK  Name = ZINC41155713
REMARK  5 active torsions:
REMARK  status: ('A' for Active; 'I' for Inactive)
REMARK    1  A    between atoms: C_1  and  C_2
REMARK    2  A    between atoms: C_2  and  C_3
REMARK    3  A    between atoms: C_6  and  C_9
REMARK    4  A    between atoms: C_6  and  N_20
REMARK    5  A    between atoms: C_11  and  C_14
REMARK                            x       y       z     vdW  Elec       q    Type
REMARK                         _______ _______ _______ _____ _____    ______ ____
ROOT
ATOM      1  C   UNL     1       0.718  -0.497  -1.257  0.00  0.00    -0.011 C 
ATOM      2  C   UNL     1      -0.089  -0.097  -2.493  0.00  0.00    +0.002 C 
ATOM      3  C   UNL     1       0.627  -0.590  -3.752  0.00  0.00    -0.005 C 
ATOM      4  C   UNL     1       0.758  -2.114  -3.700  0.00  0.00    -0.006 C 
ATOM      5  C   UNL     1       1.565  -2.514  -2.464  0.00  0.00    -0.005 C 
ATOM      6  C   UNL     1       0.849  -2.021  -1.205  0.00  0.00    +0.002 C 
ENDROOT
BRANCH   4   7
ATOM      7  C   UNL     1      -0.614  -2.734  -3.627  0.00  0.00    +0.161 A 
ATOM      8  N   UNL     1      -1.125  -3.586  -4.516  0.00  0.00    -0.191 NA
ATOM      9  C   UNL     1      -2.343  -3.936  -4.155  0.00  0.00    +0.294 A 
ATOM     10  O   UNL     1      -2.633  -3.299  -3.004  0.00  0.00    -0.330 OA
ATOM     11  N   UNL     1      -1.486  -2.527  -2.681  0.00  0.00    -0.062 NA
BRANCH   9  12
ATOM     12  C   UNL     1      -3.228  -4.857  -4.878  0.00  0.00    +0.193 A 
ATOM     13  C   UNL     1      -4.491  -5.215  -4.505  0.00  0.00    +0.056 A 
ATOM     14  C   UNL     1      -4.963  -6.108  -5.481  0.00  0.00    +0.058 A 
ATOM     15  C   UNL     1      -3.979  -6.254  -6.395  0.00  0.00    +0.171 A 
ATOM     16  O   UNL     1      -2.936  -5.494  -6.031  0.00  0.00    -0.443 OA
ATOM     17 BR   UNL     1      -4.062  -7.344  -7.938  0.00  0.00    -0.008 Br
ENDBRANCH   9  12
ENDBRANCH   4   7
BRANCH   4  18
ATOM     18  N   UNL     1       1.446  -2.587  -4.909  0.00  0.00    +0.387 N 
ATOM     19  H   UNL     1       2.364  -2.172  -4.958  0.00  0.00    -0.089 HD
ATOM     20  H   UNL     1       1.532  -3.592  -4.874  0.00  0.00    -0.089 HD
ATOM     21  H   UNL     1       0.913  -2.323  -5.724  0.00  0.00    -0.089 HD
ENDBRANCH   4  18
BRANCH   1  23
ATOM     22  C   UNL     1      -0.019   1.526   0.010  0.00  0.00    +0.004 C 
ATOM     23  C   UNL     1       0.002  -0.004   0.002  0.00  0.00    -0.000 C 
ENDBRANCH   1  23
TORSDOF 4
