REMARK  Name = ZINC64575156
REMARK  7 active torsions:
REMARK  status: ('A' for Active; 'I' for Inactive)
REMARK    1  A    between atoms: C_1  and  N_2
REMARK    2  A    between atoms: N_2  and  C_3
REMARK    3  A    between atoms: C_7  and  C_9
REMARK    4  A    between atoms: C_11  and  C_13
REMARK    5  A    between atoms: N_15  and  C_16
REMARK    6  A    between atoms: C_16  and  C_17
REMARK    7  A    between atoms: C_17  and  N_23
REMARK                            x       y       z     vdW  Elec       q    Type
REMARK                         _______ _______ _______ _____ _____    ______ ____
ROOT
ATOM      1  C   UNL     1      -1.387   2.443  -3.824  0.00  0.00    +0.299 C 
ATOM      2  O   UNL     1      -0.486   2.450  -3.012  0.00  0.00    -0.265 OA
ATOM      3  N   UNL     1      -1.376   1.551  -4.835  0.00  0.00    -0.309 N 
ATOM      4  H   UNL     1      -2.096   1.545  -5.484  0.00  0.00    +0.149 HD
ENDROOT
BRANCH   1   7
ATOM      5  C   UNL     1      -1.356   4.431  -1.810  0.00  0.00    +0.139 C 
ATOM      6  N   UNL     1      -2.513   4.321  -2.701  0.00  0.00    -0.267 N 
ATOM      7  C   UNL     1      -2.508   3.422  -3.704  0.00  0.00    +0.305 C 
ATOM      8  O   UNL     1      -3.415   3.407  -4.511  0.00  0.00    -0.265 OA
BRANCH   6   9
ATOM      9  C   UNL     1      -3.623   5.149  -2.510  0.00  0.00    +0.038 A 
ATOM     10  C   UNL     1      -4.787   4.930  -3.238  0.00  0.00    +0.023 A 
ATOM     11  C   UNL     1      -5.887   5.746  -3.054  0.00  0.00    +0.003 A 
ATOM     12  C   UNL     1      -5.838   6.784  -2.145  0.00  0.00    +0.019 A 
ATOM     13  C   UNL     1      -4.674   7.013  -1.409  0.00  0.00    +0.054 A 
ATOM     14  C   UNL     1      -3.565   6.186  -1.591  0.00  0.00    +0.042 A 
BRANCH  13  15
ATOM     15  C   UNL     1      -4.620   8.089  -0.465  0.00  0.00    +0.099 C 
ATOM     16  N   UNL     1      -4.577   8.943   0.283  0.00  0.00    -0.191 NA
ENDBRANCH  13  15
ENDBRANCH   6   9
ENDBRANCH   1   7
BRANCH   3  17
ATOM     17  C   UNL     1      -0.276   0.591  -4.952  0.00  0.00    +0.093 C 
BRANCH  17  18
ATOM     18  C   UNL     1      -0.441  -0.220  -6.239  0.00  0.00    -0.050 C 
ATOM     19  C   UNL     1       0.627  -1.313  -6.295  0.00  0.00    -0.010 C 
ATOM     20  C   UNL     1       2.016  -0.671  -6.272  0.00  0.00    -0.001 C 
ATOM     21  C   UNL     1       2.170   0.255  -7.480  0.00  0.00    -0.000 C 
ATOM     22  C   UNL     1       1.101   1.348  -7.425  0.00  0.00    -0.001 C 
ATOM     23  C   UNL     1      -0.288   0.705  -7.448  0.00  0.00    -0.010 C 
BRANCH  18  24
ATOM     24  N   UNL     1      -1.774  -0.837  -6.261  0.00  0.00    +0.384 N 
ATOM     25  C   UNL     1      -1.958  -1.645  -5.049  0.00  0.00    -0.078 C 
ATOM     26  C   UNL     1      -3.374  -2.224  -5.028  0.00  0.00    -0.019 C 
ATOM     27  C   UNL     1      -3.579  -3.103  -6.265  0.00  0.00    -0.004 C 
ATOM     28  C   UNL     1      -3.312  -2.269  -7.521  0.00  0.00    -0.019 C 
ATOM     29  C   UNL     1      -1.898  -1.688  -7.451  0.00  0.00    -0.078 C 
ATOM     30  H   UNL     1      -2.478  -0.114  -6.291  0.00  0.00    -0.081 HD
ENDBRANCH  18  24
ENDBRANCH  17  18
ENDBRANCH   3  17
TORSDOF 6
