REMARK  Name = ZINC21487071
REMARK  12 active torsions:
REMARK  status: ('A' for Active; 'I' for Inactive)
REMARK    1  A    between atoms: C_1  and  C_2
REMARK    2  A    between atoms: C_2  and  C_3
REMARK    3  A    between atoms: C_3  and  C_4
REMARK    4  A    between atoms: C_4  and  C_5
REMARK    5  A    between atoms: C_5  and  C_6
REMARK    6  A    between atoms: C_6  and  C_7
REMARK    7  A    between atoms: C_11  and  C_19
REMARK    8  A    between atoms: C_17  and  O_18
REMARK    9  A    between atoms: C_19  and  C_31
REMARK   10  A    between atoms: N_20  and  N_21
REMARK   11  A    between atoms: N_21  and  C_22
REMARK   12  A    between atoms: C_25  and  N_28
REMARK                            x       y       z     vdW  Elec       q    Type
REMARK                         _______ _______ _______ _____ _____    ______ ____
ROOT
ATOM      1  C   UNL     1       3.337   7.669   0.012  0.00  0.00    -0.005 A 
ATOM      2  C   UNL     1       3.446   6.316   0.004  0.00  0.00    +0.018 A 
ATOM      3  C   UNL     1       2.275   5.519   0.010  0.00  0.00    +0.019 A 
ATOM      4  C   UNL     1       2.363   4.128   0.002  0.00  0.00    +0.026 A 
ATOM      5  C   UNL     1       1.113   3.359   0.009  0.00  0.00    +0.058 A 
ATOM      6  C   UNL     1      -0.169   4.100   0.019  0.00  0.00    +0.202 A 
ATOM      7  N   UNL     1      -1.294   3.447   0.021  0.00  0.00    -0.369 N 
ATOM      8  O   UNL     1      -0.174   5.448   0.032  0.00  0.00    -0.439 OA
ATOM      9  C   UNL     1       0.962   6.170   0.026  0.00  0.00    +0.141 A 
ATOM     10  C   UNL     1       0.907   7.553   0.035  0.00  0.00    +0.092 A 
ATOM     11  C   UNL     1       2.083   8.293   0.028  0.00  0.00    +0.124 A 
ATOM     12  H   UNL     1      -2.248   3.995   0.028  0.00  0.00    +0.159 HD
ATOM     13  H   UNL     1      -1.292   2.347   0.015  0.00  0.00    +0.159 HD
ENDROOT
BRANCH   5  14
ATOM     14  C   UNL     1       1.132   1.969   0.002  0.00  0.00    +0.068 C 
ATOM     15  N   UNL     1      -0.015   1.286   0.009  0.00  0.00    -0.187 NA
ATOM     16  C   UNL     1       2.447   1.233  -0.015  0.00  0.00    +0.068 C 
BRANCH  15  17
ATOM     17  N   UNL     1       0.002  -0.004   0.002  0.00  0.00    -0.238 N 
ATOM     18  H   UNL     1       0.962  -0.541  -0.010  0.00  0.00    +0.174 HD
BRANCH  17  19
ATOM     19  C   UNL     1      -1.184  -0.711   0.009  0.00  0.00    +0.048 A 
ATOM     20  C   UNL     1      -2.404  -0.032   0.031  0.00  0.00    +0.027 A 
ATOM     21  C   UNL     1      -3.585  -0.743   0.033  0.00  0.00    +0.034 A 
ATOM     22  C   UNL     1      -3.563  -2.128   0.026  0.00  0.00    +0.126 A 
ATOM     23  C   UNL     1      -2.356  -2.807   0.010  0.00  0.00    +0.034 A 
ATOM     24  C   UNL     1      -1.168  -2.107   0.002  0.00  0.00    +0.027 A 
BRANCH  22  25
ATOM     25  N   UNL     1      -4.835  -2.885   0.035  0.00  0.00    +0.056 N 
ATOM     26  O   UNL     1      -4.817  -4.202   0.028  0.00  0.00    -0.126 OA
ATOM     27  O   UNL     1      -5.984  -2.242   0.051  0.00  0.00    -0.126 OA
ENDBRANCH  22  25
ENDBRANCH  17  19
ENDBRANCH  15  17
ENDBRANCH   5  14
BRANCH  11  28
ATOM     28  O   UNL     1       2.015   9.645   0.037  0.00  0.00    -0.506 OA
ATOM     29  H   UNL     1       1.036  10.146   0.049  0.00  0.00    +0.292 HD
ENDBRANCH  11  28
BRANCH   1  30
ATOM     30  C   UNL     1       4.586   8.513   0.005  0.00  0.00    +0.039 C 
BRANCH  30  31
ATOM     31  C   UNL     1       4.854   9.014  -1.415  0.00  0.00    +0.005 C 
BRANCH  31  32
ATOM     32  C   UNL     1       6.121   9.871  -1.423  0.00  0.00    +0.000 C 
BRANCH  32  33
ATOM     33  C   UNL     1       6.390  10.372  -2.843  0.00  0.00    -0.000 C 
BRANCH  33  35
ATOM     34  C   UNL     1       7.925  11.731  -4.271  0.00  0.00    +0.004 C 
ATOM     35  C   UNL     1       7.657  11.229  -2.851  0.00  0.00    -0.003 C 
ENDBRANCH  33  35
ENDBRANCH  32  33
ENDBRANCH  31  32
ENDBRANCH  30  31
ENDBRANCH   1  30
TORSDOF 10
