REMARK  Name = ZINC36547854
REMARK  10 active torsions:
REMARK  status: ('A' for Active; 'I' for Inactive)
REMARK    1  A    between atoms: C_1  and  C_2
REMARK    2  A    between atoms: C_5  and  S_8
REMARK    3  A    between atoms: S_8  and  C_11
REMARK    4  A    between atoms: C_11  and  N_12
REMARK    5  A    between atoms: C_13  and  C_15
REMARK    6  A    between atoms: C_15  and  C_17
REMARK    7  A    between atoms: C_15  and  N_24
REMARK    8  A    between atoms: N_24  and  C_25
REMARK    9  A    between atoms: C_32  and  C_34
REMARK   10  A    between atoms: C_34  and  O_35
REMARK                            x       y       z     vdW  Elec       q    Type
REMARK                         _______ _______ _______ _____ _____    ______ ____
ROOT
ATOM      1  C   UNL     1       2.688  -4.845   3.751  0.00  0.00    +0.197 C 
ENDROOT
BRANCH   1   2
ATOM      2  C   UNL     1       3.927  -4.301   3.088  0.00  0.00    -0.018 A 
ATOM      3  C   UNL     1       4.835  -5.165   2.504  0.00  0.00    +0.007 A 
ATOM      4  C   UNL     1       5.972  -4.667   1.897  0.00  0.00    +0.020 A 
ATOM      5  C   UNL     1       6.202  -3.303   1.873  0.00  0.00    +0.041 A 
ATOM      6  C   UNL     1       5.293  -2.438   2.458  0.00  0.00    +0.020 A 
ATOM      7  C   UNL     1       4.154  -2.937   3.060  0.00  0.00    +0.007 A 
ATOM      8 CL   UNL     1       7.630  -2.676   1.110  0.00  0.00    -0.084 Cl
ENDBRANCH   1   2
BRANCH   1  10
ATOM      9  N   UNL     1       0.792  -4.474   2.206  0.00  0.00    -0.294 N 
ATOM     10  C   UNL     1       1.721  -5.318   2.696  0.00  0.00    +0.240 C 
ATOM     11  O   UNL     1       1.779  -6.459   2.288  0.00  0.00    -0.273 OA
ATOM     12  H   UNL     1       0.746  -3.562   2.532  0.00  0.00    +0.150 HD
BRANCH   9  13
ATOM     13  C   UNL     1      -0.148  -4.934   1.181  0.00  0.00    +0.278 C 
BRANCH  13  14
ATOM     14  S   UNL     1      -1.686  -5.479   1.972  0.00  0.00    +0.013 S 
ATOM     15  O   UNL     1      -1.396  -6.329   3.074  0.00  0.00    -0.168 OA
ATOM     16  O   UNL     1      -2.632  -5.870   0.986  0.00  0.00    -0.168 OA
BRANCH  14  21
ATOM     17  C   UNL     1      -4.013  -0.492   4.446  0.00  0.00    +0.044 C 
ATOM     18  C   UNL     1      -3.432  -1.738   3.828  0.00  0.00    -0.050 A 
ATOM     19  C   UNL     1      -3.764  -2.086   2.532  0.00  0.00    +0.005 A 
ATOM     20  C   UNL     1      -3.231  -3.228   1.965  0.00  0.00    +0.027 A 
ATOM     21  C   UNL     1      -2.365  -4.022   2.694  0.00  0.00    +0.090 A 
ATOM     22  C   UNL     1      -2.033  -3.674   3.990  0.00  0.00    +0.027 A 
ATOM     23  C   UNL     1      -2.562  -2.529   4.555  0.00  0.00    +0.005 A 
ENDBRANCH  14  21
ENDBRANCH  13  14
ENDBRANCH   9  13
ENDBRANCH   1  10
BRANCH   1  24
ATOM     24  N   UNL     1       3.051  -5.967   4.620  0.00  0.00    -0.252 N 
ATOM     25  C   UNL     1       3.792  -5.752   5.725  0.00  0.00    +0.246 C 
ATOM     26  O   UNL     1       4.178  -6.691   6.388  0.00  0.00    -0.273 OA
BRANCH  24  27
ATOM     27  C   UNL     1       2.629  -7.264   4.301  0.00  0.00    +0.056 A 
ATOM     28  C   UNL     1       3.513  -8.158   3.712  0.00  0.00    +0.025 A 
ATOM     29  C   UNL     1       3.094  -9.437   3.400  0.00  0.00    +0.002 A 
ATOM     30  C   UNL     1       1.795  -9.826   3.672  0.00  0.00    +0.002 A 
ATOM     31  C   UNL     1       0.912  -8.939   4.258  0.00  0.00    +0.022 A 
ATOM     32  C   UNL     1       1.327  -7.660   4.579  0.00  0.00    +0.062 A 
ATOM     33 CL   UNL     1       0.220  -6.548   5.322  0.00  0.00    -0.082 Cl
ENDBRANCH  24  27
BRANCH  25  34
ATOM     34  C   UNL     1       4.140  -4.345   6.136  0.00  0.00    +0.252 C 
BRANCH  34  35
ATOM     35  O   UNL     1       4.915  -4.377   7.336  0.00  0.00    -0.386 OA
ATOM     36  H   UNL     1       5.176  -3.504   7.660  0.00  0.00    +0.210 HD
ENDBRANCH  34  35
ENDBRANCH  25  34
ENDBRANCH   1  24
TORSDOF 9
