REMARK  Name = ZINC58202770
REMARK  6 active torsions:
REMARK  status: ('A' for Active; 'I' for Inactive)
REMARK    1  A    between atoms: C_1  and  C_2
REMARK    2  A    between atoms: C_5  and  C_7
REMARK    3  A    between atoms: C_7  and  C_23
REMARK    4  A    between atoms: N_10  and  C_14
REMARK    5  A    between atoms: C_14  and  C_15
REMARK    6  A    between atoms: C_20  and  C_21
REMARK                            x       y       z     vdW  Elec       q    Type
REMARK                         _______ _______ _______ _____ _____    ______ ____
ROOT
ATOM      1  C   UNL     1       1.684  -3.245  -0.023  0.00  0.00    +0.168 C 
ATOM      2  C   UNL     1       2.935  -2.933   0.774  0.00  0.00    +0.254 C 
ATOM      3  O   UNL     1       3.745  -2.059   0.553  0.00  0.00    -0.272 OA
ATOM      4  N   UNL     1       2.959  -3.830   1.780  0.00  0.00    -0.219 N 
ATOM      5  C   UNL     1       1.908  -4.656   1.730  0.00  0.00    +0.310 C 
ATOM      6  O   UNL     1       1.712  -5.549   2.531  0.00  0.00    -0.252 OA
ATOM      7  N   UNL     1       1.093  -4.388   0.694  0.00  0.00    -0.279 N 
ATOM      8  C   UNL     1       2.040  -3.636  -1.458  0.00  0.00    +0.050 C 
ATOM      9  H   UNL     1       0.275  -4.856   0.464  0.00  0.00    +0.152 HD
ENDROOT
BRANCH   1  14
ATOM     10  C   UNL     1      -0.018   1.503   0.010  0.00  0.00    +0.086 C 
ATOM     11  C   UNL     1       0.002  -0.004   0.002  0.00  0.00    +0.102 A 
ATOM     12  C   UNL     1      -1.078  -0.805   0.003  0.00  0.00    +0.045 A 
ATOM     13  C   UNL     1      -0.601  -2.136  -0.007  0.00  0.00    +0.047 A 
ATOM     14  C   UNL     1       0.742  -2.069  -0.013  0.00  0.00    +0.137 A 
ATOM     15  O   UNL     1       1.102  -0.775  -0.013  0.00  0.00    -0.462 OA
ENDBRANCH   1  14
BRANCH   4  16
ATOM     16  C   UNL     1       4.007  -3.893   2.802  0.00  0.00    +0.154 C 
BRANCH  16  17
ATOM     17  C   UNL     1       3.625  -3.018   3.968  0.00  0.00    -0.012 A 
ATOM     18  C   UNL     1       4.167  -1.756   4.093  0.00  0.00    +0.006 A 
ATOM     19  C   UNL     1       3.817  -0.952   5.163  0.00  0.00    +0.000 A 
ATOM     20  C   UNL     1       2.922  -1.407   6.115  0.00  0.00    +0.001 A 
ATOM     21  C   UNL     1       2.373  -2.668   6.003  0.00  0.00    +0.019 A 
ATOM     22  C   UNL     1       2.717  -3.482   4.922  0.00  0.00    +0.056 A 
BRANCH  22  23
ATOM     23  C   UNL     1       2.146  -4.789   4.796  0.00  0.00    +0.099 C 
ATOM     24  N   UNL     1       1.693  -5.826   4.696  0.00  0.00    -0.191 NA
ENDBRANCH  22  23
ENDBRANCH  16  17
ENDBRANCH   4  16
TORSDOF 4
