REMARK  Name = ZINC40744544
REMARK  9 active torsions:
REMARK  status: ('A' for Active; 'I' for Inactive)
REMARK    1  A    between atoms: C_4  and  C_8
REMARK    2  A    between atoms: C_8  and  O_9
REMARK    3  A    between atoms: O_9  and  C_10
REMARK    4  A    between atoms: C_15  and  C_16
REMARK    5  A    between atoms: C_16  and  N_17
REMARK    6  A    between atoms: N_17  and  C_18
REMARK    7  A    between atoms: C_18  and  C_19
REMARK    8  A    between atoms: C_19  and  N_20
REMARK    9  A    between atoms: C_21  and  C_23
REMARK                            x       y       z     vdW  Elec       q    Type
REMARK                         _______ _______ _______ _____ _____    ______ ____
ROOT
ATOM      1  C   UNL     1       5.010  -1.430   3.947  0.00  0.00    -0.043 C 
ENDROOT
BRANCH   1   7
ATOM      2  C   UNL     1       5.321  -1.605   1.466  0.00  0.00    +0.122 A 
ATOM      3  C   UNL     1       6.051  -2.007   0.356  0.00  0.00    +0.047 A 
ATOM      4  C   UNL     1       7.247  -2.676   0.523  0.00  0.00    +0.023 A 
ATOM      5  C   UNL     1       7.718  -2.946   1.796  0.00  0.00    +0.041 A 
ATOM      6  C   UNL     1       6.992  -2.547   2.904  0.00  0.00    +0.025 A 
ATOM      7  C   UNL     1       5.797  -1.871   2.741  0.00  0.00    -0.021 A 
ATOM      8 CL   UNL     1       9.222  -3.788   2.004  0.00  0.00    -0.084 Cl
BRANCH   2   9
ATOM      9  O   UNL     1       4.143  -0.947   1.303  0.00  0.00    -0.487 OA
BRANCH   9  10
ATOM     10  C   UNL     1       3.713  -0.707  -0.038  0.00  0.00    +0.267 C 
BRANCH  10  14
ATOM     11  C   UNL     1      -0.017   1.378   0.010  0.00  0.00    +0.003 A 
ATOM     12  C   UNL     1       1.171   2.086   0.002  0.00  0.00    +0.020 A 
ATOM     13  C   UNL     1       2.378   1.411  -0.013  0.00  0.00    +0.049 A 
ATOM     14  C   UNL     1       2.398   0.028  -0.021  0.00  0.00    +0.026 A 
ATOM     15  C   UNL     1       1.209  -0.680  -0.013  0.00  0.00    +0.049 A 
ATOM     16  C   UNL     1       0.002  -0.004   0.002  0.00  0.00    +0.020 A 
ATOM     17 CL   UNL     1       1.233  -2.416  -0.023  0.00  0.00    -0.083 Cl
ATOM     18 CL   UNL     1       3.869   2.300  -0.024  0.00  0.00    -0.083 Cl
ENDBRANCH  10  14
ENDBRANCH   9  10
ENDBRANCH   2   9
ENDBRANCH   1   7
BRANCH   1  19
ATOM     19  N   UNL     1       3.920  -2.383   4.196  0.00  0.00    +0.383 N 
ATOM     20  H   UNL     1       3.312  -2.416   3.392  0.00  0.00    -0.085 HD
ATOM     21  H   UNL     1       4.306  -3.300   4.364  0.00  0.00    -0.085 HD
BRANCH  19  22
ATOM     22  C   UNL     1       3.152  -1.952   5.372  0.00  0.00    -0.063 C 
BRANCH  22  23
ATOM     23  C   UNL     1       2.017  -2.945   5.631  0.00  0.00    +0.085 C 
BRANCH  23  24
ATOM     24  N   UNL     1       1.251  -2.516   6.805  0.00  0.00    -0.312 N 
ATOM     25  C   UNL     1       0.196  -3.242   7.223  0.00  0.00    +0.269 C 
ATOM     26  O   UNL     1      -0.120  -4.253   6.628  0.00  0.00    -0.268 OA
ATOM     27  H   UNL     1       1.504  -1.709   7.280  0.00  0.00    +0.149 HD
BRANCH  25  28
ATOM     28  C   UNL     1      -0.578  -2.808   8.409  0.00  0.00    +0.209 A 
ATOM     29  C   UNL     1      -1.740  -3.501   8.978  0.00  0.00    +0.192 A 
ATOM     30  N   UNL     1      -2.154  -2.823  10.014  0.00  0.00    -0.033 NA
ATOM     31  O   UNL     1      -1.310  -1.696  10.164  0.00  0.00    -0.240 OA
ATOM     32  N   UNL     1      -0.340  -1.745   9.133  0.00  0.00    -0.042 NA
ATOM     33  N   UNL     1      -2.302  -4.675   8.497  0.00  0.00    -0.339 N 
ATOM     34  H   UNL     1      -1.923  -5.110   7.717  0.00  0.00    +0.144 HD
ATOM     35  H   UNL     1      -3.073  -5.061   8.941  0.00  0.00    +0.144 HD
ENDBRANCH  25  28
ENDBRANCH  23  24
ENDBRANCH  22  23
ENDBRANCH  19  22
ENDBRANCH   1  19
TORSDOF 9
