REMARK  Name = ZINC20693783
REMARK  9 active torsions:
REMARK  status: ('A' for Active; 'I' for Inactive)
REMARK    1  A    between atoms: C_1  and  C_2
REMARK    2  A    between atoms: C_5  and  N_9
REMARK    3  A    between atoms: C_7  and  C_8
REMARK    4  A    between atoms: N_9  and  S_10
REMARK    5  A    between atoms: S_10  and  C_13
REMARK    6  A    between atoms: C_26  and  C_29
REMARK    7  A    between atoms: C_33  and  O_36
REMARK    8  A    between atoms: C_34  and  O_35
REMARK    9  A    between atoms: O_36  and  C_37
REMARK                            x       y       z     vdW  Elec       q    Type
REMARK                         _______ _______ _______ _____ _____    ______ ____
ROOT
ATOM      1  C   UNL     1      -4.311   5.195   1.845  0.00  0.00    +0.109 A 
ATOM      2  C   UNL     1      -4.995   5.687   0.748  0.00  0.00    +0.030 A 
ATOM      3  C   UNL     1      -4.499   6.769   0.051  0.00  0.00    +0.025 A 
ATOM      4  C   UNL     1      -3.311   7.374   0.445  0.00  0.00    +0.031 A 
ATOM      5  C   UNL     1      -2.617   6.861   1.547  0.00  0.00    -0.018 A 
ATOM      6  C   UNL     1      -3.127   5.787   2.244  0.00  0.00    +0.034 A 
ATOM      7  C   UNL     1      -1.334   7.503   1.903  0.00  0.00    +0.049 C 
ATOM      8  C   UNL     1      -0.788   7.460   3.284  0.00  0.00    -0.023 C 
ATOM      9  C   UNL     1      -0.089   8.568   3.498  0.00  0.00    -0.030 C 
ATOM     10  C   UNL     1      -0.144   9.468   2.263  0.00  0.00    +0.033 C 
ATOM     11  C   UNL     1      -1.466   9.029   1.619  0.00  0.00    +0.029 C 
ATOM     12  C   UNL     1      -1.574   9.152   0.110  0.00  0.00    +0.109 C 
ATOM     13  N   UNL     1      -2.847   8.493  -0.256  0.00  0.00    -0.336 N 
ATOM     14  H   UNL     1      -3.447   8.881  -1.092  0.00  0.00    +0.147 HD
ENDROOT
BRANCH  12  15
ATOM     15  C   UNL     1      -0.416   8.452  -0.553  0.00  0.00    +0.018 A 
ATOM     16  C   UNL     1      -0.540   7.131  -0.945  0.00  0.00    +0.009 A 
ATOM     17  C   UNL     1       0.518   6.487  -1.559  0.00  0.00    +0.004 A 
ATOM     18  C   UNL     1       1.709   7.157  -1.774  0.00  0.00    +0.049 A 
ATOM     19  C   UNL     1       1.841   8.479  -1.379  0.00  0.00    +0.162 A 
ATOM     20  C   UNL     1       0.773   9.129  -0.766  0.00  0.00    +0.163 A 
BRANCH  20  21
ATOM     21  O   UNL     1       0.898  10.426  -0.376  0.00  0.00    -0.503 OA
ATOM     22  H   UNL     1       1.843  10.962  -0.545  0.00  0.00    +0.292 HD
ENDBRANCH  20  21
BRANCH  19  23
ATOM     23  O   UNL     1       3.011   9.139  -1.589  0.00  0.00    -0.491 OA
ATOM     24  C   UNL     1       4.063   8.409  -2.223  0.00  0.00    +0.277 C 
ENDBRANCH  19  23
ENDBRANCH  12  15
BRANCH   1  25
ATOM     25  S   UNL     1      -4.952   3.818   2.739  0.00  0.00    +0.072 S 
ATOM     26  O   UNL     1      -6.353   3.794   2.498  0.00  0.00    -0.150 OA
ATOM     27  O   UNL     1      -4.406   3.894   4.049  0.00  0.00    -0.150 OA
BRANCH  25  28
ATOM     28  N   UNL     1      -4.329   2.450   2.045  0.00  0.00    -0.216 N 
ATOM     29  H   UNL     1      -4.997   1.735   1.543  0.00  0.00    +0.174 HD
BRANCH  28  34
ATOM     30  C   UNL     1       1.250   1.453   2.258  0.00  0.00    +0.044 C 
ATOM     31  C   UNL     1      -0.233   1.718   2.201  0.00  0.00    -0.047 A 
ATOM     32  C   UNL     1      -0.901   2.145   3.334  0.00  0.00    +0.005 A 
ATOM     33  C   UNL     1      -2.259   2.388   3.286  0.00  0.00    +0.025 A 
ATOM     34  C   UNL     1      -2.955   2.205   2.097  0.00  0.00    +0.048 A 
ATOM     35  C   UNL     1      -2.279   1.782   0.960  0.00  0.00    +0.028 A 
ATOM     36  C   UNL     1      -0.922   1.535   1.016  0.00  0.00    -0.046 A 
ATOM     37  C   UNL     1      -0.189   1.070  -0.216  0.00  0.00    +0.044 C 
ENDBRANCH  28  34
ENDBRANCH  25  28
ENDBRANCH   1  25
TORSDOF 6
