REMARK  Name = ZINC20709569
REMARK  8 active torsions:
REMARK  status: ('A' for Active; 'I' for Inactive)
REMARK    1  A    between atoms: C_1  and  C_2
REMARK    2  A    between atoms: C_6  and  C_38
REMARK    3  A    between atoms: C_7  and  N_8
REMARK    4  A    between atoms: N_8  and  S_9
REMARK    5  A    between atoms: S_9  and  C_12
REMARK    6  A    between atoms: C_25  and  C_28
REMARK    7  A    between atoms: C_30  and  N_35
REMARK    8  A    between atoms: C_33  and  O_34
REMARK                            x       y       z     vdW  Elec       q    Type
REMARK                         _______ _______ _______ _____ _____    ______ ____
ROOT
ATOM      1  C   UNL     1       2.179   0.805  -0.164  0.00  0.00    +0.109 A 
ATOM      2  C   UNL     1       2.309   2.163  -0.394  0.00  0.00    +0.030 A 
ATOM      3  C   UNL     1       1.191   2.934  -0.637  0.00  0.00    +0.025 A 
ATOM      4  C   UNL     1      -0.072   2.355  -0.652  0.00  0.00    +0.031 A 
ATOM      5  C   UNL     1      -0.194   0.979  -0.431  0.00  0.00    -0.018 A 
ATOM      6  C   UNL     1       0.927   0.218  -0.183  0.00  0.00    +0.034 A 
ATOM      7  C   UNL     1      -1.551   0.395  -0.498  0.00  0.00    +0.049 C 
ATOM      8  C   UNL     1      -1.914  -0.838   0.246  0.00  0.00    -0.023 C 
ATOM      9  C   UNL     1      -3.191  -0.793   0.565  0.00  0.00    -0.030 C 
ATOM     10  C   UNL     1      -3.791   0.538   0.110  0.00  0.00    +0.033 C 
ATOM     11  C   UNL     1      -2.551   1.442   0.078  0.00  0.00    +0.029 C 
ATOM     12  C   UNL     1      -2.556   2.589  -0.916  0.00  0.00    +0.108 C 
ATOM     13  N   UNL     1      -1.194   3.164  -0.868  0.00  0.00    -0.336 N 
ATOM     14  H   UNL     1      -1.049   4.246  -1.003  0.00  0.00    +0.147 HD
ENDROOT
BRANCH  12  15
ATOM     15  C   UNL     1      -3.573   3.624  -0.512  0.00  0.00    +0.017 A 
ATOM     16  C   UNL     1      -3.170   4.768   0.150  0.00  0.00    +0.041 A 
ATOM     17  C   UNL     1      -4.102   5.721   0.516  0.00  0.00    +0.127 A 
ATOM     18  C   UNL     1      -5.441   5.527   0.230  0.00  0.00    +0.036 A 
ATOM     19  C   UNL     1      -5.850   4.383  -0.427  0.00  0.00    +0.048 A 
ATOM     20  C   UNL     1      -4.916   3.428  -0.800  0.00  0.00    +0.122 A 
BRANCH  17  21
ATOM     21  N   UNL     1      -3.667   6.948   1.221  0.00  0.00    +0.056 N 
ATOM     22  O   UNL     1      -4.488   7.786   1.548  0.00  0.00    -0.126 OA
ATOM     23  O   UNL     1      -2.488   7.119   1.473  0.00  0.00    -0.126 OA
ENDBRANCH  17  21
BRANCH  20  24
ATOM     24  O   UNL     1      -5.315   2.301  -1.447  0.00  0.00    -0.506 OA
ATOM     25  H   UNL     1      -6.380   2.147  -1.675  0.00  0.00    +0.292 HD
ENDBRANCH  20  24
ENDBRANCH  12  15
BRANCH   1  26
ATOM     26  S   UNL     1       3.608  -0.176   0.153  0.00  0.00    +0.072 S 
ATOM     27  O   UNL     1       4.638   0.722   0.545  0.00  0.00    -0.150 OA
ATOM     28  O   UNL     1       3.186  -1.256   0.975  0.00  0.00    -0.150 OA
BRANCH  26  29
ATOM     29  N   UNL     1       4.079  -0.836  -1.291  0.00  0.00    -0.216 N 
ATOM     30  H   UNL     1       4.024  -1.924  -1.442  0.00  0.00    +0.174 HD
BRANCH  29  37
ATOM     31  C   UNL     1       2.341  -0.303  -3.480  0.00  0.00    +0.046 C 
ATOM     32  C   UNL     1       3.731   0.276  -3.405  0.00  0.00    -0.028 A 
ATOM     33  C   UNL     1       4.194   1.096  -4.415  0.00  0.00    +0.005 A 
ATOM     34  C   UNL     1       5.470   1.623  -4.349  0.00  0.00    +0.001 A 
ATOM     35  C   UNL     1       6.286   1.335  -3.271  0.00  0.00    +0.005 A 
ATOM     36  C   UNL     1       5.828   0.520  -2.254  0.00  0.00    -0.028 A 
ATOM     37  C   UNL     1       4.546  -0.011  -2.317  0.00  0.00    +0.054 A 
ATOM     38  C   UNL     1       6.718   0.207  -1.079  0.00  0.00    +0.046 C 
ENDBRANCH  29  37
ENDBRANCH  26  29
ENDBRANCH   1  26
TORSDOF 6
