REMARK  Name = ZINC36628494
REMARK  8 active torsions:
REMARK  status: ('A' for Active; 'I' for Inactive)
REMARK    1  A    between atoms: C_1  and  C_2
REMARK    2  A    between atoms: C_4  and  C_33
REMARK    3  A    between atoms: C_6  and  S_8
REMARK    4  A    between atoms: S_8  and  C_9
REMARK    5  A    between atoms: C_9  and  C_10
REMARK    6  A    between atoms: C_13  and  C_16
REMARK    7  A    between atoms: N_18  and  N_19
REMARK    8  A    between atoms: C_20  and  C_22
REMARK                            x       y       z     vdW  Elec       q    Type
REMARK                         _______ _______ _______ _____ _____    ______ ____
ROOT
ATOM      1  C   UNL     1       0.097  -3.858   9.187  0.00  0.00    +0.260 C 
ATOM      2  O   UNL     1      -0.950  -4.121   9.746  0.00  0.00    -0.269 OA
ATOM      3  N   UNL     1       1.271  -4.109   9.801  0.00  0.00    -0.230 N 
ATOM      4  H   UNL     1       2.106  -3.899   9.354  0.00  0.00    +0.173 HD
ENDROOT
BRANCH   1   8
ATOM      5  C   UNL     1       0.056  -2.148   5.299  0.00  0.00    -0.037 A 
ATOM      6  C   UNL     1      -1.137  -2.447   5.933  0.00  0.00    +0.005 A 
ATOM      7  C   UNL     1      -1.131  -3.003   7.196  0.00  0.00    +0.013 A 
ATOM      8  C   UNL     1       0.083  -3.263   7.834  0.00  0.00    +0.038 A 
ATOM      9  C   UNL     1       1.283  -2.960   7.189  0.00  0.00    +0.013 A 
ATOM     10  C   UNL     1       1.262  -2.409   5.924  0.00  0.00    +0.005 A 
BRANCH   5  11
ATOM     11  C   UNL     1       0.041  -1.542   3.919  0.00  0.00    +0.112 C 
BRANCH  11  12
ATOM     12  S   UNL     1       0.053  -2.864   2.678  0.00  0.00    -0.081 S 
BRANCH  12  18
ATOM     13  C   UNL     1      -0.018   1.503   0.010  0.00  0.00    +0.066 C 
ATOM     14  C   UNL     1       0.002  -0.004   0.002  0.00  0.00    +0.043 A 
ATOM     15  C   UNL     1       0.006  -0.699  -1.198  0.00  0.00    +0.046 A 
ATOM     16  C   UNL     1       0.025  -2.084  -1.161  0.00  0.00    +0.043 A 
ATOM     17  N   UNL     1       0.039  -2.699   0.010  0.00  0.00    -0.227 NA
ATOM     18  C   UNL     1       0.035  -2.005   1.140  0.00  0.00    +0.189 A 
ATOM     19  N   UNL     1       0.022  -0.679   1.139  0.00  0.00    -0.227 NA
ATOM     20  C   UNL     1       0.029  -2.881  -2.440  0.00  0.00    +0.066 C 
ENDBRANCH  12  18
ENDBRANCH  11  12
ENDBRANCH   5  11
ENDBRANCH   1   8
BRANCH   3  21
ATOM     21  N   UNL     1       1.284  -4.673  11.083  0.00  0.00    -0.230 N 
ATOM     22  C   UNL     1       2.458  -4.923  11.697  0.00  0.00    +0.260 C 
ATOM     23  O   UNL     1       3.505  -4.660  11.137  0.00  0.00    -0.269 OA
ATOM     24  H   UNL     1       0.449  -4.882  11.530  0.00  0.00    +0.173 HD
BRANCH  22  25
ATOM     25  C   UNL     1       2.472  -5.516  13.047  0.00  0.00    +0.040 A 
ATOM     26  C   UNL     1       1.268  -5.824  13.687  0.00  0.00    +0.014 A 
ATOM     27  C   UNL     1       1.284  -6.380  14.947  0.00  0.00    +0.017 A 
ATOM     28  C   UNL     1       2.494  -6.633  15.579  0.00  0.00    +0.030 A 
ATOM     29  C   UNL     1       3.707  -6.327  14.952  0.00  0.00    +0.048 A 
ATOM     30  C   UNL     1       3.689  -5.776  13.681  0.00  0.00    +0.037 A 
ATOM     31  N   UNL     1       4.929  -6.564  15.577  0.00  0.00    -0.284 N 
ATOM     32  C   UNL     1       5.153  -7.423  16.568  0.00  0.00    +0.227 C 
ATOM     33  O   UNL     1       6.284  -7.520  16.997  0.00  0.00    -0.275 OA
ATOM     34  C   UNL     1       4.083  -8.280  17.185  0.00  0.00    +0.170 C 
ATOM     35  S   UNL     1       2.520  -7.350  17.192  0.00  0.00    -0.114 S 
ATOM     36  H   UNL     1       5.691  -6.055  15.258  0.00  0.00    +0.155 HD
ENDBRANCH  22  25
ENDBRANCH   3  21
TORSDOF 6
