REMARK  Name = ZINC48867352
REMARK  5 active torsions:
REMARK  status: ('A' for Active; 'I' for Inactive)
REMARK    1  A    between atoms: C_1  and  C_2
REMARK    2  A    between atoms: C_6  and  N_21
REMARK    3  A    between atoms: C_7  and  C_8
REMARK    4  A    between atoms: N_12  and  C_13
REMARK    5  A    between atoms: C_13  and  C_14
REMARK                            x       y       z     vdW  Elec       q    Type
REMARK                         _______ _______ _______ _____ _____    ______ ____
ROOT
ATOM      1  C   UNL     1      -0.168  -0.170   1.926  0.00  0.00    +0.184 A 
ATOM      2  N   UNL     1      -0.284   1.134   2.067  0.00  0.00    -0.108 NA
ATOM      3  N   UNL     1      -0.057   1.476   3.284  0.00  0.00    -0.023 NA
ATOM      4  N   UNL     1       0.216   0.439   3.999  0.00  0.00    -0.043 NA
ATOM      5  N   UNL     1       0.149  -0.675   3.145  0.00  0.00    -0.221 N 
ENDROOT
BRANCH   1  12
ATOM      6  C   UNL     1       1.470   0.431  -0.381  0.00  0.00    +0.044 C 
ATOM      7  C   UNL     1       0.430  -0.659  -0.442  0.00  0.00    -0.038 A 
ATOM      8  C   UNL     1       0.257  -1.383  -1.603  0.00  0.00    +0.004 A 
ATOM      9  C   UNL     1      -0.697  -2.385  -1.665  0.00  0.00    +0.002 A 
ATOM     10  C   UNL     1      -1.483  -2.670  -0.566  0.00  0.00    +0.023 A 
ATOM     11  C   UNL     1      -1.322  -1.950   0.609  0.00  0.00    +0.036 A 
ATOM     12  C   UNL     1      -0.353  -0.939   0.677  0.00  0.00    +0.044 A 
BRANCH  11  13
ATOM     13  N   UNL     1      -2.115  -2.235   1.719  0.00  0.00    -0.357 N 
ATOM     14  H   UNL     1      -2.793  -2.926   1.665  0.00  0.00    +0.142 HD
ATOM     15  H   UNL     1      -1.988  -1.743   2.545  0.00  0.00    +0.142 HD
ENDBRANCH  11  13
ENDBRANCH   1  12
BRANCH   5  16
ATOM     16  C   UNL     1       0.376  -2.080   3.495  0.00  0.00    +0.183 C 
BRANCH  16  17
ATOM     17  C   UNL     1       1.847  -2.390   3.401  0.00  0.00    -0.012 A 
ATOM     18  C   UNL     1       2.371  -2.914   2.234  0.00  0.00    +0.006 A 
ATOM     19  C   UNL     1       3.720  -3.198   2.148  0.00  0.00    +0.000 A 
ATOM     20  C   UNL     1       4.548  -2.958   3.229  0.00  0.00    +0.001 A 
ATOM     21  C   UNL     1       4.026  -2.434   4.396  0.00  0.00    +0.015 A 
ATOM     22  C   UNL     1       2.676  -2.144   4.481  0.00  0.00    +0.023 A 
ATOM     23 BR   UNL     1       1.962  -1.420   6.076  0.00  0.00    -0.050 Br
ENDBRANCH  16  17
ENDBRANCH   5  16
TORSDOF 4
