REMARK  Name = ZINC04277956
REMARK  10 active torsions:
REMARK  status: ('A' for Active; 'I' for Inactive)
REMARK    1  A    between atoms: C_1  and  C_2
REMARK    2  A    between atoms: C_2  and  C_3
REMARK    3  A    between atoms: C_2  and  N_4
REMARK    4  A    between atoms: N_10  and  S_33
REMARK    5  A    between atoms: C_12  and  C_14
REMARK    6  A    between atoms: N_16  and  C_17
REMARK    7  A    between atoms: C_17  and  C_19
REMARK    8  A    between atoms: C_17  and  C_30
REMARK    9  A    between atoms: C_19  and  C_20
REMARK   10  A    between atoms: S_33  and  C_36
REMARK                            x       y       z     vdW  Elec       q    Type
REMARK                         _______ _______ _______ _____ _____    ______ ____
ROOT
ATOM      1  N   UNL     1       6.517   6.867  -4.684  0.00  0.00    -0.297 N 
ATOM      2  C   UNL     1       6.316   5.612  -4.235  0.00  0.00    +0.303 C 
ATOM      3  O   UNL     1       6.937   4.686  -4.720  0.00  0.00    -0.253 OA
ATOM      4  N   UNL     1       5.427   5.384  -3.248  0.00  0.00    -0.272 N 
ATOM      5  C   UNL     1       4.752   6.503  -2.576  0.00  0.00    +0.127 C 
ATOM      6  C   UNL     1       3.236   6.293  -2.676  0.00  0.00    +0.128 C 
ATOM      7  N   UNL     1       2.924   4.920  -2.253  0.00  0.00    -0.173 NA
ATOM      8  C   UNL     1       3.603   3.801  -2.922  0.00  0.00    +0.141 C 
ATOM      9  C   UNL     1       5.114   4.011  -2.826  0.00  0.00    +0.179 C 
ATOM     10  H   UNL     1       6.078   7.614  -4.248  0.00  0.00    +0.150 HD
ENDROOT
BRANCH   9  11
ATOM     11  C   UNL     1       5.821   3.031  -3.726  0.00  0.00    +0.236 C 
ATOM     12  O   UNL     1       5.723   3.135  -4.931  0.00  0.00    -0.274 OA
ATOM     13  N   UNL     1       6.563   2.040  -3.193  0.00  0.00    -0.302 N 
ATOM     14  H   UNL     1       6.642   1.958  -2.230  0.00  0.00    +0.150 HD
BRANCH  13  15
ATOM     15  C   UNL     1       7.250   1.088  -4.069  0.00  0.00    +0.163 C 
BRANCH  15  16
ATOM     16  C   UNL     1       8.579   1.661  -4.489  0.00  0.00    +0.231 C 
ATOM     17  O   UNL     1       8.919   2.757  -4.097  0.00  0.00    -0.274 OA
ATOM     18  N   UNL     1       9.391   0.955  -5.302  0.00  0.00    -0.328 N 
ATOM     19  H   UNL     1       9.119   0.079  -5.617  0.00  0.00    +0.145 HD
ATOM     20  H   UNL     1      10.246   1.324  -5.573  0.00  0.00    +0.145 HD
ENDBRANCH  15  16
BRANCH  15  21
ATOM     21  C   UNL     1       7.476  -0.225  -3.317  0.00  0.00    +0.069 C 
BRANCH  21  22
ATOM     22  C   UNL     1       6.146  -0.860  -3.004  0.00  0.00    -0.020 A 
ATOM     23  C   UNL     1       5.452  -0.737  -1.861  0.00  0.00    +0.087 A 
ATOM     24  N   UNL     1       4.290  -1.455  -1.942  0.00  0.00    -0.360 N 
ATOM     25  H   UNL     1       3.624  -1.519  -1.239  0.00  0.00    +0.165 HD
ATOM     26  C   UNL     1       4.205  -2.073  -3.170  0.00  0.00    +0.047 A 
ATOM     27  C   UNL     1       5.361  -1.722  -3.891  0.00  0.00    +0.003 A 
ATOM     28  C   UNL     1       5.552  -2.214  -5.183  0.00  0.00    +0.010 A 
ATOM     29  C   UNL     1       4.608  -3.027  -5.746  0.00  0.00    +0.001 A 
ATOM     30  C   UNL     1       3.463  -3.371  -5.040  0.00  0.00    +0.002 A 
ATOM     31  C   UNL     1       3.257  -2.901  -3.762  0.00  0.00    +0.026 A 
ENDBRANCH  21  22
ENDBRANCH  15  21
ENDBRANCH  13  15
ENDBRANCH   9  11
BRANCH   1  33
ATOM     32  C   UNL     1       6.608   6.922  -7.127  0.00  0.00    +0.027 C 
ATOM     33  C   UNL     1       7.399   7.102  -5.830  0.00  0.00    +0.068 C 
ATOM     34  C   UNL     1       7.952   8.527  -5.764  0.00  0.00    +0.027 C 
ENDBRANCH   1  33
BRANCH   7  35
ATOM     35  S   UNL     1       1.831   4.640  -1.041  0.00  0.00    +0.061 S 
ATOM     36  O   UNL     1       1.792   5.819  -0.249  0.00  0.00    -0.153 OA
ATOM     37  O   UNL     1       2.148   3.366  -0.496  0.00  0.00    -0.153 OA
BRANCH  35  38
ATOM     38  C   UNL     1       0.246   4.485  -1.794  0.00  0.00    +0.105 A 
ATOM     39  C   UNL     1      -0.205   3.246  -2.208  0.00  0.00    +0.028 A 
ATOM     40  C   UNL     1      -1.449   3.125  -2.798  0.00  0.00    +0.002 A 
ATOM     41  C   UNL     1      -2.240   4.244  -2.980  0.00  0.00    +0.000 A 
ATOM     42  C   UNL     1      -1.792   5.482  -2.561  0.00  0.00    +0.002 A 
ATOM     43  C   UNL     1      -0.548   5.604  -1.970  0.00  0.00    +0.028 A 
ENDBRANCH  35  38
ENDBRANCH   7  35
TORSDOF 8
