REMARK  Name = ZINC39666506
REMARK  7 active torsions:
REMARK  status: ('A' for Active; 'I' for Inactive)
REMARK    1  A    between atoms: C_1  and  C_2
REMARK    2  A    between atoms: C_2  and  C_4
REMARK    3  A    between atoms: C_2  and  O_29
REMARK    4  A    between atoms: C_4  and  N_5
REMARK    5  A    between atoms: C_6  and  C_8
REMARK    6  A    between atoms: C_19  and  C_21
REMARK    7  A    between atoms: O_29  and  C_30
REMARK                            x       y       z     vdW  Elec       q    Type
REMARK                         _______ _______ _______ _____ _____    ______ ____
ROOT
ATOM      1  C   UNL     1      -3.832  -6.346  -1.811  0.00  0.00    +0.100 C 
ATOM      2  C   UNL     1      -3.153  -6.823  -3.115  0.00  0.00    +0.121 C 
ATOM      3  N   UNL     1      -4.201  -7.597  -3.821  0.00  0.00    -0.296 N 
ATOM      4  C   UNL     1      -5.447  -6.829  -3.587  0.00  0.00    +0.115 C 
ATOM      5  C   UNL     1      -5.338  -6.350  -2.126  0.00  0.00    -0.004 C 
ATOM      6  C   UNL     1      -5.910  -4.942  -1.989  0.00  0.00    -0.010 C 
ATOM      7  C   UNL     1      -7.419  -4.982  -2.249  0.00  0.00    -0.082 C 
ATOM      8  N   UNL     1      -8.059  -5.889  -1.289  0.00  0.00    +0.379 N 
ATOM      9  C   UNL     1      -7.571  -7.258  -1.490  0.00  0.00    -0.082 C 
ATOM     10  C   UNL     1      -6.069  -7.315  -1.198  0.00  0.00    -0.010 C 
ATOM     11  C   UNL     1      -4.054  -8.741  -4.518  0.00  0.00    +0.249 C 
ATOM     12  O   UNL     1      -5.000  -9.212  -5.120  0.00  0.00    -0.270 OA
ATOM     13  H   UNL     1      -7.842  -5.590  -0.350  0.00  0.00    -0.086 HD
ATOM     14  H   UNL     1      -9.059  -5.867  -1.423  0.00  0.00    -0.086 HD
ENDROOT
BRANCH  11  15
ATOM     15  C   UNL     1      -2.744  -9.423  -4.551  0.00  0.00    +0.073 A 
ATOM     16  C   UNL     1      -1.569  -8.680  -4.684  0.00  0.00    +0.016 A 
ATOM     17  C   UNL     1      -0.350  -9.322  -4.713  0.00  0.00    +0.002 A 
ATOM     18  C   UNL     1      -0.286 -10.702  -4.611  0.00  0.00    +0.023 A 
ATOM     19  C   UNL     1      -1.443 -11.447  -4.479  0.00  0.00    +0.077 A 
ATOM     20  C   UNL     1      -2.675 -10.815  -4.443  0.00  0.00    +0.154 A 
ATOM     21  F   UNL     1      -3.805 -11.542  -4.308  0.00  0.00    -0.203 F 
ATOM     22 CL   UNL     1      -1.351 -13.176  -4.352  0.00  0.00    -0.081 Cl
ENDBRANCH  11  15
BRANCH   1  24
ATOM     23  N   UNL     1      -3.326  -4.565  -0.171  0.00  0.00    -0.312 N 
ATOM     24  C   UNL     1      -3.373  -4.954  -1.460  0.00  0.00    +0.218 C 
ATOM     25  O   UNL     1      -3.047  -4.183  -2.338  0.00  0.00    -0.275 OA
ATOM     26  H   UNL     1      -3.587  -5.181   0.531  0.00  0.00    +0.149 HD
BRANCH  23  27
ATOM     27  C   UNL     1      -2.880  -3.212   0.171  0.00  0.00    +0.148 C 
BRANCH  27  29
ATOM     28  C   UNL     1      -2.454  -1.617   2.046  0.00  0.00    +0.053 C 
ATOM     29  C   UNL     1      -2.919  -3.030   1.689  0.00  0.00    +0.187 C 
BRANCH  29  30
ATOM     30  O   UNL     1      -4.255  -3.224   2.158  0.00  0.00    -0.486 OA
BRANCH  30  31
ATOM     31  C   UNL     1      -4.404  -3.670   3.433  0.00  0.00    +0.139 A 
ATOM     32  C   UNL     1      -3.294  -3.811   4.253  0.00  0.00    +0.047 A 
ATOM     33  C   UNL     1      -3.447  -4.265   5.549  0.00  0.00    +0.004 A 
ATOM     34  C   UNL     1      -4.705  -4.580   6.029  0.00  0.00    +0.002 A 
ATOM     35  C   UNL     1      -5.813  -4.441   5.214  0.00  0.00    +0.023 A 
ATOM     36  C   UNL     1      -5.666  -3.982   3.918  0.00  0.00    +0.083 A 
ATOM     37 CL   UNL     1      -7.059  -3.801   2.897  0.00  0.00    -0.080 Cl
ENDBRANCH  30  31
ENDBRANCH  29  30
ENDBRANCH  27  29
ENDBRANCH  23  27
ENDBRANCH   1  24
TORSDOF 6
