REMARK  Name = ZINC10108727
REMARK  12 active torsions:
REMARK  status: ('A' for Active; 'I' for Inactive)
REMARK    1  A    between atoms: C_1  and  C_2
REMARK    2  A    between atoms: C_2  and  O_3
REMARK    3  A    between atoms: O_3  and  C_4
REMARK    4  A    between atoms: C_9  and  N_10
REMARK    5  A    between atoms: C_11  and  C_36
REMARK    6  A    between atoms: N_20  and  C_25
REMARK    7  A    between atoms: N_23  and  C_24
REMARK    8  A    between atoms: C_25  and  C_26
REMARK    9  A    between atoms: C_26  and  C_28
REMARK   10  A    between atoms: C_26  and  C_29
REMARK   11  A    between atoms: C_29  and  N_72
REMARK   12  A    between atoms: C_32  and  C_35
REMARK                            x       y       z     vdW  Elec       q    Type
REMARK                         _______ _______ _______ _____ _____    ______ ____
ROOT
ATOM      1  N   UNL     1      -1.848   9.300  -9.311  0.00  0.00    -0.279 N 
ATOM      2  C   UNL     1      -0.605   8.792  -9.642  0.00  0.00    +0.041 A 
ATOM      3  C   UNL     1      -0.016   8.377  -8.524  0.00  0.00    +0.116 A 
ATOM      4  N   UNL     1      -0.874   8.614  -7.465  0.00  0.00    -0.277 N 
ATOM      5  C   UNL     1      -2.002   9.182  -7.953  0.00  0.00    +0.223 A 
ATOM      6  N   UNL     1      -2.840   9.418  -6.955  0.00  0.00    -0.193 NA
ATOM      7  C   UNL     1      -2.301   9.021  -5.805  0.00  0.00    +0.170 A 
ATOM      8  C   UNL     1      -1.040   8.499  -6.093  0.00  0.00    +0.157 A 
ATOM      9  C   UNL     1      -0.247   8.008  -5.043  0.00  0.00    +0.283 A 
ATOM     10  O   UNL     1       0.861   7.552  -5.269  0.00  0.00    -0.265 OA
ATOM     11  N   UNL     1      -0.724   8.042  -3.782  0.00  0.00    -0.259 N 
ATOM     12  C   UNL     1      -1.941   8.546  -3.514  0.00  0.00    +0.333 A 
ATOM     13  O   UNL     1      -2.336   8.564  -2.364  0.00  0.00    -0.246 OA
ATOM     14  N   UNL     1      -2.734   9.032  -4.488  0.00  0.00    -0.279 N 
ATOM     15  C   UNL     1      -4.054   9.575  -4.155  0.00  0.00    +0.155 C 
ATOM     16  C   UNL     1      -0.019   8.722 -11.028  0.00  0.00    +0.065 C 
ENDROOT
BRANCH   1  22
ATOM     17  C   UNL     1      -2.769  11.201 -10.496  0.00  0.00    +0.144 A 
ATOM     18  C   UNL     1      -3.693  11.726 -11.384  0.00  0.00    +0.048 A 
ATOM     19  C   UNL     1      -4.636  10.902 -11.970  0.00  0.00    +0.004 A 
ATOM     20  C   UNL     1      -4.655   9.550 -11.677  0.00  0.00    +0.002 A 
ATOM     21  C   UNL     1      -3.733   9.017 -10.797  0.00  0.00    +0.030 A 
ATOM     22  C   UNL     1      -2.785   9.838 -10.204  0.00  0.00    +0.091 A 
BRANCH  17  23
ATOM     23  O   UNL     1      -1.846  12.011  -9.914  0.00  0.00    -0.490 OA
BRANCH  23  25
ATOM     24  C   UNL     1      -0.784  14.145  -9.512  0.00  0.00    +0.048 C 
ATOM     25  C   UNL     1      -1.890  13.397 -10.259  0.00  0.00    +0.226 C 
ENDBRANCH  23  25
ENDBRANCH  17  23
ENDBRANCH   1  22
BRANCH  11  26
ATOM     26  C   UNL     1       0.099   7.526  -2.685  0.00  0.00    +0.131 C 
BRANCH  26  27
ATOM     27  C   UNL     1      -0.196   6.039  -2.482  0.00  0.00    -0.011 C 
ATOM     28  C   UNL     1      -1.643   5.864  -2.018  0.00  0.00    +0.007 C 
BRANCH  27  29
ATOM     29  C   UNL     1       0.751   5.471  -1.423  0.00  0.00    -0.074 C 
BRANCH  29  36
ATOM     30  C   UNL     1       3.071   4.975  -0.939  0.00  0.00    -0.079 C 
ATOM     31  C   UNL     1       4.510   5.245  -1.385  0.00  0.00    -0.016 C 
ATOM     32  C   UNL     1       4.723   4.662  -2.785  0.00  0.00    -0.018 C 
ATOM     33  C   UNL     1       3.708   5.284  -3.748  0.00  0.00    -0.016 C 
ATOM     34  C   UNL     1       2.292   5.013  -3.233  0.00  0.00    -0.079 C 
ATOM     35  C   UNL     1       6.141   4.981  -3.261  0.00  0.00    +0.007 C 
ATOM     36  N   UNL     1       2.144   5.620  -1.893  0.00  0.00    +0.380 N 
ATOM     37  H   UNL     1       2.371   6.620  -1.953  0.00  0.00    -0.082 HD
ENDBRANCH  29  36
ENDBRANCH  27  29
ENDBRANCH  26  27
ENDBRANCH  11  26
TORSDOF 7
