REMARK  Name = ZINC38604309
REMARK  9 active torsions:
REMARK  status: ('A' for Active; 'I' for Inactive)
REMARK    1  A    between atoms: C_1  and  C_2
REMARK    2  A    between atoms: C_5  and  N_9
REMARK    3  A    between atoms: C_7  and  C_8
REMARK    4  A    between atoms: C_11  and  C_16
REMARK    5  A    between atoms: N_18  and  C_19
REMARK    6  A    between atoms: C_19  and  C_20
REMARK    7  A    between atoms: C_20  and  C_22
REMARK    8  A    between atoms: C_20  and  N_27
REMARK    9  A    between atoms: N_30  and  C_33
REMARK                            x       y       z     vdW  Elec       q    Type
REMARK                         _______ _______ _______ _____ _____    ______ ____
ROOT
ATOM      1  C   UNL     1      -0.215 -11.282  -1.812  0.00  0.00    +0.017 C 
ENDROOT
BRANCH   1   2
ATOM      2  N   UNL     1      -0.433 -11.439  -0.368  0.00  0.00    +0.389 N 
ATOM      3  C   UNL     1       0.441 -10.511   0.361  0.00  0.00    -0.059 C 
ATOM      4  C   UNL     1       0.134 -10.592   1.860  0.00  0.00    +0.086 C 
ATOM      5  N   UNL     1       0.250 -11.996   2.284  0.00  0.00    -0.333 N 
ATOM      6  C   UNL     1      -0.466 -13.018   1.505  0.00  0.00    +0.086 C 
ATOM      7  C   UNL     1      -0.131 -12.822   0.023  0.00  0.00    -0.059 C 
ATOM      8  H   UNL     1      -1.396 -11.232  -0.149  0.00  0.00    -0.081 HD
BRANCH   5   9
ATOM      9  C   UNL     1       1.020 -12.349   3.397  0.00  0.00    +0.030 A 
ATOM     10  C   UNL     1       1.585 -11.362   4.194  0.00  0.00    +0.026 A 
ATOM     11  C   UNL     1       2.344 -11.713   5.293  0.00  0.00    +0.040 A 
ATOM     12  C   UNL     1       2.542 -13.048   5.600  0.00  0.00    +0.124 A 
ATOM     13  C   UNL     1       1.980 -14.034   4.808  0.00  0.00    +0.040 A 
ATOM     14  C   UNL     1       1.216 -13.688   3.711  0.00  0.00    +0.026 A 
ATOM     15  F   UNL     1       3.286 -13.389   6.676  0.00  0.00    -0.205 F 
ENDBRANCH   5   9
ENDBRANCH   1   2
BRANCH   1  16
ATOM     16  C   UNL     1      -1.044 -12.295  -2.558  0.00  0.00    +0.093 A 
ATOM     17  C   UNL     1      -0.650 -12.991  -3.640  0.00  0.00    +0.043 A 
ATOM     18  C   UNL     1      -1.734 -13.820  -4.011  0.00  0.00    +0.041 A 
ATOM     19  C   UNL     1      -2.725 -13.581  -3.134  0.00  0.00    +0.195 A 
ATOM     20  O   UNL     1      -2.300 -12.661  -2.253  0.00  0.00    -0.469 OA
ENDBRANCH   1  16
BRANCH   1  21
ATOM     21  C   UNL     1      -0.628  -9.872  -2.239  0.00  0.00    +0.096 C 
BRANCH  21  24
ATOM     22  C   UNL     1      -2.626  -8.478  -2.192  0.00  0.00    +0.218 C 
ATOM     23  O   UNL     1      -2.029  -7.651  -2.848  0.00  0.00    -0.275 OA
ATOM     24  N   UNL     1      -2.014  -9.625  -1.836  0.00  0.00    -0.316 N 
ATOM     25  H   UNL     1      -2.492 -10.287  -1.312  0.00  0.00    +0.149 HD
BRANCH  22  28
ATOM     26  N   UNL     1      -5.954  -7.053  -2.652  0.00  0.00    -0.271 N 
ATOM     27  C   UNL     1      -4.544  -6.855  -2.295  0.00  0.00    +0.127 C 
ATOM     28  C   UNL     1      -4.053  -8.225  -1.778  0.00  0.00    +0.101 C 
ATOM     29  C   UNL     1      -5.019  -9.197  -2.493  0.00  0.00    +0.110 C 
ATOM     30  C   UNL     1      -6.248  -8.360  -2.769  0.00  0.00    +0.221 C 
ATOM     31  O   UNL     1      -7.340  -8.802  -3.057  0.00  0.00    -0.275 OA
BRANCH  26  36
ATOM     32  C   UNL     1      -9.687  -2.849  -3.411  0.00  0.00    +0.044 C 
ATOM     33  C   UNL     1      -8.695  -3.966  -3.209  0.00  0.00    -0.047 A 
ATOM     34  C   UNL     1      -9.065  -5.273  -3.471  0.00  0.00    +0.005 A 
ATOM     35  C   UNL     1      -8.158  -6.298  -3.287  0.00  0.00    +0.024 A 
ATOM     36  C   UNL     1      -6.874  -6.016  -2.839  0.00  0.00    +0.037 A 
ATOM     37  C   UNL     1      -6.506  -4.703  -2.578  0.00  0.00    +0.027 A 
ATOM     38  C   UNL     1      -7.416  -3.682  -2.769  0.00  0.00    -0.046 A 
ATOM     39  C   UNL     1      -7.015  -2.256  -2.491  0.00  0.00    +0.044 C 
ENDBRANCH  26  36
ENDBRANCH  22  28
ENDBRANCH  21  24
ENDBRANCH   1  21
TORSDOF 7
