REMARK  Name = ZINC39528937
REMARK  9 active torsions:
REMARK  status: ('A' for Active; 'I' for Inactive)
REMARK    1  A    between atoms: C_1  and  C_2
REMARK    2  A    between atoms: C_2  and  C_3
REMARK    3  A    between atoms: C_5  and  S_26
REMARK    4  A    between atoms: C_8  and  N_9
REMARK    5  A    between atoms: C_13  and  S_16
REMARK    6  A    between atoms: S_16  and  O_19
REMARK    7  A    between atoms: O_19  and  C_20
REMARK    8  A    between atoms: S_26  and  O_29
REMARK    9  A    between atoms: O_29  and  C_30
REMARK                            x       y       z     vdW  Elec       q    Type
REMARK                         _______ _______ _______ _____ _____    ______ ____
ROOT
ATOM      1  C   UNL     1       0.707  -0.490  -1.238  0.00  0.00    -0.025 A 
ATOM      2  C   UNL     1      -0.021  -0.817  -2.365  0.00  0.00    +0.036 A 
ATOM      3  C   UNL     1       0.625  -1.264  -3.502  0.00  0.00    +0.128 A 
ATOM      4  C   UNL     1       2.003  -1.384  -3.517  0.00  0.00    +0.032 A 
ATOM      5  C   UNL     1       2.737  -1.058  -2.394  0.00  0.00    +0.025 A 
ATOM      6  C   UNL     1       2.092  -0.604  -1.251  0.00  0.00    +0.033 A 
ENDROOT
BRANCH   6   7
ATOM      7  N   UNL     1       2.832  -0.269  -0.115  0.00  0.00    -0.331 N 
ATOM      8  C   UNL     1       3.144  -1.277   0.909  0.00  0.00    +0.086 C 
ATOM      9  C   UNL     1       4.648  -1.228   1.198  0.00  0.00    -0.061 C 
ATOM     10  N   UNL     1       5.032   0.143   1.560  0.00  0.00    +0.398 N 
ATOM     11  C   UNL     1       4.818   1.040   0.417  0.00  0.00    +0.133 C 
ATOM     12  C   UNL     1       3.327   1.101   0.088  0.00  0.00    +0.115 C 
ATOM     13  H   UNL     1       4.470   0.453   2.339  0.00  0.00    -0.083 HD
ATOM     14  H   UNL     1       6.006   0.160   1.822  0.00  0.00    -0.083 HD
BRANCH  11  15
ATOM     15  S   UNL     1       5.417   2.701   0.833  0.00  0.00    +0.109 S 
ATOM     16  O   UNL     1       5.383   3.535  -0.317  0.00  0.00    -0.138 OA
ATOM     17  O   UNL     1       4.846   3.135   2.060  0.00  0.00    -0.138 OA
BRANCH  15  18
ATOM     18  O   UNL     1       6.897   2.519   1.137  0.00  0.00    -0.347 OA
BRANCH  18  19
ATOM     19  C   UNL     1       7.669   2.332   0.034  0.00  0.00    +0.156 A 
ATOM     20  C   UNL     1       7.895   1.051  -0.448  0.00  0.00    +0.048 A 
ATOM     21  C   UNL     1       8.680   0.864  -1.569  0.00  0.00    +0.004 A 
ATOM     22  C   UNL     1       9.240   1.953  -2.211  0.00  0.00    +0.000 A 
ATOM     23  C   UNL     1       9.017   3.231  -1.733  0.00  0.00    +0.004 A 
ATOM     24  C   UNL     1       8.228   3.424  -0.616  0.00  0.00    +0.048 A 
ENDBRANCH  18  19
ENDBRANCH  15  18
ENDBRANCH  11  15
ENDBRANCH   6   7
BRANCH   3  25
ATOM     25  S   UNL     1      -0.309  -1.681  -4.937  0.00  0.00    +0.151 S 
ATOM     26  O   UNL     1       0.484  -2.590  -5.688  0.00  0.00    -0.131 OA
ATOM     27  O   UNL     1      -1.619  -2.002  -4.490  0.00  0.00    -0.131 OA
BRANCH  25  28
ATOM     28  O   UNL     1      -0.433  -0.417  -5.777  0.00  0.00    -0.342 OA
BRANCH  28  29
ATOM     29  C   UNL     1       0.705  -0.079  -6.439  0.00  0.00    +0.157 A 
ATOM     30  C   UNL     1       1.641   0.748  -5.835  0.00  0.00    +0.048 A 
ATOM     31  C   UNL     1       2.796   1.089  -6.510  0.00  0.00    +0.004 A 
ATOM     32  C   UNL     1       3.021   0.608  -7.787  0.00  0.00    +0.000 A 
ATOM     33  C   UNL     1       2.089  -0.216  -8.391  0.00  0.00    +0.004 A 
ATOM     34  C   UNL     1       0.934  -0.566  -7.718  0.00  0.00    +0.048 A 
ENDBRANCH  28  29
ENDBRANCH  25  28
ENDBRANCH   3  25
BRANCH   1  36
ATOM     35  C   UNL     1      -0.019   1.526   0.010  0.00  0.00    +0.009 C 
ATOM     36  C   UNL     1       0.002  -0.004   0.002  0.00  0.00    +0.033 C 
ENDBRANCH   1  36
TORSDOF 8
