REMARK  Name = ZINC12779243
REMARK  5 active torsions:
REMARK  status: ('A' for Active; 'I' for Inactive)
REMARK    1  A    between atoms: C_4  and  O_26
REMARK    2  A    between atoms: C_5  and  N_7
REMARK    3  A    between atoms: C_8  and  C_10
REMARK    4  A    between atoms: C_10  and  C_11
REMARK    5  A    between atoms: C_11  and  N_12
REMARK                            x       y       z     vdW  Elec       q    Type
REMARK                         _______ _______ _______ _____ _____    ______ ____
ROOT
ATOM      1  C   UNL     1      -0.243  -0.955   6.042  0.00  0.00    +0.135 C 
ENDROOT
BRANCH   1   2
ATOM      2  N   UNL     1      -0.350  -0.231   7.311  0.00  0.00    -0.298 N 
ATOM      3  C   UNL     1       0.781   0.108   7.981  0.00  0.00    +0.203 A 
ATOM      4  N   UNL     1       0.728   0.758   9.113  0.00  0.00    -0.230 NA
ATOM      5  C   UNL     1      -0.440   1.100   9.650  0.00  0.00    +0.116 A 
ATOM      6  C   UNL     1      -1.662   0.790   9.034  0.00  0.00    +0.076 A 
ATOM      7  C   UNL     1      -1.568   0.081   7.791  0.00  0.00    +0.262 A 
ATOM      8  O   UNL     1      -2.575  -0.233   7.180  0.00  0.00    -0.267 OA
ATOM      9  C   UNL     1      -2.865   1.229   9.740  0.00  0.00    -0.023 A 
ATOM     10  C   UNL     1      -2.685   1.885  10.906  0.00  0.00    -0.004 A 
ATOM     11  S   UNL     1      -0.928   1.955  11.127  0.00  0.00    -0.073 S 
ATOM     12  C   UNL     1      -3.745   2.434  11.811  0.00  0.00    +0.043 C 
ATOM     13  C   UNL     1      -5.072   2.469  11.038  0.00  0.00    +0.005 C 
ATOM     14  C   UNL     1      -5.272   1.118  10.345  0.00  0.00    +0.005 C 
ATOM     15  C   UNL     1      -4.269   0.967   9.201  0.00  0.00    +0.037 C 
ENDBRANCH   1   2
BRANCH   1  16
ATOM     16  C   UNL     1      -0.166   0.046   4.888  0.00  0.00    +0.118 C 
BRANCH  16  18
ATOM     17  N   UNL     1       0.026  -0.018   2.423  0.00  0.00    -0.283 N 
ATOM     18  C   UNL     1      -0.055  -0.699   3.583  0.00  0.00    +0.219 C 
ATOM     19  O   UNL     1      -0.040  -1.912   3.577  0.00  0.00    -0.275 OA
ATOM     20  H   UNL     1       0.095   0.949   2.432  0.00  0.00    +0.155 HD
BRANCH  17  25
ATOM     21  C   UNL     1      -0.592  -2.638  -0.085  0.00  0.00    +0.002 A 
ATOM     22  C   UNL     1      -0.017  -2.072  -1.208  0.00  0.00    +0.004 A 
ATOM     23  C   UNL     1       0.571  -0.823  -1.133  0.00  0.00    +0.047 A 
ATOM     24  C   UNL     1       0.592  -0.139   0.072  0.00  0.00    +0.138 A 
ATOM     25  C   UNL     1       0.012  -0.708   1.203  0.00  0.00    +0.075 A 
ATOM     26  C   UNL     1      -0.580  -1.960   1.119  0.00  0.00    +0.027 A 
BRANCH  24  27
ATOM     27  O   UNL     1       1.173   1.089   0.148  0.00  0.00    -0.505 OA
ATOM     28  H   UNL     1       2.113   1.065   0.376  0.00  0.00    +0.292 HD
ENDBRANCH  24  27
ENDBRANCH  17  25
ENDBRANCH  16  18
ENDBRANCH   1  16
TORSDOF 5
