REMARK  Name = ZINC39982666
REMARK  4 active torsions:
REMARK  status: ('A' for Active; 'I' for Inactive)
REMARK    1  A    between atoms: C_1  and  C_2
REMARK    2  A    between atoms: C_5  and  C_15
REMARK    3  A    between atoms: C_6  and  C_14
REMARK    4  A    between atoms: N_20  and  C_21
REMARK                            x       y       z     vdW  Elec       q    Type
REMARK                         _______ _______ _______ _____ _____    ______ ____
ROOT
ATOM      1  C   UNL     1      -0.167   1.874   0.444  0.00  0.00    +0.029 C 
ATOM      2  C   UNL     1      -0.209   0.354   0.270  0.00  0.00    +0.083 C 
ATOM      3  C   UNL     1      -1.657  -0.161   0.381  0.00  0.00    +0.061 C 
ATOM      4  C   UNL     1      -1.624  -1.091   1.573  0.00  0.00    -0.003 C 
ATOM      5  C   UNL     1      -0.392  -1.115   2.066  0.00  0.00    +0.016 C 
ATOM      6  N   UNL     1       0.497  -0.310   1.375  0.00  0.00    -0.270 N 
ATOM      7  C   UNL     1       1.839  -0.153   1.676  0.00  0.00    +0.218 A 
ATOM      8  N   UNL     1       2.504  -0.759   2.683  0.00  0.00    -0.247 N 
ATOM      9  H   UNL     1       2.138  -1.383   3.329  0.00  0.00    +0.192 HD
ATOM     10  N   UNL     1       3.832  -0.307   2.607  0.00  0.00    -0.160 NA
ATOM     11  C   UNL     1       3.897   0.517   1.596  0.00  0.00    +0.246 A 
ATOM     12  N   UNL     1       2.695   0.608   1.028  0.00  0.00    -0.201 NA
ATOM     13  C   UNL     1       0.003  -1.941   3.263  0.00  0.00    +0.061 C 
ENDROOT
BRANCH   4  14
ATOM     14  C   UNL     1      -2.776  -1.849   2.103  0.00  0.00    +0.078 A 
ATOM     15  C   UNL     1      -4.027  -1.659   1.583  0.00  0.00    +0.076 A 
ATOM     16  S   UNL     1      -4.979  -2.800   2.578  0.00  0.00    -0.060 S 
ATOM     17  C   UNL     1      -3.628  -3.409   3.578  0.00  0.00    +0.163 A 
ATOM     18  N   UNL     1      -2.608  -2.728   3.089  0.00  0.00    -0.225 NA
ATOM     19  N   UNL     1      -3.646  -4.352   4.594  0.00  0.00    -0.294 N 
ATOM     20  H   UNL     1      -2.842  -4.526   5.107  0.00  0.00    +0.154 HD
BRANCH  19  21
ATOM     21  C   UNL     1      -4.822  -5.051   4.878  0.00  0.00    +0.033 A 
ATOM     22  C   UNL     1      -5.709  -5.365   3.856  0.00  0.00    +0.023 A 
ATOM     23  C   UNL     1      -6.871  -6.056   4.140  0.00  0.00    +0.002 A 
ATOM     24  C   UNL     1      -7.151  -6.435   5.440  0.00  0.00    +0.000 A 
ATOM     25  C   UNL     1      -6.271  -6.124   6.460  0.00  0.00    +0.002 A 
ATOM     26  C   UNL     1      -5.105  -5.438   6.182  0.00  0.00    +0.023 A 
ENDBRANCH  19  21
ENDBRANCH   4  14
TORSDOF 2
