REMARK  Name = ZINC26457799
REMARK  6 active torsions:
REMARK  status: ('A' for Active; 'I' for Inactive)
REMARK    1  A    between atoms: C_1  and  C_2
REMARK    2  A    between atoms: C_2  and  N_9
REMARK    3  A    between atoms: C_10  and  C_12
REMARK    4  A    between atoms: C_12  and  N_13
REMARK    5  A    between atoms: C_17  and  C_19
REMARK    6  A    between atoms: N_21  and  C_22
REMARK                            x       y       z     vdW  Elec       q    Type
REMARK                         _______ _______ _______ _____ _____    ______ ____
ROOT
ATOM      1  N   UNL     1       2.421   1.020  -0.018  0.00  0.00    +0.393 N 
ATOM      2  C   UNL     1       2.519   0.316  -1.310  0.00  0.00    -0.077 C 
ATOM      3  C   UNL     1       3.931   0.585  -1.871  0.00  0.00    -0.020 C 
ATOM      4  C   UNL     1       4.746   0.954  -0.604  0.00  0.00    -0.008 C 
ATOM      5  C   UNL     1       3.695   1.727   0.231  0.00  0.00    +0.020 C 
ATOM      6  H   UNL     1       2.235   0.292   0.786  0.00  0.00    -0.080 HD
ENDROOT
BRANCH   5   7
ATOM      7  C   UNL     1       4.047   1.675   1.695  0.00  0.00    +0.204 C 
ATOM      8  O   UNL     1       3.314   1.105   2.475  0.00  0.00    -0.277 OA
ATOM      9  N   UNL     1       5.176   2.263   2.138  0.00  0.00    -0.286 N 
ATOM     10  H   UNL     1       5.878   2.716   1.422  0.00  0.00    +0.155 HD
BRANCH   9  11
ATOM     11  C   UNL     1       5.456   2.296   3.510  0.00  0.00    +0.052 A 
ATOM     12  C   UNL     1       5.084   1.234   4.322  0.00  0.00    +0.026 A 
ATOM     13  C   UNL     1       5.367   1.267   5.673  0.00  0.00    +0.022 A 
ATOM     14  C   UNL     1       6.010   2.363   6.221  0.00  0.00    +0.042 A 
ATOM     15  C   UNL     1       6.377   3.426   5.416  0.00  0.00    +0.041 A 
ATOM     16  C   UNL     1       6.102   3.396   4.061  0.00  0.00    +0.064 A 
ATOM     17 CL   UNL     1       6.562   4.731   3.051  0.00  0.00    -0.082 Cl
ATOM     18 CL   UNL     1       6.357   2.404   7.921  0.00  0.00    -0.083 Cl
ENDBRANCH   9  11
ENDBRANCH   5   7
BRANCH   1  19
ATOM     19  C   UNL     1       1.289   1.956  -0.013  0.00  0.00    +0.020 C 
BRANCH  19  21
ATOM     20  N   UNL     1      -1.181   1.837  -0.004  0.00  0.00    -0.310 N 
ATOM     21  C   UNL     1      -0.004   1.182  -0.004  0.00  0.00    +0.197 C 
ATOM     22  O   UNL     1       0.016  -0.030  -0.003  0.00  0.00    -0.278 OA
ATOM     23  H   UNL     1      -1.199   2.937  -0.005  0.00  0.00    +0.149 HD
BRANCH  20  25
ATOM     24  C   UNL     1      -2.506   0.249   1.278  0.00  0.00    +0.033 C 
ATOM     25  C   UNL     1      -2.438   1.085  -0.002  0.00  0.00    +0.052 C 
ATOM     26  C   UNL     1      -2.444   0.138  -1.201  0.00  0.00    +0.049 C 
ATOM     27  C   UNL     1      -3.902  -0.135  -1.665  0.00  0.00    +0.168 C 
ATOM     28  S   UNL     1      -4.614   1.556  -1.454  0.00  0.00    -0.029 S 
ATOM     29  O   UNL     1      -5.976   1.444  -1.066  0.00  0.00    -0.174 OA
ATOM     30  O   UNL     1      -4.266   2.354  -2.576  0.00  0.00    -0.174 OA
ATOM     31  C   UNL     1      -3.612   2.083  -0.002  0.00  0.00    +0.191 C 
ENDBRANCH  20  25
ENDBRANCH  19  21
ENDBRANCH   1  19
TORSDOF 5
