REMARK  Name = ZINC09634647
REMARK  6 active torsions:
REMARK  status: ('A' for Active; 'I' for Inactive)
REMARK    1  A    between atoms: C_4  and  N_7
REMARK    2  A    between atoms: C_9  and  C_21
REMARK    3  A    between atoms: C_10  and  C_12
REMARK    4  A    between atoms: N_22  and  N_23
REMARK    5  A    between atoms: C_24  and  C_26
REMARK    6  A    between atoms: C_26  and  C_27
REMARK                            x       y       z     vdW  Elec       q    Type
REMARK                         _______ _______ _______ _____ _____    ______ ____
ROOT
ATOM      1  N   UNL     1       0.619   3.573   0.015  0.00  0.00    -0.239 N 
ATOM      2  C   UNL     1       1.067   2.301   0.004  0.00  0.00    +0.124 A 
ATOM      3  C   UNL     1      -0.018   1.469   0.010  0.00  0.00    +0.043 A 
ATOM      4  C   UNL     1      -1.206   2.329   0.020  0.00  0.00    +0.137 A 
ATOM      5  N   UNL     1      -0.779   3.576   0.029  0.00  0.00    -0.163 NA
ENDROOT
BRANCH   4   6
ATOM      6  C   UNL     1      -2.613   1.883   0.023  0.00  0.00    +0.157 A 
ATOM      7  C   UNL     1      -3.628   2.510   0.667  0.00  0.00    +0.060 A 
ATOM      8  C   UNL     1      -4.831   1.722   0.393  0.00  0.00    +0.021 A 
ATOM      9  C   UNL     1      -6.173   1.835   0.760  0.00  0.00    +0.011 A 
ATOM     10  C   UNL     1      -7.075   0.904   0.324  0.00  0.00    +0.001 A 
ATOM     11  C   UNL     1      -6.664  -0.151  -0.478  0.00  0.00    +0.004 A 
ATOM     12  C   UNL     1      -5.343  -0.279  -0.851  0.00  0.00    +0.047 A 
ATOM     13  C   UNL     1      -4.409   0.655  -0.420  0.00  0.00    +0.136 A 
ATOM     14  O   UNL     1      -3.082   0.795  -0.618  0.00  0.00    -0.453 OA
ENDBRANCH   4   6
BRANCH   1  18
ATOM     15  C   UNL     1       3.031   6.972   0.012  0.00  0.00    +0.000 A 
ATOM     16  C   UNL     1       1.654   7.103   0.025  0.00  0.00    +0.002 A 
ATOM     17  C   UNL     1       0.852   5.979   0.026  0.00  0.00    +0.028 A 
ATOM     18  C   UNL     1       1.430   4.716   0.014  0.00  0.00    +0.065 A 
ATOM     19  C   UNL     1       2.813   4.588   0.006  0.00  0.00    +0.028 A 
ATOM     20  C   UNL     1       3.609   5.716   0.000  0.00  0.00    +0.002 A 
ENDBRANCH   1  18
BRANCH   3  21
ATOM     21  C   UNL     1       0.002  -0.004   0.002  0.00  0.00    +0.142 C 
ATOM     22  N   UNL     1      -1.113  -0.668   0.009  0.00  0.00    -0.188 NA
BRANCH  22  23
ATOM     23  N   UNL     1      -1.094  -2.069   0.001  0.00  0.00    -0.207 N 
ATOM     24  C   UNL     1      -2.252  -2.759   0.008  0.00  0.00    +0.238 C 
ATOM     25  O   UNL     1      -3.311  -2.167   0.021  0.00  0.00    -0.274 OA
ATOM     26  H   UNL     1      -0.248  -2.543  -0.009  0.00  0.00    +0.177 HD
BRANCH  24  27
ATOM     27  C   UNL     1      -2.232  -4.266  -0.001  0.00  0.00    +0.154 C 
BRANCH  27  28
ATOM     28  C   UNL     1      -3.646  -4.787   0.010  0.00  0.00    +0.069 A 
ATOM     29  C   UNL     1      -4.176  -5.637  -0.886  0.00  0.00    +0.117 A 
ATOM     30  N   UNL     1      -5.499  -5.869  -0.518  0.00  0.00    -0.300 N 
ATOM     31  C   UNL     1      -6.577  -6.601  -0.964  0.00  0.00    +0.100 A 
ATOM     32  C   UNL     1      -7.742  -6.562  -0.319  0.00  0.00    +0.067 A 
ATOM     33  S   UNL     1      -7.383  -5.440   1.024  0.00  0.00    -0.058 S 
ATOM     34  C   UNL     1      -5.686  -5.111   0.608  0.00  0.00    +0.178 A 
ATOM     35  N   UNL     1      -4.590  -4.478   0.911  0.00  0.00    -0.226 NA
ENDBRANCH  27  28
ENDBRANCH  24  27
ENDBRANCH  22  23
ENDBRANCH   3  21
TORSDOF 6
