REMARK  Name = ZINC08299736
REMARK  5 active torsions:
REMARK  status: ('A' for Active; 'I' for Inactive)
REMARK    1  A    between atoms: C_7  and  C_9
REMARK    2  A    between atoms: C_17  and  C_19
REMARK    3  A    between atoms: C_19  and  N_20
REMARK    4  A    between atoms: C_22  and  C_25
REMARK    5  A    between atoms: C_25  and  O_30
REMARK                            x       y       z     vdW  Elec       q    Type
REMARK                         _______ _______ _______ _____ _____    ______ ____
ROOT
ATOM      1  C   UNL     1      -0.730   1.580   1.267  0.00  0.00    +0.062 C 
ATOM      2  C   UNL     1      -0.013   1.086   0.008  0.00  0.00    -0.065 C 
ATOM      3  C   UNL     1      -2.095   1.045  -1.230  0.00  0.00    -0.078 C 
ATOM      4  C   UNL     1      -2.872   1.538  -0.006  0.00  0.00    -0.015 C 
ATOM      5  C   UNL     1      -1.947   2.415   0.848  0.00  0.00    -0.004 C 
ATOM      6  C   UNL     1      -1.462   3.591  -0.008  0.00  0.00    -0.010 C 
ATOM      7  C   UNL     1      -0.724   3.041  -1.232  0.00  0.00    -0.046 C 
ATOM      8  N   UNL     1      -0.710   1.563  -1.205  0.00  0.00    +0.383 N 
ATOM      9  H   UNL     1      -0.210   1.220  -2.034  0.00  0.00    -0.081 HD
ENDROOT
BRANCH   1  16
ATOM     10  C   UNL     1      -0.543  -3.506   4.541  0.00  0.00    +0.120 A 
ATOM     11  C   UNL     1      -1.890  -3.496   4.691  0.00  0.00    +0.068 A 
ATOM     12  S   UNL     1      -2.313  -2.013   3.788  0.00  0.00    -0.061 S 
ATOM     13  C   UNL     1      -0.703  -1.574   3.308  0.00  0.00    +0.164 A 
ATOM     14  N   UNL     1       0.020  -2.537   3.847  0.00  0.00    -0.233 NA
ATOM     15  N   UNL     1      -0.283  -0.485   2.553  0.00  0.00    -0.265 N 
ATOM     16  C   UNL     1      -1.186   0.399   2.085  0.00  0.00    +0.220 C 
ATOM     17  O   UNL     1      -2.365   0.245   2.323  0.00  0.00    -0.275 OA
ATOM     18  H   UNL     1       0.661  -0.361   2.363  0.00  0.00    +0.157 HD
ENDBRANCH   1  16
BRANCH   7  19
ATOM     19  C   UNL     1      -1.431   3.508  -2.507  0.00  0.00    +0.130 C 
BRANCH  19  20
ATOM     20  N   UNL     1      -0.660   3.080  -3.677  0.00  0.00    -0.253 N 
ATOM     21  C   UNL     1      -1.131   2.344  -4.710  0.00  0.00    +0.136 A 
ATOM     22  C   UNL     1      -0.092   2.183  -5.563  0.00  0.00    +0.114 A 
ATOM     23  N   UNL     1       0.951   2.814  -5.013  0.00  0.00    -0.132 NA
ATOM     24  N   UNL     1       0.582   3.335  -3.897  0.00  0.00    -0.065 NA
BRANCH  22  25
ATOM     25  C   UNL     1      -0.107   1.436  -6.871  0.00  0.00    +0.111 C 
ATOM     26  C   UNL     1      -0.440  -0.051  -6.627  0.00  0.00    +0.041 C 
ATOM     27  C   UNL     1       0.444  -0.810  -7.649  0.00  0.00    +0.003 C 
ATOM     28  C   UNL     1       1.758   0.010  -7.641  0.00  0.00    +0.003 C 
ATOM     29  C   UNL     1       1.289   1.475  -7.516  0.00  0.00    +0.041 C 
BRANCH  25  30
ATOM     30  O   UNL     1      -1.071   2.014  -7.754  0.00  0.00    -0.382 OA
ATOM     31  H   UNL     1      -1.974   2.009  -7.408  0.00  0.00    +0.211 HD
ENDBRANCH  25  30
ENDBRANCH  22  25
ENDBRANCH  19  20
ENDBRANCH   7  19
TORSDOF 5
