REMARK  Name = ZINC15515527
REMARK  11 active torsions:
REMARK  status: ('A' for Active; 'I' for Inactive)
REMARK    1  A    between atoms: C_1  and  N_63
REMARK    2  A    between atoms: C_2  and  C_3
REMARK    3  A    between atoms: C_2  and  N_63
REMARK    4  A    between atoms: C_12  and  C_13
REMARK    5  A    between atoms: C_12  and  N_63
REMARK    6  A    between atoms: N_15  and  C_16
REMARK    7  A    between atoms: C_16  and  C_17
REMARK    8  A    between atoms: C_17  and  C_19
REMARK    9  A    between atoms: C_17  and  C_27
REMARK   10  A    between atoms: C_22  and  O_25
REMARK   11  A    between atoms: O_25  and  C_26
REMARK                            x       y       z     vdW  Elec       q    Type
REMARK                         _______ _______ _______ _____ _____    ______ ____
ROOT
ATOM      1  C   UNL     1      -3.128  -1.452   1.273  0.00  0.00    +0.117 C 
ENDROOT
BRANCH   1   4
ATOM      2  C   UNL     1      -3.015  -1.167   3.691  0.00  0.00    +0.196 C 
ATOM      3  O   UNL     1      -3.792  -2.091   3.807  0.00  0.00    -0.278 OA
ATOM      4  N   UNL     1      -2.619  -0.769   2.466  0.00  0.00    -0.316 N 
ATOM      5  H   UNL     1      -1.998  -0.030   2.373  0.00  0.00    +0.149 HD
BRANCH   2   6
ATOM      6  C   UNL     1      -2.491  -0.464   4.917  0.00  0.00    +0.019 C 
BRANCH   6   8
ATOM      7  C   UNL     1      -2.597  -2.463   6.279  0.00  0.00    -0.095 C 
ATOM      8  N   UNL     1      -3.097  -1.082   6.115  0.00  0.00    +0.388 N 
ATOM      9  H   UNL     1      -4.117  -1.109   5.998  0.00  0.00    -0.081 HD
BRANCH   8  10
ATOM     10  C   UNL     1      -2.773  -0.282   7.315  0.00  0.00    -0.015 C 
BRANCH  10  11
ATOM     11  C   UNL     1      -3.577  -0.802   8.478  0.00  0.00    +0.063 A 
ATOM     12  N   UNL     1      -3.248  -1.721   9.342  0.00  0.00    -0.246 NA
ATOM     13  C   UNL     1      -4.066  -2.098  10.347  0.00  0.00    +0.078 A 
ATOM     14  C   UNL     1      -3.853  -3.068  11.351  0.00  0.00    +0.029 A 
ATOM     15  C   UNL     1      -4.806  -3.314  12.292  0.00  0.00    +0.002 A 
ATOM     16  C   UNL     1      -6.013  -2.628  12.302  0.00  0.00    +0.001 A 
ATOM     17  C   UNL     1      -6.258  -1.671  11.336  0.00  0.00    +0.017 A 
ATOM     18  C   UNL     1      -5.303  -1.415  10.382  0.00  0.00    +0.039 A 
ATOM     19  S   UNL     1      -5.162  -0.317   8.995  0.00  0.00    -0.074 S 
ENDBRANCH  10  11
ENDBRANCH   8  10
ENDBRANCH   6   8
ENDBRANCH   2   6
ENDBRANCH   1   4
BRANCH   1  20
ATOM     20  C   UNL     1      -2.527  -0.809   0.022  0.00  0.00    +0.068 C 
BRANCH  20  21
ATOM     21  C   UNL     1      -1.037  -1.037   0.006  0.00  0.00    -0.013 A 
ATOM     22  C   UNL     1      -0.411  -2.224  -0.006  0.00  0.00    +0.088 A 
ATOM     23  N   UNL     1       0.945  -2.036  -0.018  0.00  0.00    -0.360 N 
ATOM     24  H   UNL     1       1.605  -2.746  -0.028  0.00  0.00    +0.165 HD
ATOM     25  C   UNL     1       1.231  -0.689  -0.013  0.00  0.00    +0.047 A 
ATOM     26  C   UNL     1       0.002  -0.004   0.002  0.00  0.00    +0.003 A 
ATOM     27  C   UNL     1      -0.017   1.392   0.010  0.00  0.00    +0.010 A 
ATOM     28  C   UNL     1       1.160   2.086   0.002  0.00  0.00    +0.001 A 
ATOM     29  C   UNL     1       2.375   1.415  -0.013  0.00  0.00    +0.002 A 
ATOM     30  C   UNL     1       2.417   0.038  -0.021  0.00  0.00    +0.026 A 
ENDBRANCH  20  21
BRANCH  20  31
ATOM     31  C   UNL     1      -3.142  -1.429  -1.206  0.00  0.00    -0.038 A 
ATOM     32  C   UNL     1      -3.009  -2.786  -1.435  0.00  0.00    +0.008 A 
ATOM     33  C   UNL     1      -3.577  -3.357  -2.557  0.00  0.00    +0.046 A 
ATOM     34  C   UNL     1      -4.272  -2.567  -3.461  0.00  0.00    +0.120 A 
ATOM     35  C   UNL     1      -4.400  -1.204  -3.231  0.00  0.00    +0.046 A 
ATOM     36  C   UNL     1      -3.835  -0.639  -2.105  0.00  0.00    +0.008 A 
BRANCH  34  37
ATOM     37  O   UNL     1      -4.826  -3.125  -4.569  0.00  0.00    -0.495 OA
ATOM     38  C   UNL     1      -4.655  -4.534  -4.740  0.00  0.00    +0.277 C 
ENDBRANCH  34  37
ENDBRANCH  20  31
ENDBRANCH   1  20
TORSDOF 9
