REMARK  Name = ZINC50815707
REMARK  5 active torsions:
REMARK  status: ('A' for Active; 'I' for Inactive)
REMARK    1  A    between atoms: C_1  and  N_2
REMARK    2  A    between atoms: N_2  and  C_3
REMARK    3  A    between atoms: N_2  and  C_10
REMARK    4  A    between atoms: C_3  and  C_4
REMARK    5  A    between atoms: C_10  and  C_11
REMARK                            x       y       z     vdW  Elec       q    Type
REMARK                         _______ _______ _______ _____ _____    ______ ____
ROOT
ATOM      1  C   UNL     1      -0.059  -0.109   2.429  0.00  0.00    +0.116 A 
ATOM      2  N   UNL     1       0.189   1.049   3.014  0.00  0.00    -0.219 NA
ATOM      3  C   UNL     1      -0.454   1.441   4.101  0.00  0.00    +0.128 A 
ATOM      4  C   UNL     1      -1.447   0.592   4.664  0.00  0.00    +0.047 A 
ATOM      5  C   UNL     1      -2.282   0.789   5.836  0.00  0.00    +0.021 A 
ATOM      6  C   UNL     1      -3.161  -0.163   6.181  0.00  0.00    +0.048 A 
ATOM      7  S   UNL     1      -2.928  -1.416   4.935  0.00  0.00    -0.077 S 
ATOM      8  C   UNL     1      -1.656  -0.627   3.984  0.00  0.00    +0.113 A 
ATOM      9  N   UNL     1      -0.972  -0.937   2.901  0.00  0.00    -0.227 NA
ATOM     10  N   UNL     1      -0.165   2.662   4.684  0.00  0.00    -0.343 N 
ATOM     11  H   UNL     1       0.514   3.236   4.296  0.00  0.00    +0.144 HD
ATOM     12  H   UNL     1      -0.640   2.943   5.482  0.00  0.00    +0.144 HD
ENDROOT
BRANCH   1  13
ATOM     13  C   UNL     1       0.713  -0.491   1.192  0.00  0.00    -0.001 C 
BRANCH  13  15
ATOM     14  C   UNL     1      -0.018   1.465   0.010  0.00  0.00    -0.095 C 
ATOM     15  N   UNL     1       0.002  -0.004   0.002  0.00  0.00    +0.386 N 
ATOM     16  H   UNL     1      -0.945  -0.353   0.009  0.00  0.00    -0.081 HD
BRANCH  15  17
ATOM     17  C   UNL     1       0.690  -0.478  -1.207  0.00  0.00    -0.035 C 
BRANCH  17  18
ATOM     18  C   UNL     1      -0.106  -0.083  -2.424  0.00  0.00    -0.026 A 
ATOM     19  C   UNL     1      -0.021   1.045  -3.170  0.00  0.00    +0.024 A 
ATOM     20  C   UNL     1      -0.862   1.195  -4.258  0.00  0.00    +0.025 A 
ATOM     21  C   UNL     1      -1.746   0.208  -4.545  0.00  0.00    +0.060 A 
ATOM     22  S   UNL     1      -1.399  -0.984  -3.263  0.00  0.00    -0.102 S 
ATOM     23 BR   UNL     1      -0.780   2.752  -5.327  0.00  0.00    -0.050 Br
ENDBRANCH  17  18
ENDBRANCH  15  17
ENDBRANCH  13  15
ENDBRANCH   1  13
TORSDOF 4
