REMARK  Name = ZINC63786705
REMARK  12 active torsions:
REMARK  status: ('A' for Active; 'I' for Inactive)
REMARK    1  A    between atoms: C_1  and  C_2
REMARK    2  A    between atoms: C_2  and  C_27
REMARK    3  A    between atoms: C_4  and  N_10
REMARK    4  A    between atoms: C_6  and  C_8
REMARK    5  A    between atoms: C_6  and  C_9
REMARK    6  A    between atoms: N_13  and  C_14
REMARK    7  A    between atoms: N_13  and  C_18
REMARK    8  A    between atoms: C_14  and  C_15
REMARK    9  A    between atoms: C_15  and  O_16
REMARK   10  A    between atoms: O_16  and  C_17
REMARK   11  A    between atoms: C_18  and  C_19
REMARK   12  A    between atoms: C_22  and  C_25
REMARK                            x       y       z     vdW  Elec       q    Type
REMARK                         _______ _______ _______ _____ _____    ______ ____
ROOT
ATOM      1  N   UNL     1      -3.540  -0.922   1.007  0.00  0.00    -0.296 N 
ATOM      2  C   UNL     1      -4.546  -0.473   1.784  0.00  0.00    +0.303 C 
ATOM      3  O   UNL     1      -4.333   0.386   2.617  0.00  0.00    -0.253 OA
ATOM      4  N   UNL     1      -5.787  -0.978   1.638  0.00  0.00    -0.279 N 
ATOM      5  H   UNL     1      -3.710  -1.608   0.342  0.00  0.00    +0.151 HD
ENDROOT
BRANCH   1   9
ATOM      6  C   UNL     1      -0.019   1.528   0.010  0.00  0.00    -0.010 C 
ATOM      7  C   UNL     1       0.002  -0.004   0.002  0.00  0.00    -0.072 C 
ATOM      8  C   UNL     1      -1.419  -0.538  -0.145  0.00  0.00    +0.009 C 
ATOM      9  C   UNL     1      -2.188  -0.373   1.166  0.00  0.00    +0.072 C 
ATOM     10  C   UNL     1      -1.451  -1.155   2.253  0.00  0.00    +0.009 C 
ATOM     11  C   UNL     1      -0.030  -0.627   2.418  0.00  0.00    -0.072 C 
ATOM     12  N   UNL     1       0.697  -0.529   1.164  0.00  0.00    +0.386 N 
ATOM     13  C   UNL     1       0.730  -1.621   3.326  0.00  0.00    -0.010 C 
ATOM     14  C   UNL     1      -0.059   0.719   3.151  0.00  0.00    -0.010 C 
ATOM     15  C   UNL     1       0.791  -0.440  -1.254  0.00  0.00    -0.010 C 
ATOM     16  H   UNL     1       1.056  -1.460   0.929  0.00  0.00    -0.084 HD
ATOM     17  H   UNL     1       1.534   0.040   1.322  0.00  0.00    -0.084 HD
ENDBRANCH   1   9
BRANCH   4  18
ATOM     18  C   UNL     1      -6.043  -2.013   0.634  0.00  0.00    +0.137 C 
BRANCH  18  19
ATOM     19  C   UNL     1      -5.833  -3.393   1.260  0.00  0.00    +0.178 C 
BRANCH  19  20
ATOM     20  O   UNL     1      -6.810  -3.607   2.281  0.00  0.00    -0.381 OA
ATOM     21  C   UNL     1      -6.702  -4.874   2.933  0.00  0.00    +0.194 C 
ENDBRANCH  19  20
ENDBRANCH  18  19
ENDBRANCH   4  18
BRANCH   4  22
ATOM     22  C   UNL     1      -6.880  -0.490   2.483  0.00  0.00    +0.144 C 
BRANCH  22  23
ATOM     23  C   UNL     1      -7.549   0.682   1.812  0.00  0.00    -0.030 A 
ATOM     24  C   UNL     1      -7.092   1.966   2.051  0.00  0.00    +0.006 A 
ATOM     25  C   UNL     1      -7.700   3.043   1.440  0.00  0.00    +0.019 A 
ATOM     26  C   UNL     1      -8.779   2.835   0.578  0.00  0.00    +0.052 A 
ATOM     27  C   UNL     1      -9.235   1.536   0.341  0.00  0.00    +0.019 A 
ATOM     28  C   UNL     1      -8.615   0.468   0.955  0.00  0.00    +0.006 A 
BRANCH  26  29
ATOM     29  C   UNL     1      -9.416   3.948  -0.059  0.00  0.00    +0.099 C 
ATOM     30  N   UNL     1      -9.920   4.831  -0.565  0.00  0.00    -0.191 NA
ENDBRANCH  26  29
ENDBRANCH  22  23
ENDBRANCH   4  22
TORSDOF 7
