REMARK  Name = ZINC34897006
REMARK  8 active torsions:
REMARK  status: ('A' for Active; 'I' for Inactive)
REMARK    1  A    between atoms: C_9  and  C_11
REMARK    2  A    between atoms: C_11  and  C_12
REMARK    3  A    between atoms: C_12  and  N_13
REMARK    4  A    between atoms: C_14  and  C_16
REMARK    5  A    between atoms: C_16  and  N_25
REMARK    6  A    between atoms: C_17  and  C_18
REMARK    7  A    between atoms: C_26  and  C_28
REMARK    8  A    between atoms: C_29  and  C_30
REMARK                            x       y       z     vdW  Elec       q    Type
REMARK                         _______ _______ _______ _____ _____    ______ ____
ROOT
ATOM      1  C   UNL     1       7.351  -5.909  -2.389  0.00  0.00    +0.097 C 
ATOM      2  C   UNL     1       7.342  -6.877  -1.444  0.00  0.00    +0.036 C 
ENDROOT
BRANCH   2   3
ATOM      3  C   UNL     1       6.307  -6.875  -0.399  0.00  0.00    -0.023 A 
ATOM      4  C   UNL     1       5.038  -6.351  -0.667  0.00  0.00    +0.009 A 
ATOM      5  C   UNL     1       4.074  -6.353   0.318  0.00  0.00    +0.016 A 
ATOM      6  C   UNL     1       4.358  -6.873   1.570  0.00  0.00    +0.018 A 
ATOM      7  C   UNL     1       5.613  -7.394   1.843  0.00  0.00    +0.016 A 
ATOM      8  C   UNL     1       6.586  -7.404   0.866  0.00  0.00    +0.009 A 
ATOM      9 BR   UNL     1       3.028  -6.872   2.914  0.00  0.00    -0.050 Br
ENDBRANCH   2   3
BRANCH   1  11
ATOM     10  N   UNL     1       6.575  -3.874  -1.285  0.00  0.00    -0.310 N 
ATOM     11  C   UNL     1       6.428  -4.769  -2.282  0.00  0.00    +0.258 C 
ATOM     12  O   UNL     1       5.532  -4.633  -3.094  0.00  0.00    -0.269 OA
ATOM     13  H   UNL     1       7.332  -3.940  -0.682  0.00  0.00    +0.149 HD
BRANCH  10  14
ATOM     14  C   UNL     1       5.593  -2.801  -1.113  0.00  0.00    +0.112 C 
BRANCH  14  15
ATOM     15  C   UNL     1       6.055  -1.861   0.002  0.00  0.00    +0.093 C 
BRANCH  15  24
ATOM     16  C   UNL     1       2.197   2.660   0.991  0.00  0.00    +0.002 A 
ATOM     17  C   UNL     1       2.423   2.905  -0.357  0.00  0.00    +0.002 A 
ATOM     18  C   UNL     1       3.270   2.111  -1.076  0.00  0.00    +0.030 A 
ATOM     19  C   UNL     1       3.918   1.040  -0.454  0.00  0.00    +0.089 A 
ATOM     20  C   UNL     1       3.689   0.792   0.910  0.00  0.00    +0.066 A 
ATOM     21  C   UNL     1       2.824   1.610   1.625  0.00  0.00    +0.028 A 
ATOM     22  N   UNL     1       4.455  -0.310   1.231  0.00  0.00    -0.342 N 
ATOM     23  H   UNL     1       4.517  -0.734   2.101  0.00  0.00    +0.167 HD
ATOM     24  C   UNL     1       5.107  -0.693   0.100  0.00  0.00    +0.110 A 
ATOM     25  N   UNL     1       4.793   0.096  -0.886  0.00  0.00    -0.232 NA
ENDBRANCH  15  24
ENDBRANCH  14  15
ENDBRANCH  10  14
ENDBRANCH   1  11
BRANCH   1  26
ATOM     26  N   UNL     1       8.237  -5.991  -3.467  0.00  0.00    -0.278 N 
ATOM     27  C   UNL     1       8.326  -4.974  -4.346  0.00  0.00    +0.241 C 
ATOM     28  O   UNL     1       7.701  -3.946  -4.153  0.00  0.00    -0.270 OA
ATOM     29  H   UNL     1       8.788  -6.781  -3.582  0.00  0.00    +0.155 HD
BRANCH  27  30
ATOM     30  C   UNL     1       9.144  -5.099  -5.493  0.00  0.00    +0.071 C 
ATOM     31  C   UNL     1       9.234  -4.075  -6.378  0.00  0.00    +0.051 C 
BRANCH  31  32
ATOM     32  C   UNL     1      10.053  -4.201  -7.526  0.00  0.00    +0.128 A 
ATOM     33  C   UNL     1      10.240  -3.242  -8.501  0.00  0.00    +0.049 A 
ATOM     34  C   UNL     1      11.125  -3.795  -9.440  0.00  0.00    +0.042 A 
ATOM     35  C   UNL     1      11.436  -5.038  -9.012  0.00  0.00    +0.195 A 
ATOM     36  O   UNL     1      10.795  -5.278  -7.860  0.00  0.00    -0.464 OA
ENDBRANCH  31  32
ENDBRANCH  27  30
ENDBRANCH   1  26
TORSDOF 8
