REMARK  Name = ZINC40569441
REMARK  8 active torsions:
REMARK  status: ('A' for Active; 'I' for Inactive)
REMARK    1  A    between atoms: C_1  and  C_2
REMARK    2  A    between atoms: C_2  and  C_3
REMARK    3  A    between atoms: C_3  and  C_4
REMARK    4  A    between atoms: N_10  and  C_11
REMARK    5  A    between atoms: C_11  and  C_12
REMARK    6  A    between atoms: C_13  and  C_21
REMARK    7  A    between atoms: C_15  and  C_19
REMARK    8  A    between atoms: C_16  and  N_18
REMARK                            x       y       z     vdW  Elec       q    Type
REMARK                         _______ _______ _______ _____ _____    ______ ____
ROOT
ATOM      1  C   UNL     1       0.591  -1.989  -1.273  0.00  0.00    +0.025 A 
ATOM      2  C   UNL     1      -0.371  -2.557  -2.032  0.00  0.00    +0.068 A 
ATOM      3  C   UNL     1      -0.402  -3.958  -2.190  0.00  0.00    +0.141 A 
ATOM      4  C   UNL     1       0.558  -4.723  -1.561  0.00  0.00    +0.072 A 
ATOM      5  C   UNL     1       1.537  -4.089  -0.784  0.00  0.00    +0.259 A 
ATOM      6  O   UNL     1       2.393  -4.753  -0.222  0.00  0.00    -0.267 OA
ATOM      7  N   UNL     1       1.537  -2.749  -0.661  0.00  0.00    -0.312 N 
ATOM      8  C   UNL     1       0.562  -6.220  -1.701  0.00  0.00    +0.103 C 
ATOM      9  C   UNL     1      -0.298  -6.633  -2.863  0.00  0.00    +0.098 C 
ATOM     10  C   UNL     1      -1.195  -5.780  -3.412  0.00  0.00    +0.199 C 
ATOM     11  O   UNL     1      -1.362  -4.529  -2.948  0.00  0.00    -0.441 OA
ENDROOT
BRANCH   8  12
ATOM     12  C   UNL     1       0.023  -6.841  -0.439  0.00  0.00    -0.031 A 
ATOM     13  C   UNL     1      -1.263  -6.550  -0.021  0.00  0.00    +0.008 A 
ATOM     14  C   UNL     1      -1.762  -7.118   1.136  0.00  0.00    +0.050 A 
ATOM     15  C   UNL     1      -0.974  -7.980   1.881  0.00  0.00    +0.166 A 
ATOM     16  C   UNL     1       0.321  -8.273   1.461  0.00  0.00    +0.167 A 
ATOM     17  C   UNL     1       0.812  -7.705   0.297  0.00  0.00    +0.054 A 
ATOM     18  O   UNL     1       0.884  -9.137   2.355  0.00  0.00    -0.453 OA
ATOM     19  C   UNL     1       0.071  -9.050   3.539  0.00  0.00    +0.466 C 
ATOM     20  O   UNL     1      -1.222  -8.660   3.039  0.00  0.00    -0.453 OA
ENDBRANCH   8  12
BRANCH  10  21
ATOM     21  N   UNL     1      -1.957  -6.205  -4.471  0.00  0.00    -0.328 N 
ATOM     22  H   UNL     1      -1.849  -7.105  -4.816  0.00  0.00    +0.145 HD
ATOM     23  H   UNL     1      -2.604  -5.606  -4.875  0.00  0.00    +0.145 HD
ENDBRANCH  10  21
BRANCH   7  24
ATOM     24  C   UNL     1       2.570  -2.099   0.149  0.00  0.00    +0.122 C 
ATOM     25  C   UNL     1       2.093  -2.002   1.600  0.00  0.00    +0.027 C 
ENDBRANCH   7  24
BRANCH   9  26
ATOM     26  C   UNL     1      -0.165  -7.954  -3.401  0.00  0.00    +0.101 C 
ATOM     27  N   UNL     1      -0.060  -9.002  -3.827  0.00  0.00    -0.191 NA
ENDBRANCH   9  26
BRANCH   1  28
ATOM     28  C   UNL     1       0.619  -0.491  -1.108  0.00  0.00    +0.053 C 
BRANCH  28  30
ATOM     29  C   UNL     1       1.457   1.650  -2.084  0.00  0.00    +0.004 C 
ATOM     30  C   UNL     1       1.510   0.125  -2.188  0.00  0.00    +0.003 C 
ENDBRANCH  28  30
ENDBRANCH   1  28
TORSDOF 6
