REMARK  Name = ZINC06641631
REMARK  7 active torsions:
REMARK  status: ('A' for Active; 'I' for Inactive)
REMARK    1  A    between atoms: C_1  and  O_2
REMARK    2  A    between atoms: O_2  and  C_3
REMARK    3  A    between atoms: C_5  and  C_10
REMARK    4  A    between atoms: C_8  and  O_9
REMARK    5  A    between atoms: C_18  and  O_30
REMARK    6  A    between atoms: C_21  and  C_22
REMARK    7  A    between atoms: C_21  and  N_63
REMARK                            x       y       z     vdW  Elec       q    Type
REMARK                         _______ _______ _______ _____ _____    ______ ____
ROOT
ATOM      1  C   UNL     1       5.334   3.348   0.082  0.00  0.00    -0.031 C 
ATOM      2  C   UNL     1       5.187   4.854  -0.150  0.00  0.00    +0.011 C 
ATOM      3  C   UNL     1       4.275   5.090  -1.356  0.00  0.00    +0.005 C 
ATOM      4  C   UNL     1       4.143   6.591  -1.615  0.00  0.00    +0.000 C 
ATOM      5  C   UNL     1       5.526   7.180  -1.905  0.00  0.00    +0.003 C 
ATOM      6  C   UNL     1       6.438   6.951  -0.699  0.00  0.00    +0.035 C 
ATOM      7  C   UNL     1       6.568   5.452  -0.430  0.00  0.00    +0.066 C 
ATOM      8  C   UNL     1       7.177   4.759  -1.651  0.00  0.00    +0.016 C 
ATOM      9  C   UNL     1       7.262   3.254  -1.385  0.00  0.00    -0.075 C 
ATOM     10  N   UNL     1       5.901   2.731  -1.136  0.00  0.00    +0.390 N 
ATOM     11  H   UNL     1       5.303   2.966  -1.937  0.00  0.00    -0.080 HD
ENDROOT
BRANCH   1  14
ATOM     12  C   UNL     1       2.341   1.923   1.895  0.00  0.00    +0.161 A 
ATOM     13  C   UNL     1       3.589   2.471   1.647  0.00  0.00    +0.051 A 
ATOM     14  C   UNL     1       3.978   2.745   0.350  0.00  0.00    -0.057 A 
ATOM     15  C   UNL     1       3.127   2.468  -0.704  0.00  0.00    +0.006 A 
ATOM     16  C   UNL     1       1.883   1.915  -0.464  0.00  0.00    +0.049 A 
ATOM     17  C   UNL     1       1.486   1.638   0.834  0.00  0.00    +0.158 A 
BRANCH  12  19
ATOM     18  C   UNL     1       2.883   1.976   4.210  0.00  0.00    +0.277 C 
ATOM     19  O   UNL     1       1.954   1.657   3.172  0.00  0.00    -0.491 OA
ENDBRANCH  12  19
BRANCH  17  20
ATOM     20  O   UNL     1       0.263   1.094   1.072  0.00  0.00    -0.503 OA
ATOM     21  H   UNL     1       0.256   0.127   1.074  0.00  0.00    +0.292 HD
ENDBRANCH  17  20
ENDBRANCH   1  14
BRANCH   7  22
ATOM     22  O   UNL     1       7.413   5.248   0.704  0.00  0.00    -0.388 OA
ATOM     23  H   UNL     1       8.309   5.596   0.595  0.00  0.00    +0.210 HD
ENDBRANCH   7  22
BRANCH  10  24
ATOM     24  C   UNL     1       5.945   1.262  -0.986  0.00  0.00    +0.020 C 
BRANCH  24  25
ATOM     25  C   UNL     1       6.862   0.872   0.144  0.00  0.00    +0.199 C 
ATOM     26  O   UNL     1       7.361   1.728   0.844  0.00  0.00    -0.278 OA
ATOM     27  N   UNL     1       7.128  -0.428   0.378  0.00  0.00    -0.303 N 
ATOM     28  C   UNL     1       6.527  -1.477  -0.457  0.00  0.00    +0.107 C 
ATOM     29  C   UNL     1       7.650  -2.373  -1.000  0.00  0.00    +0.019 C 
ATOM     30  C   UNL     1       8.484  -2.902   0.169  0.00  0.00    +0.003 C 
ATOM     31  C   UNL     1       9.123  -1.728   0.914  0.00  0.00    +0.019 C 
ATOM     32  C   UNL     1       8.021  -0.824   1.476  0.00  0.00    +0.107 C 
ENDBRANCH  24  25
ENDBRANCH  10  24
TORSDOF 6
