REMARK  Name = ZINC39675638
REMARK  8 active torsions:
REMARK  status: ('A' for Active; 'I' for Inactive)
REMARK    1  A    between atoms: C_1  and  N_2
REMARK    2  A    between atoms: N_2  and  C_3
REMARK    3  A    between atoms: N_2  and  C_4
REMARK    4  A    between atoms: C_4  and  C_6
REMARK    5  A    between atoms: C_4  and  C_31
REMARK    6  A    between atoms: C_6  and  N_7
REMARK    7  A    between atoms: C_8  and  C_10
REMARK    8  A    between atoms: C_21  and  C_23
REMARK                            x       y       z     vdW  Elec       q    Type
REMARK                         _______ _______ _______ _____ _____    ______ ____
ROOT
ATOM      1  C   UNL     1      -2.957   3.491  -2.603  0.00  0.00    +0.100 C 
ATOM      2  C   UNL     1      -3.269   4.486  -1.463  0.00  0.00    +0.121 C 
ATOM      3  N   UNL     1      -3.954   5.618  -2.131  0.00  0.00    -0.296 N 
ATOM      4  C   UNL     1      -4.828   4.975  -3.141  0.00  0.00    +0.115 C 
ATOM      5  C   UNL     1      -3.982   3.815  -3.702  0.00  0.00    -0.004 C 
ATOM      6  C   UNL     1      -4.867   2.602  -3.973  0.00  0.00    -0.010 C 
ATOM      7  C   UNL     1      -5.839   2.929  -5.110  0.00  0.00    -0.082 C 
ATOM      8  N   UNL     1      -5.083   3.288  -6.316  0.00  0.00    +0.379 N 
ATOM      9  C   UNL     1      -4.307   4.510  -6.074  0.00  0.00    -0.082 C 
ATOM     10  C   UNL     1      -3.269   4.250  -4.978  0.00  0.00    -0.010 C 
ATOM     11  C   UNL     1      -3.813   6.934  -1.877  0.00  0.00    +0.247 C 
ATOM     12  O   UNL     1      -2.974   7.314  -1.084  0.00  0.00    -0.270 OA
ATOM     13  H   UNL     1      -4.456   2.535  -6.555  0.00  0.00    -0.086 HD
ATOM     14  H   UNL     1      -5.725   3.444  -7.079  0.00  0.00    -0.086 HD
ENDROOT
BRANCH  11  15
ATOM     15  C   UNL     1      -4.680   7.916  -2.564  0.00  0.00    +0.042 A 
ATOM     16  C   UNL     1      -5.901   7.514  -3.105  0.00  0.00    +0.051 A 
ATOM     17  C   UNL     1      -6.707   8.435  -3.747  0.00  0.00    +0.127 A 
ATOM     18  C   UNL     1      -6.304   9.757  -3.852  0.00  0.00    +0.076 A 
ATOM     19  C   UNL     1      -5.092  10.161  -3.317  0.00  0.00    +0.127 A 
ATOM     20  C   UNL     1      -4.281   9.249  -2.668  0.00  0.00    +0.051 A 
ATOM     21  F   UNL     1      -4.705  11.451  -3.423  0.00  0.00    -0.205 F 
ATOM     22  F   UNL     1      -7.890   8.047  -4.271  0.00  0.00    -0.205 F 
ENDBRANCH  11  15
BRANCH   1  24
ATOM     23  N   UNL     1      -2.406   1.081  -2.678  0.00  0.00    -0.316 N 
ATOM     24  C   UNL     1      -3.130   2.073  -2.124  0.00  0.00    +0.218 C 
ATOM     25  O   UNL     1      -3.922   1.824  -1.240  0.00  0.00    -0.275 OA
ATOM     26  H   UNL     1      -1.772   1.280  -3.386  0.00  0.00    +0.149 HD
BRANCH  23  27
ATOM     27  C   UNL     1      -2.575  -0.298  -2.213  0.00  0.00    +0.093 C 
BRANCH  27  28
ATOM     28  C   UNL     1      -1.719  -1.234  -3.069  0.00  0.00    -0.021 C 
BRANCH  28  29
ATOM     29  C   UNL     1      -0.268  -0.848  -2.939  0.00  0.00    -0.059 A 
ATOM     30  C   UNL     1       0.459  -1.256  -1.837  0.00  0.00    +0.002 A 
ATOM     31  C   UNL     1       1.790  -0.902  -1.717  0.00  0.00    +0.000 A 
ATOM     32  C   UNL     1       2.394  -0.140  -2.700  0.00  0.00    +0.000 A 
ATOM     33  C   UNL     1       1.666   0.267  -3.803  0.00  0.00    +0.000 A 
ATOM     34  C   UNL     1       0.337  -0.090  -3.924  0.00  0.00    +0.002 A 
ENDBRANCH  28  29
BRANCH  28  36
ATOM     35  C   UNL     1      -3.319  -2.985  -2.714  0.00  0.00    -0.096 C 
ATOM     36  N   UNL     1      -1.901  -2.618  -2.612  0.00  0.00    +0.382 N 
ATOM     37  C   UNL     1      -1.100  -3.519  -3.452  0.00  0.00    -0.096 C 
ATOM     38  H   UNL     1      -1.601  -2.697  -1.652  0.00  0.00    -0.082 HD
ENDBRANCH  28  36
ENDBRANCH  27  28
ENDBRANCH  23  27
ENDBRANCH   1  24
TORSDOF 6
