REMARK  Name = ZINC14989167
REMARK  8 active torsions:
REMARK  status: ('A' for Active; 'I' for Inactive)
REMARK    1  A    between atoms: C_1  and  C_2
REMARK    2  A    between atoms: C_11  and  C_12
REMARK    3  A    between atoms: N_14  and  C_15
REMARK    4  A    between atoms: C_15  and  C_16
REMARK    5  A    between atoms: C_19  and  S_22
REMARK    6  A    between atoms: N_20  and  C_21
REMARK    7  A    between atoms: S_22  and  C_23
REMARK    8  A    between atoms: C_23  and  C_24
REMARK                            x       y       z     vdW  Elec       q    Type
REMARK                         _______ _______ _______ _____ _____    ______ ____
ROOT
ATOM      1  C   UNL     1      -3.011   9.004   1.862  0.00  0.00    +0.261 C 
ATOM      2  O   UNL     1      -2.370   9.734   2.594  0.00  0.00    -0.269 OA
ATOM      3  N   UNL     1      -2.521   7.796   1.518  0.00  0.00    -0.303 N 
ATOM      4  H   UNL     1      -3.033   7.214   0.934  0.00  0.00    +0.150 HD
ENDROOT
BRANCH   1  15
ATOM      5  C   UNL     1      -4.357  11.722   2.502  0.00  0.00    +0.047 C 
ATOM      6  C   UNL     1      -4.917  10.628   1.629  0.00  0.00    -0.013 A 
ATOM      7  C   UNL     1      -6.159  10.655   0.950  0.00  0.00    +0.005 A 
ATOM      8  C   UNL     1      -7.186  11.603   0.860  0.00  0.00    +0.030 A 
ATOM      9  C   UNL     1      -8.293  11.337   0.106  0.00  0.00    +0.042 A 
ATOM     10  C   UNL     1      -8.410  10.132  -0.577  0.00  0.00    +0.022 A 
ATOM     11  C   UNL     1      -7.413   9.184  -0.505  0.00  0.00    +0.027 A 
ATOM     12  C   UNL     1      -6.276   9.433   0.259  0.00  0.00    +0.047 A 
ATOM     13  N   UNL     1      -5.137   8.706   0.515  0.00  0.00    -0.350 N 
ATOM     14  H   UNL     1      -4.941   7.822   0.166  0.00  0.00    +0.166 HD
ATOM     15  C   UNL     1      -4.320   9.439   1.354  0.00  0.00    +0.106 A 
ATOM     16 CL   UNL     1      -9.564  12.514  -0.003  0.00  0.00    -0.084 Cl
ENDBRANCH   1  15
BRANCH   3  17
ATOM     17  C   UNL     1      -1.217   7.363   2.025  0.00  0.00    +0.181 C 
BRANCH  17  18
ATOM     18  C   UNL     1      -0.904   5.987   1.495  0.00  0.00    +0.151 A 
ATOM     19  N   UNL     1      -0.276   5.710   0.388  0.00  0.00    -0.132 NA
ATOM     20  N   UNL     1      -0.180   4.437   0.241  0.00  0.00    -0.122 NA
ATOM     21  C   UNL     1      -0.747   3.828   1.257  0.00  0.00    +0.192 A 
ATOM     22  N   UNL     1      -1.231   4.798   2.086  0.00  0.00    -0.308 N 
ATOM     23  C   UNL     1      -1.950   4.605   3.348  0.00  0.00    +0.152 C 
BRANCH  21  24
ATOM     24  S   UNL     1      -0.866   2.087   1.500  0.00  0.00    -0.081 S 
BRANCH  24  25
ATOM     25  C   UNL     1      -0.018   1.503   0.010  0.00  0.00    +0.112 C 
BRANCH  25  26
ATOM     26  C   UNL     1       0.002  -0.004   0.002  0.00  0.00    -0.037 A 
ATOM     27  C   UNL     1       1.057  -0.684   0.582  0.00  0.00    +0.007 A 
ATOM     28  C   UNL     1       1.074  -2.066   0.579  0.00  0.00    +0.038 A 
ATOM     29  C   UNL     1       0.040  -2.769  -0.014  0.00  0.00    +0.123 A 
ATOM     30  C   UNL     1      -1.013  -2.087  -0.599  0.00  0.00    +0.038 A 
ATOM     31  C   UNL     1      -1.031  -0.706  -0.591  0.00  0.00    +0.007 A 
ATOM     32  F   UNL     1       0.058  -4.120  -0.021  0.00  0.00    -0.205 F 
ENDBRANCH  25  26
ENDBRANCH  24  25
ENDBRANCH  21  24
ENDBRANCH  17  18
ENDBRANCH   3  17
TORSDOF 6
