REMARK  Name = ZINC41143133
REMARK  8 active torsions:
REMARK  status: ('A' for Active; 'I' for Inactive)
REMARK    1  A    between atoms: C_1  and  C_2
REMARK    2  A    between atoms: C_7  and  N_8
REMARK    3  A    between atoms: C_9  and  C_16
REMARK    4  A    between atoms: C_12  and  C_14
REMARK    5  A    between atoms: C_14  and  N_15
REMARK    6  A    between atoms: C_19  and  C_22
REMARK    7  A    between atoms: C_22  and  C_23
REMARK    8  A    between atoms: C_22  and  C_24
REMARK                            x       y       z     vdW  Elec       q    Type
REMARK                         _______ _______ _______ _____ _____    ______ ____
ROOT
ATOM      1  N   UNL     1      -0.141  -0.454   2.409  0.00  0.00    -0.217 N 
ATOM      2  C   UNL     1      -1.039  -0.521   3.574  0.00  0.00    +0.134 C 
ATOM      3  C   UNL     1      -0.598   0.683   4.431  0.00  0.00    +0.079 C 
ATOM      4  C   UNL     1       0.525   1.303   3.630  0.00  0.00    +0.022 C 
ATOM      5  N   UNL     1       0.713   0.636   2.566  0.00  0.00    -0.190 NA
ENDROOT
BRANCH   1  12
ATOM      6  C   UNL     1       1.641  -2.671   2.490  0.00  0.00    +0.046 C 
ATOM      7  C   UNL     1       0.713  -2.435   1.327  0.00  0.00    -0.028 A 
ATOM      8  C   UNL     1       0.706  -3.311   0.260  0.00  0.00    +0.005 A 
ATOM      9  C   UNL     1      -0.145  -3.095  -0.809  0.00  0.00    +0.000 A 
ATOM     10  C   UNL     1      -0.992  -2.002  -0.813  0.00  0.00    +0.002 A 
ATOM     11  C   UNL     1      -0.991  -1.122   0.251  0.00  0.00    +0.025 A 
ATOM     12  C   UNL     1      -0.141  -1.339   1.329  0.00  0.00    +0.055 A 
ENDBRANCH   1  12
BRANCH   2  13
ATOM     13  C   UNL     1      -2.477  -0.376   3.146  0.00  0.00    -0.025 A 
ATOM     14  C   UNL     1      -2.836   0.623   2.260  0.00  0.00    +0.006 A 
ATOM     15  C   UNL     1      -4.155   0.757   1.868  0.00  0.00    +0.004 A 
ATOM     16  C   UNL     1      -5.114  -0.108   2.361  0.00  0.00    -0.045 A 
ATOM     17  C   UNL     1      -4.754  -1.107   3.246  0.00  0.00    +0.004 A 
ATOM     18  C   UNL     1      -3.435  -1.244   3.635  0.00  0.00    +0.006 A 
BRANCH  16  19
ATOM     19  C   UNL     1      -6.552   0.038   1.934  0.00  0.00    +0.013 C 
ATOM     20  C   UNL     1      -7.013  -1.248   1.246  0.00  0.00    +0.012 C 
ATOM     21  C   UNL     1      -7.424   0.301   3.163  0.00  0.00    +0.012 C 
ENDBRANCH  16  19
ENDBRANCH   2  13
BRANCH   4  22
ATOM     22  C   UNL     1       1.306   2.526   4.036  0.00  0.00    -0.033 C 
BRANCH  22  23
ATOM     23  N   UNL     1       2.312   2.828   3.009  0.00  0.00    +0.382 N 
ATOM     24  H   UNL     1       2.835   3.647   3.281  0.00  0.00    -0.090 HD
ATOM     25  H   UNL     1       2.940   2.044   2.912  0.00  0.00    -0.090 HD
ATOM     26  H   UNL     1       1.851   3.001   2.128  0.00  0.00    -0.090 HD
ENDBRANCH  22  23
ENDBRANCH   4  22
TORSDOF 5
