REMARK  Name = ZINC40341734
REMARK  15 active torsions:
REMARK  status: ('A' for Active; 'I' for Inactive)
REMARK    1  A    between atoms: C_1  and  C_2
REMARK    2  A    between atoms: C_5  and  C_8
REMARK    3  A    between atoms: N_16  and  C_33
REMARK    4  A    between atoms: C_17  and  C_19
REMARK    5  A    between atoms: C_22  and  O_27
REMARK    6  A    between atoms: C_23  and  O_25
REMARK    7  A    between atoms: O_25  and  C_26
REMARK    8  A    between atoms: O_27  and  C_28
REMARK    9  A    between atoms: C_28  and  C_29
REMARK   10  A    between atoms: C_29  and  C_30
REMARK   11  A    between atoms: C_30  and  C_31
REMARK   12  A    between atoms: C_30  and  C_32
REMARK   13  A    between atoms: C_33  and  C_34
REMARK   14  A    between atoms: C_34  and  C_35
REMARK   15  A    between atoms: C_35  and  N_36
REMARK                            x       y       z     vdW  Elec       q    Type
REMARK                         _______ _______ _______ _____ _____    ______ ____
ROOT
ATOM      1  C   UNL     1       0.058  -4.253  -0.021  0.00  0.00    +0.072 A 
ATOM      2  C   UNL     1       0.843  -5.058   0.741  0.00  0.00    +0.035 A 
ATOM      3  C   UNL     1       0.505  -6.382   0.382  0.00  0.00    +0.153 A 
ATOM      4  N   UNL     1      -0.431  -6.303  -0.542  0.00  0.00    -0.168 NA
ATOM      5  H   UNL     1      -1.376  -4.774  -1.435  0.00  0.00    +0.189 HD
ATOM      6  N   UNL     1      -0.714  -5.074  -0.792  0.00  0.00    -0.276 N 
ATOM      7  C   UNL     1       1.336  -7.295   1.188  0.00  0.00    +0.268 C 
ATOM      8  O   UNL     1       1.294  -8.508   1.125  0.00  0.00    -0.268 OA
ATOM      9  N   UNL     1       2.146  -6.597   2.002  0.00  0.00    -0.285 N 
ATOM     10  C   UNL     1       1.911  -5.163   1.795  0.00  0.00    +0.141 C 
ENDROOT
BRANCH   1  15
ATOM     11  C   UNL     1      -0.018   1.503   0.010  0.00  0.00    +0.044 C 
ATOM     12  C   UNL     1       0.002  -0.004   0.002  0.00  0.00    -0.050 A 
ATOM     13  C   UNL     1       0.006  -0.686  -1.202  0.00  0.00    +0.004 A 
ATOM     14  C   UNL     1       0.024  -2.066  -1.216  0.00  0.00    +0.010 A 
ATOM     15  C   UNL     1       0.039  -2.773  -0.013  0.00  0.00    +0.000 A 
ATOM     16  C   UNL     1       0.036  -2.079   1.197  0.00  0.00    +0.010 A 
ATOM     17  C   UNL     1       0.023  -0.699   1.198  0.00  0.00    +0.004 A 
ENDBRANCH   1  15
BRANCH  10  18
ATOM     18  C   UNL     1       3.175  -4.495   1.320  0.00  0.00    -0.019 A 
ATOM     19  C   UNL     1       4.005  -5.145   0.425  0.00  0.00    +0.009 A 
ATOM     20  C   UNL     1       5.166  -4.536  -0.013  0.00  0.00    +0.050 A 
ATOM     21  C   UNL     1       5.499  -3.271   0.443  0.00  0.00    +0.162 A 
ATOM     22  C   UNL     1       4.664  -2.616   1.342  0.00  0.00    +0.162 A 
ATOM     23  C   UNL     1       3.499  -3.230   1.774  0.00  0.00    +0.055 A 
BRANCH  22  24
ATOM     24  O   UNL     1       4.987  -1.374   1.793  0.00  0.00    -0.491 OA
ATOM     25  C   UNL     1       4.082  -0.763   2.715  0.00  0.00    +0.277 C 
ENDBRANCH  22  24
BRANCH  21  26
ATOM     26  O   UNL     1       6.641  -2.671   0.012  0.00  0.00    -0.488 OA
BRANCH  26  27
ATOM     27  C   UNL     1       7.451  -3.402  -0.910  0.00  0.00    +0.229 C 
BRANCH  27  28
ATOM     28  C   UNL     1       8.683  -2.572  -1.278  0.00  0.00    +0.044 C 
BRANCH  28  29
ATOM     29  C   UNL     1       9.549  -3.356  -2.266  0.00  0.00    -0.014 C 
ATOM     30  C   UNL     1       8.784  -3.545  -3.577  0.00  0.00    +0.007 C 
ATOM     31  C   UNL     1      10.841  -2.581  -2.537  0.00  0.00    +0.007 C 
ENDBRANCH  28  29
ENDBRANCH  27  28
ENDBRANCH  26  27
ENDBRANCH  21  26
ENDBRANCH  10  18
BRANCH   9  32
ATOM     32  C   UNL     1       3.108  -7.174   2.944  0.00  0.00    +0.111 C 
BRANCH  32  33
ATOM     33  C   UNL     1       4.458  -7.356   2.247  0.00  0.00    +0.040 C 
BRANCH  33  34
ATOM     34  C   UNL     1       5.463  -7.959   3.231  0.00  0.00    +0.124 C 
BRANCH  34  35
ATOM     35  N   UNL     1       6.755  -8.133   2.564  0.00  0.00    -0.338 N 
ATOM     36  C   UNL     1       7.170  -9.241   1.874  0.00  0.00    +0.104 A 
ATOM     37  C   UNL     1       8.413  -8.978   1.426  0.00  0.00    +0.101 A 
ATOM     38  N   UNL     1       8.747  -7.744   1.831  0.00  0.00    -0.352 N 
ATOM     39  C   UNL     1       7.757  -7.230   2.509  0.00  0.00    +0.173 A 
ATOM     40  H   UNL     1       9.591  -7.301   1.647  0.00  0.00    +0.166 HD
ENDBRANCH  34  35
ENDBRANCH  33  34
ENDBRANCH  32  33
ENDBRANCH   9  32
TORSDOF 11
