REMARK  Name = ZINC08651197
REMARK  10 active torsions:
REMARK  status: ('A' for Active; 'I' for Inactive)
REMARK    1  A    between atoms: C_1  and  C_2
REMARK    2  A    between atoms: C_7  and  N_8
REMARK    3  A    between atoms: C_11  and  C_16
REMARK    4  A    between atoms: C_16  and  S_17
REMARK    5  A    between atoms: S_17  and  C_18
REMARK    6  A    between atoms: C_21  and  C_27
REMARK    7  A    between atoms: N_22  and  C_23
REMARK    8  A    between atoms: C_23  and  C_24
REMARK    9  A    between atoms: C_24  and  C_25
REMARK   10  A    between atoms: C_24  and  C_26
REMARK                            x       y       z     vdW  Elec       q    Type
REMARK                         _______ _______ _______ _____ _____    ______ ____
ROOT
ATOM      1  N   UNL     1      -7.190   7.770   0.197  0.00  0.00    -0.283 N 
ATOM      2  C   UNL     1      -6.523   6.747  -0.450  0.00  0.00    +0.224 A 
ATOM      3  N   UNL     1      -5.980   5.756   0.254  0.00  0.00    -0.198 NA
ATOM      4  C   UNL     1      -5.337   4.781  -0.363  0.00  0.00    +0.146 A 
ATOM      5  N   UNL     1      -5.239   4.779  -1.681  0.00  0.00    -0.199 NA
ATOM      6  C   UNL     1      -5.784   5.764  -2.392  0.00  0.00    +0.217 A 
ATOM      7  N   UNL     1      -6.427   6.749  -1.775  0.00  0.00    -0.181 NA
ATOM      8  N   UNL     1      -5.682   5.761  -3.768  0.00  0.00    -0.327 N 
ATOM      9  H   UNL     1      -7.336   7.724   1.155  0.00  0.00    +0.155 HD
ATOM     10  H   UNL     1      -5.212   5.042  -4.218  0.00  0.00    +0.145 HD
ATOM     11  H   UNL     1      -6.079   6.479  -4.285  0.00  0.00    +0.145 HD
ENDROOT
BRANCH   1  18
ATOM     12  C   UNL     1      -9.496   9.134   1.154  0.00  0.00    +0.045 C 
ATOM     13  C   UNL     1      -8.778   9.565  -0.098  0.00  0.00    -0.029 A 
ATOM     14  C   UNL     1      -9.234  10.652  -0.818  0.00  0.00    +0.005 A 
ATOM     15  C   UNL     1      -8.575  11.049  -1.966  0.00  0.00    +0.000 A 
ATOM     16  C   UNL     1      -7.456  10.360  -2.399  0.00  0.00    +0.002 A 
ATOM     17  C   UNL     1      -6.992   9.275  -1.681  0.00  0.00    +0.023 A 
ATOM     18  C   UNL     1      -7.655   8.870  -0.530  0.00  0.00    +0.036 A 
ENDBRANCH   1  18
BRANCH   4  19
ATOM     19  C   UNL     1      -4.718   3.664   0.438  0.00  0.00    +0.153 C 
BRANCH  19  20
ATOM     20  S   UNL     1      -3.014   4.101   0.865  0.00  0.00    -0.078 S 
BRANCH  20  21
ATOM     21  C   UNL     1      -2.548   2.663   1.770  0.00  0.00    +0.192 A 
ATOM     22  N   UNL     1      -3.303   1.614   2.011  0.00  0.00    -0.122 NA
ATOM     23  N   UNL     1      -2.651   0.751   2.704  0.00  0.00    -0.128 NA
ATOM     24  C   UNL     1      -1.439   1.192   2.945  0.00  0.00    +0.168 A 
ATOM     25  N   UNL     1      -1.334   2.429   2.351  0.00  0.00    -0.302 N 
BRANCH  24  26
ATOM     26  C   UNL     1      -0.385   0.493   3.709  0.00  0.00    +0.054 A 
ATOM     27  C   UNL     1       0.384   1.190   4.643  0.00  0.00    +0.014 A 
ATOM     28  C   UNL     1       1.366   0.532   5.353  0.00  0.00    +0.001 A 
ATOM     29  C   UNL     1       1.591  -0.818   5.144  0.00  0.00    +0.003 A 
ATOM     30  C   UNL     1       0.834  -1.516   4.221  0.00  0.00    +0.039 A 
ATOM     31  C   UNL     1      -0.157  -0.871   3.506  0.00  0.00    +0.134 A 
ATOM     32  F   UNL     1      -0.899  -1.555   2.608  0.00  0.00    -0.205 F 
ENDBRANCH  24  26
BRANCH  25  33
ATOM     33  C   UNL     1      -0.166   3.313   2.347  0.00  0.00    +0.129 C 
BRANCH  33  34
ATOM     34  C   UNL     1       0.785   2.896   1.224  0.00  0.00    +0.003 C 
ATOM     35  C   UNL     1       2.061   3.738   1.297  0.00  0.00    +0.009 C 
ATOM     36  C   UNL     1       0.105   3.118  -0.129  0.00  0.00    +0.009 C 
ENDBRANCH  33  34
ENDBRANCH  25  33
ENDBRANCH  20  21
ENDBRANCH  19  20
ENDBRANCH   4  19
TORSDOF 7
