REMARK  Name = ZINC21256683
REMARK  7 active torsions:
REMARK  status: ('A' for Active; 'I' for Inactive)
REMARK    1  A    between atoms: C_1  and  C_2
REMARK    2  A    between atoms: C_2  and  C_3
REMARK    3  A    between atoms: C_2  and  O_4
REMARK    4  A    between atoms: O_4  and  C_5
REMARK    5  A    between atoms: C_8  and  C_11
REMARK    6  A    between atoms: C_16  and  C_22
REMARK    7  A    between atoms: C_25  and  O_28
REMARK                            x       y       z     vdW  Elec       q    Type
REMARK                         _______ _______ _______ _____ _____    ______ ____
ROOT
ATOM      1  C   UNL     1       7.195   0.596   2.772  0.00  0.00    +0.032 C 
ATOM      2  C   UNL     1       7.082   1.759   3.760  0.00  0.00    +0.059 C 
ATOM      3  C   UNL     1       6.062   2.751   3.260  0.00  0.00    +0.018 C 
ATOM      4  C   UNL     1       5.855   2.923   1.938  0.00  0.00    +0.020 C 
ATOM      5  C   UNL     1       4.833   3.928   1.460  0.00  0.00    +0.063 C 
ATOM      6  C   UNL     1       4.815   5.127   2.411  0.00  0.00    +0.109 C 
ATOM      7  C   UNL     1       4.740   4.628   3.831  0.00  0.00    +0.218 C 
ATOM      8  O   UNL     1       4.132   5.266   4.664  0.00  0.00    -0.275 OA
ATOM      9  N   UNL     1       5.346   3.479   4.176  0.00  0.00    -0.289 N 
ATOM     10  C   UNL     1       6.571   2.183   0.983  0.00  0.00    +0.162 C 
ATOM     11  O   UNL     1       6.366   2.374  -0.199  0.00  0.00    -0.292 OA
ATOM     12  C   UNL     1       7.589   1.156   1.401  0.00  0.00    +0.088 C 
ATOM     13  H   UNL     1       5.260   3.124   5.214  0.00  0.00    +0.155 HD
ENDROOT
BRANCH   1  17
ATOM     14  C   UNL     1      10.182  -2.152   4.110  0.00  0.00    +0.121 A 
ATOM     15  C   UNL     1       8.875  -2.579   3.931  0.00  0.00    +0.046 A 
ATOM     16  C   UNL     1       7.911  -1.689   3.499  0.00  0.00    +0.007 A 
ATOM     17  C   UNL     1       8.249  -0.373   3.244  0.00  0.00    -0.043 A 
ATOM     18  C   UNL     1       9.552   0.055   3.416  0.00  0.00    +0.007 A 
ATOM     19  C   UNL     1      10.518  -0.830   3.854  0.00  0.00    +0.046 A 
BRANCH  14  20
ATOM     20  O   UNL     1      11.132  -3.026   4.535  0.00  0.00    -0.489 OA
BRANCH  20  22
ATOM     21  C   UNL     1      12.714  -1.825   5.912  0.00  0.00    +0.051 C 
ATOM     22  C   UNL     1      12.478  -2.548   4.584  0.00  0.00    +0.167 C 
ATOM     23  C   UNL     1      13.444  -3.729   4.468  0.00  0.00    +0.051 C 
ENDBRANCH  20  22
ENDBRANCH  14  20
ENDBRANCH   1  17
BRANCH   5  24
ATOM     24  C   UNL     1       3.470   3.286   1.436  0.00  0.00    -0.039 A 
ATOM     25  C   UNL     1       2.767   3.203   0.248  0.00  0.00    +0.008 A 
ATOM     26  C   UNL     1       1.517   2.614   0.224  0.00  0.00    +0.045 A 
ATOM     27  C   UNL     1       0.967   2.107   1.392  0.00  0.00    +0.117 A 
ATOM     28  C   UNL     1       1.672   2.197   2.584  0.00  0.00    +0.045 A 
ATOM     29  C   UNL     1       2.924   2.782   2.602  0.00  0.00    +0.008 A 
BRANCH  27  30
ATOM     30  O   UNL     1      -0.262   1.528   1.370  0.00  0.00    -0.507 OA
ATOM     31  H   UNL     1      -0.697   1.126   2.297  0.00  0.00    +0.292 HD
ENDBRANCH  27  30
ENDBRANCH   5  24
TORSDOF 5
