REMARK  Name = ZINC39770016
REMARK  9 active torsions:
REMARK  status: ('A' for Active; 'I' for Inactive)
REMARK    1  A    between atoms: C_1  and  C_2
REMARK    2  A    between atoms: C_6  and  C_8
REMARK    3  A    between atoms: C_9  and  C_10
REMARK    4  A    between atoms: C_14  and  S_16
REMARK    5  A    between atoms: S_16  and  C_17
REMARK    6  A    between atoms: C_17  and  C_18
REMARK    7  A    between atoms: N_20  and  C_21
REMARK    8  A    between atoms: C_21  and  C_22
REMARK    9  A    between atoms: N_24  and  C_25
REMARK                            x       y       z     vdW  Elec       q    Type
REMARK                         _______ _______ _______ _____ _____    ______ ____
ROOT
ATOM      1  C   UNL     1       8.315  -1.477   6.387  0.00  0.00    +0.173 C 
ENDROOT
BRANCH   1   2
ATOM      2  C   UNL     1       9.802  -1.666   6.544  0.00  0.00    +0.224 C 
ATOM      3  O   UNL     1      10.506  -1.775   5.562  0.00  0.00    -0.275 OA
ATOM      4  N   UNL     1      10.349  -1.713   7.775  0.00  0.00    -0.306 N 
ATOM      5  H   UNL     1       9.786  -1.625   8.559  0.00  0.00    +0.149 HD
BRANCH   4   6
ATOM      6  C   UNL     1      11.794  -1.896   7.927  0.00  0.00    +0.200 C 
BRANCH   6   7
ATOM      7  C   UNL     1      12.147  -1.913   9.392  0.00  0.00    +0.234 C 
ATOM      8  O   UNL     1      11.276  -1.786  10.227  0.00  0.00    -0.274 OA
ATOM      9  N   UNL     1      13.429  -2.071   9.775  0.00  0.00    -0.283 N 
ATOM     10  H   UNL     1      14.116  -2.239   9.111  0.00  0.00    +0.155 HD
BRANCH   9  11
ATOM     11  C   UNL     1      13.770  -1.994  11.130  0.00  0.00    +0.047 A 
ATOM     12  C   UNL     1      12.890  -2.463  12.097  0.00  0.00    +0.024 A 
ATOM     13  C   UNL     1      13.229  -2.386  13.433  0.00  0.00    +0.002 A 
ATOM     14  C   UNL     1      14.443  -1.841  13.810  0.00  0.00    +0.001 A 
ATOM     15  C   UNL     1      15.321  -1.371  12.851  0.00  0.00    +0.017 A 
ATOM     16  C   UNL     1      14.991  -1.452  11.511  0.00  0.00    +0.039 A 
ATOM     17 BR   UNL     1      16.196  -0.817  10.200  0.00  0.00    -0.048 Br
ENDBRANCH   9  11
ENDBRANCH   6   7
ENDBRANCH   4   6
ENDBRANCH   1   2
BRANCH   1  18
ATOM     18  S   UNL     1       7.890  -1.456   4.623  0.00  0.00    -0.075 S 
BRANCH  18  23
ATOM     19  C   UNL     1       4.119  -0.985   3.860  0.00  0.00    +0.150 A 
ATOM     20  N   UNL     1       4.062  -0.952   5.220  0.00  0.00    -0.258 N 
ATOM     21  H   UNL     1       3.269  -0.839   5.766  0.00  0.00    +0.191 HD
ATOM     22  N   UNL     1       5.382  -1.113   5.673  0.00  0.00    -0.145 NA
ATOM     23  C   UNL     1       6.143  -1.232   4.608  0.00  0.00    +0.209 A 
ATOM     24  N   UNL     1       5.384  -1.160   3.515  0.00  0.00    -0.202 NA
BRANCH  19  26
ATOM     25  C   UNL     1       3.180  -0.913   1.611  0.00  0.00    +0.049 C 
ATOM     26  C   UNL     1       2.982  -0.856   2.943  0.00  0.00    +0.051 C 
BRANCH  25  31
ATOM     27  C   UNL     1      -0.040   1.423   0.003  0.00  0.00    +0.052 C 
ATOM     28  C   UNL     1      -0.016  -0.107   0.006  0.00  0.00    +0.174 C 
ATOM     29  C   UNL     1       0.766  -0.649  -1.216  0.00  0.00    +0.075 C 
ATOM     30  C   UNL     1       2.159  -0.831  -0.638  0.00  0.00    +0.022 C 
ATOM     31  C   UNL     1       2.042  -0.785   0.694  0.00  0.00    +0.117 C 
ATOM     32  O   UNL     1       0.763  -0.607   1.109  0.00  0.00    -0.489 OA
ENDBRANCH  25  31
ENDBRANCH  19  26
ENDBRANCH  18  23
ENDBRANCH   1  18
TORSDOF 8
