REMARK  Name = ZINC33810025
REMARK  9 active torsions:
REMARK  status: ('A' for Active; 'I' for Inactive)
REMARK    1  A    between atoms: C_1  and  O_2
REMARK    2  A    between atoms: O_2  and  C_3
REMARK    3  A    between atoms: C_5  and  C_12
REMARK    4  A    between atoms: C_7  and  O_10
REMARK    5  A    between atoms: C_8  and  O_9
REMARK    6  A    between atoms: O_10  and  C_11
REMARK    7  A    between atoms: C_17  and  S_21
REMARK    8  A    between atoms: S_21  and  C_22
REMARK    9  A    between atoms: C_22  and  C_23
REMARK                            x       y       z     vdW  Elec       q    Type
REMARK                         _______ _______ _______ _____ _____    ______ ____
ROOT
ATOM      1  C   UNL     1       2.601  -0.273   2.900  0.00  0.00    +0.093 C 
ATOM      2  C   UNL     1       3.361   0.803   3.618  0.00  0.00    +0.069 A 
ATOM      3  C   UNL     1       3.612   1.999   3.021  0.00  0.00    +0.135 A 
ATOM      4  N   UNL     1       4.313   2.957   3.706  0.00  0.00    -0.208 NA
ATOM      5  C   UNL     1       4.752   2.708   4.972  0.00  0.00    +0.171 A 
ATOM      6  N   UNL     1       4.513   1.554   5.561  0.00  0.00    -0.302 N 
ATOM      7  C   UNL     1       3.830   0.586   4.932  0.00  0.00    +0.258 A 
ATOM      8  O   UNL     1       3.615  -0.479   5.493  0.00  0.00    -0.267 OA
ATOM      9  N   UNL     1       3.165   2.243   1.744  0.00  0.00    -0.302 N 
ATOM     10  C   UNL     1       2.162   1.488   1.198  0.00  0.00    +0.017 C 
ATOM     11  C   UNL     1       1.845   0.284   1.721  0.00  0.00    +0.024 C 
ATOM     12  C   UNL     1       0.805  -0.490   1.177  0.00  0.00    +0.162 C 
ATOM     13  O   UNL     1       0.550  -1.572   1.666  0.00  0.00    -0.292 OA
ATOM     14  C   UNL     1       0.002  -0.004   0.002  0.00  0.00    +0.080 C 
ATOM     15  C   UNL     1      -0.019   1.528   0.010  0.00  0.00    +0.014 C 
ATOM     16  C   UNL     1       1.426   2.033  -0.001  0.00  0.00    +0.051 C 
ATOM     17  H   UNL     1       3.613   3.052   1.149  0.00  0.00    +0.153 HD
ATOM     18  H   UNL     1       4.876   1.373   6.583  0.00  0.00    +0.171 HD
ENDROOT
BRANCH   1  21
ATOM     19  C   UNL     1       4.358  -3.587   2.436  0.00  0.00    +0.165 A 
ATOM     20  C   UNL     1       3.469  -2.620   2.879  0.00  0.00    +0.054 A 
ATOM     21  C   UNL     1       3.570  -1.321   2.415  0.00  0.00    -0.028 A 
ATOM     22  C   UNL     1       4.552  -0.983   1.504  0.00  0.00    +0.054 A 
ATOM     23  C   UNL     1       5.449  -1.943   1.060  0.00  0.00    +0.165 A 
ATOM     24  C   UNL     1       5.351  -3.249   1.524  0.00  0.00    +0.201 A 
BRANCH  19  26
ATOM     25  C   UNL     1       3.214  -5.138   3.829  0.00  0.00    +0.277 C 
ATOM     26  O   UNL     1       4.259  -4.864   2.893  0.00  0.00    -0.491 OA
ENDBRANCH  19  26
BRANCH  24  27
ATOM     27  O   UNL     1       6.226  -4.196   1.086  0.00  0.00    -0.501 OA
ATOM     28  H   UNL     1       7.011  -3.928   0.364  0.00  0.00    +0.292 HD
ENDBRANCH  24  27
BRANCH  23  29
ATOM     29  O   UNL     1       6.419  -1.608   0.168  0.00  0.00    -0.491 OA
ATOM     30  C   UNL     1       6.460  -0.247  -0.266  0.00  0.00    +0.277 C 
ENDBRANCH  23  29
ENDBRANCH   1  21
BRANCH   5  31
ATOM     31  S   UNL     1       5.653   3.951   5.835  0.00  0.00    -0.084 S 
BRANCH  31  32
ATOM     32  C   UNL     1       5.958   3.089   7.398  0.00  0.00    +0.104 C 
BRANCH  32  33
ATOM     33  C   UNL     1       6.739   3.987   8.323  0.00  0.00    -0.023 C 
ATOM     34  C   UNL     1       6.196   4.410   9.438  0.00  0.00    +0.005 C 
ENDBRANCH  32  33
ENDBRANCH  31  32
ENDBRANCH   5  31
TORSDOF 7
