REMARK  Name = ZINC00887556
REMARK  10 active torsions:
REMARK  status: ('A' for Active; 'I' for Inactive)
REMARK    1  A    between atoms: C_1  and  C_2
REMARK    2  A    between atoms: C_5  and  N_8
REMARK    3  A    between atoms: N_8  and  C_9
REMARK    4  A    between atoms: C_9  and  C_11
REMARK    5  A    between atoms: C_9  and  C_18
REMARK    6  A    between atoms: N_20  and  C_21
REMARK    7  A    between atoms: C_21  and  C_22
REMARK    8  A    between atoms: C_28  and  C_30
REMARK    9  A    between atoms: C_30  and  N_31
REMARK   10  A    between atoms: C_33  and  C_36
REMARK                            x       y       z     vdW  Elec       q    Type
REMARK                         _______ _______ _______ _____ _____    ______ ____
ROOT
ATOM      1  N   UNL     1      -0.289  -4.185  -0.002  0.00  0.00    -0.254 N 
ATOM      2  C   UNL     1      -0.320  -4.922  -1.130  0.00  0.00    +0.244 C 
ATOM      3  O   UNL     1      -0.085  -6.111  -1.084  0.00  0.00    -0.273 OA
ENDROOT
BRANCH   1   8
ATOM      4  C   UNL     1      -1.803   1.281  -0.144  0.00  0.00    +0.044 C 
ATOM      5  C   UNL     1      -1.401  -0.171  -0.106  0.00  0.00    -0.050 A 
ATOM      6  C   UNL     1      -2.206  -1.093   0.536  0.00  0.00    +0.005 A 
ATOM      7  C   UNL     1      -1.840  -2.425   0.572  0.00  0.00    +0.024 A 
ATOM      8  C   UNL     1      -0.663  -2.837  -0.038  0.00  0.00    +0.038 A 
ATOM      9  C   UNL     1       0.144  -1.908  -0.682  0.00  0.00    +0.024 A 
ATOM     10  C   UNL     1      -0.230  -0.579  -0.719  0.00  0.00    +0.005 A 
ENDBRANCH   1   8
BRANCH   1  11
ATOM     11  C   UNL     1       0.136  -4.794   1.260  0.00  0.00    +0.197 C 
BRANCH  11  12
ATOM     12  C   UNL     1      -0.043  -3.803   2.382  0.00  0.00    -0.018 A 
ATOM     13  C   UNL     1       0.593  -2.577   2.328  0.00  0.00    +0.007 A 
ATOM     14  C   UNL     1       0.429  -1.668   3.356  0.00  0.00    +0.020 A 
ATOM     15  C   UNL     1      -0.371  -1.986   4.439  0.00  0.00    +0.041 A 
ATOM     16  C   UNL     1      -1.008  -3.213   4.492  0.00  0.00    +0.020 A 
ATOM     17  C   UNL     1      -0.848  -4.119   3.461  0.00  0.00    +0.007 A 
ATOM     18 CL   UNL     1      -0.577  -0.845   5.731  0.00  0.00    -0.084 Cl
ENDBRANCH  11  12
BRANCH  11  19
ATOM     19  C   UNL     1       1.587  -5.188   1.165  0.00  0.00    +0.239 C 
ATOM     20  O   UNL     1       2.206  -4.980   0.142  0.00  0.00    -0.273 OA
ATOM     21  N   UNL     1       2.198  -5.771   2.215  0.00  0.00    -0.309 N 
ATOM     22  H   UNL     1       1.703  -5.938   3.032  0.00  0.00    +0.149 HD
BRANCH  21  23
ATOM     23  C   UNL     1       3.609  -6.154   2.122  0.00  0.00    +0.139 C 
BRANCH  23  24
ATOM     24  C   UNL     1       4.046  -6.781   3.421  0.00  0.00    -0.030 A 
ATOM     25  C   UNL     1       4.561  -5.990   4.431  0.00  0.00    +0.005 A 
ATOM     26  C   UNL     1       4.962  -6.565   5.622  0.00  0.00    +0.000 A 
ATOM     27  C   UNL     1       4.848  -7.931   5.803  0.00  0.00    +0.000 A 
ATOM     28  C   UNL     1       4.332  -8.722   4.793  0.00  0.00    +0.000 A 
ATOM     29  C   UNL     1       3.927  -8.146   3.604  0.00  0.00    +0.005 A 
ENDBRANCH  23  24
ENDBRANCH  21  23
ENDBRANCH  11  19
ENDBRANCH   1  11
BRANCH   2  30
ATOM     30  C   UNL     1      -0.648  -4.270  -2.448  0.00  0.00    +0.264 C 
BRANCH  30  31
ATOM     31  N   UNL     1      -0.741  -5.295  -3.491  0.00  0.00    -0.154 N 
ATOM     32  N   UNL     1       0.238  -5.710  -4.218  0.00  0.00    -0.129 NA
ATOM     33  C   UNL     1      -0.230  -6.631  -5.039  0.00  0.00    +0.211 A 
ATOM     34  N   UNL     1      -1.540  -6.752  -4.772  0.00  0.00    -0.107 NA
ATOM     35  N   UNL     1      -1.814  -5.927  -3.820  0.00  0.00    -0.045 NA
BRANCH  33  36
ATOM     36  C   UNL     1       0.538  -7.383  -6.055  0.00  0.00    +0.060 A 
ATOM     37  C   UNL     1       0.103  -8.339  -6.932  0.00  0.00    +0.019 A 
ATOM     38  C   UNL     1       1.012  -8.907  -7.798  0.00  0.00    +0.008 A 
ATOM     39  C   UNL     1       2.307  -8.502  -7.756  0.00  0.00    +0.046 A 
ATOM     40  S   UNL     1       2.273  -7.272  -6.463  0.00  0.00    -0.093 S 
ENDBRANCH  33  36
ENDBRANCH  30  31
ENDBRANCH   2  30
TORSDOF 9
