REMARK  Name = ZINC08970555
REMARK  5 active torsions:
REMARK  status: ('A' for Active; 'I' for Inactive)
REMARK    1  A    between atoms: C_1  and  C_2
REMARK    2  A    between atoms: C_2  and  C_34
REMARK    3  A    between atoms: C_6  and  C_24
REMARK    4  A    between atoms: C_12  and  C_16
REMARK    5  A    between atoms: C_16  and  C_18
REMARK                            x       y       z     vdW  Elec       q    Type
REMARK                         _______ _______ _______ _____ _____    ______ ____
ROOT
ATOM      1  C   UNL     1      -0.048   3.049  -4.399  0.00  0.00    +0.011 C 
ATOM      2  C   UNL     1      -0.901   1.825  -4.737  0.00  0.00    -0.023 C 
ATOM      3  C   UNL     1      -0.118   0.549  -4.437  0.00  0.00    +0.058 C 
ATOM      4  C   UNL     1       0.253   0.501  -2.965  0.00  0.00    +0.017 C 
ATOM      5  C   UNL     1      -0.550   1.054  -2.039  0.00  0.00    +0.036 C 
ATOM      6  C   UNL     1      -0.304   1.071  -0.550  0.00  0.00    +0.137 C 
ATOM      7  N   UNL     1       0.767   0.204  -0.106  0.00  0.00    -0.331 N 
ATOM      8  C   UNL     1       2.081   0.437  -0.487  0.00  0.00    +0.049 A 
ATOM      9  C   UNL     1       3.040   0.838   0.435  0.00  0.00    +0.025 A 
ATOM     10  C   UNL     1       4.305   1.171   0.002  0.00  0.00    +0.013 A 
ATOM     11  C   UNL     1       4.624   1.105  -1.359  0.00  0.00    +0.024 A 
ATOM     12  C   UNL     1       3.662   0.679  -2.283  0.00  0.00    +0.036 A 
ATOM     13  C   UNL     1       2.405   0.332  -1.835  0.00  0.00    +0.053 A 
ATOM     14  N   UNL     1       1.417  -0.142  -2.692  0.00  0.00    -0.316 N 
ATOM     15  C   UNL     1      -1.748   1.697  -2.430  0.00  0.00    +0.163 C 
ATOM     16  O   UNL     1      -2.466   2.171  -1.571  0.00  0.00    -0.292 OA
ATOM     17  C   UNL     1      -2.163   1.814  -3.866  0.00  0.00    +0.086 C 
ATOM     18  C   UNL     1      -1.291   1.859  -6.217  0.00  0.00    +0.011 C 
ATOM     19  H   UNL     1       0.545  -0.655   0.544  0.00  0.00    +0.147 HD
ATOM     20  H   UNL     1       1.633  -1.112  -3.163  0.00  0.00    +0.152 HD
ENDROOT
BRANCH   6  21
ATOM     21  C   UNL     1       0.022   2.483  -0.137  0.00  0.00    -0.004 A 
ATOM     22  C   UNL     1       1.172   3.091  -0.603  0.00  0.00    +0.007 A 
ATOM     23  C   UNL     1       1.472   4.386  -0.223  0.00  0.00    +0.000 A 
ATOM     24  C   UNL     1       0.621   5.074   0.623  0.00  0.00    +0.001 A 
ATOM     25  C   UNL     1      -0.529   4.466   1.089  0.00  0.00    +0.020 A 
ATOM     26  C   UNL     1      -0.832   3.171   0.706  0.00  0.00    +0.046 A 
ATOM     27 CL   UNL     1      -2.281   2.410   1.285  0.00  0.00    -0.083 Cl
ENDBRANCH   6  21
BRANCH  11  28
ATOM     28  C   UNL     1       5.973   1.483  -1.819  0.00  0.00    +0.193 C 
ATOM     29  O   UNL     1       6.562   2.401  -1.283  0.00  0.00    -0.287 OA
BRANCH  28  30
ATOM     30  C   UNL     1       6.608   0.745  -2.931  0.00  0.00    +0.022 A 
ATOM     31  C   UNL     1       6.010  -0.412  -3.437  0.00  0.00    +0.012 A 
ATOM     32  C   UNL     1       6.606  -1.093  -4.478  0.00  0.00    +0.001 A 
ATOM     33  C   UNL     1       7.798  -0.639  -5.014  0.00  0.00    +0.000 A 
ATOM     34  C   UNL     1       8.398   0.504  -4.513  0.00  0.00    +0.001 A 
ATOM     35  C   UNL     1       7.811   1.197  -3.476  0.00  0.00    +0.012 A 
ENDBRANCH  28  30
ENDBRANCH  11  28
TORSDOF 3
