REMARK  Name = ZINC38704988
REMARK  10 active torsions:
REMARK  status: ('A' for Active; 'I' for Inactive)
REMARK    1  A    between atoms: C_1  and  C_2
REMARK    2  A    between atoms: C_5  and  C_8
REMARK    3  A    between atoms: C_8  and  N_9
REMARK    4  A    between atoms: C_10  and  C_29
REMARK    5  A    between atoms: C_13  and  C_20
REMARK    6  A    between atoms: C_21  and  C_28
REMARK    7  A    between atoms: C_23  and  C_27
REMARK    8  A    between atoms: C_25  and  O_26
REMARK    9  A    between atoms: C_33  and  O_35
REMARK   10  A    between atoms: O_35  and  C_36
REMARK                            x       y       z     vdW  Elec       q    Type
REMARK                         _______ _______ _______ _____ _____    ______ ____
ROOT
ATOM      1  N   UNL     1       1.622  -4.879  -0.079  0.00  0.00    -0.281 N 
ATOM      2  C   UNL     1       2.429  -5.050  -1.295  0.00  0.00    +0.142 C 
ATOM      3  C   UNL     1       3.795  -5.475  -0.832  0.00  0.00    +0.035 A 
ATOM      4  C   UNL     1       5.100  -5.838  -1.184  0.00  0.00    +0.102 A 
ATOM      5  N   UNL     1       5.754  -6.090  -0.067  0.00  0.00    -0.173 NA
ATOM      6  N   UNL     1       4.992  -5.921   0.955  0.00  0.00    -0.272 N 
ATOM      7  H   UNL     1       5.262  -6.049   1.878  0.00  0.00    +0.189 HD
ATOM      8  C   UNL     1       3.747  -5.535   0.548  0.00  0.00    +0.126 A 
ATOM      9  C   UNL     1       2.398  -5.158   0.984  0.00  0.00    +0.266 C 
ATOM     10  O   UNL     1       2.032  -5.107   2.143  0.00  0.00    -0.268 OA
ENDROOT
BRANCH   4  11
ATOM     11  C   UNL     1       5.646  -5.925  -2.561  0.00  0.00    +0.047 A 
ATOM     12  C   UNL     1       6.343  -7.061  -2.966  0.00  0.00    -0.037 A 
ATOM     13  C   UNL     1       6.849  -7.137  -4.248  0.00  0.00    +0.007 A 
ATOM     14  C   UNL     1       6.668  -6.088  -5.132  0.00  0.00    -0.047 A 
ATOM     15  C   UNL     1       5.978  -4.957  -4.740  0.00  0.00    +0.049 A 
ATOM     16  C   UNL     1       5.460  -4.870  -3.458  0.00  0.00    +0.127 A 
ATOM     17  C   UNL     1       7.225  -6.181  -6.530  0.00  0.00    +0.044 C 
ATOM     18  C   UNL     1       6.545  -8.205  -2.006  0.00  0.00    +0.044 C 
BRANCH  16  19
ATOM     19  O   UNL     1       4.777  -3.760  -3.073  0.00  0.00    -0.506 OA
ATOM     20  H   UNL     1       5.341  -3.041  -2.756  0.00  0.00    +0.292 HD
ENDBRANCH  16  19
ENDBRANCH   4  11
BRANCH   2  21
ATOM     21  C   UNL     1       1.823  -6.114  -2.174  0.00  0.00    -0.019 A 
ATOM     22  C   UNL     1       1.375  -7.297  -1.617  0.00  0.00    +0.006 A 
ATOM     23  C   UNL     1       0.819  -8.275  -2.420  0.00  0.00    +0.004 A 
ATOM     24  C   UNL     1       0.710  -8.072  -3.782  0.00  0.00    +0.046 A 
ATOM     25  C   UNL     1       1.159  -6.886  -4.344  0.00  0.00    +0.129 A 
ATOM     26  C   UNL     1       1.712  -5.903  -3.534  0.00  0.00    +0.052 A 
BRANCH  25  27
ATOM     27  O   UNL     1       1.053  -6.684  -5.683  0.00  0.00    -0.456 OA
BRANCH  27  28
ATOM     28  C   UNL     1       0.570  -7.700  -6.445  0.00  0.00    +0.128 A 
ATOM     29  C   UNL     1      -0.796  -7.939  -6.500  0.00  0.00    +0.046 A 
ATOM     30  C   UNL     1      -1.285  -8.972  -7.276  0.00  0.00    +0.004 A 
ATOM     31  C   UNL     1      -0.414  -9.768  -7.997  0.00  0.00    +0.000 A 
ATOM     32  C   UNL     1       0.947  -9.533  -7.943  0.00  0.00    +0.004 A 
ATOM     33  C   UNL     1       1.441  -8.497  -7.174  0.00  0.00    +0.046 A 
ENDBRANCH  27  28
ENDBRANCH  25  27
ENDBRANCH   2  21
BRANCH   1  34
ATOM     34  C   UNL     1       0.217  -4.469  -0.033  0.00  0.00    +0.144 C 
BRANCH  34  39
ATOM     35  C   UNL     1      -0.104   1.292   0.285  0.00  0.00    +0.044 C 
ATOM     36  C   UNL     1      -0.020  -0.210   0.202  0.00  0.00    -0.050 A 
ATOM     37  C   UNL     1      -0.002  -0.835  -1.031  0.00  0.00    +0.003 A 
ATOM     38  C   UNL     1       0.075  -2.213  -1.107  0.00  0.00    +0.005 A 
ATOM     39  C   UNL     1       0.134  -2.967   0.050  0.00  0.00    -0.030 A 
ATOM     40  C   UNL     1       0.116  -2.342   1.283  0.00  0.00    +0.005 A 
ATOM     41  C   UNL     1       0.044  -0.964   1.359  0.00  0.00    +0.003 A 
ENDBRANCH  34  39
ENDBRANCH   1  34
TORSDOF 7
