REMARK  Name = ZINC24680953
REMARK  11 active torsions:
REMARK  status: ('A' for Active; 'I' for Inactive)
REMARK    1  A    between atoms: C_1  and  C_2
REMARK    2  A    between atoms: C_4  and  C_29
REMARK    3  A    between atoms: C_9  and  C_28
REMARK    4  A    between atoms: C_10  and  C_14
REMARK    5  A    between atoms: C_11  and  C_13
REMARK    6  A    between atoms: C_14  and  C_15
REMARK    7  A    between atoms: N_17  and  C_18
REMARK    8  A    between atoms: C_20  and  C_26
REMARK    9  A    between atoms: C_20  and  C_27
REMARK   10  A    between atoms: C_22  and  C_24
REMARK   11  A    between atoms: C_22  and  C_25
REMARK                            x       y       z     vdW  Elec       q    Type
REMARK                         _______ _______ _______ _____ _____    ______ ____
ROOT
ATOM      1  C   UNL     1       0.002  -0.004   0.002  0.00  0.00    +0.134 C 
ENDROOT
BRANCH   1  11
ATOM      2  C   UNL     1      -5.173  -1.867  -5.042  0.00  0.00    +0.066 C 
ATOM      3  C   UNL     1      -5.322  -1.936  -3.544  0.00  0.00    +0.044 A 
ATOM      4  C   UNL     1      -6.506  -2.379  -2.976  0.00  0.00    +0.046 A 
ATOM      5  C   UNL     1      -6.600  -2.427  -1.594  0.00  0.00    +0.044 A 
ATOM      6  N   UNL     1      -5.563  -2.051  -0.864  0.00  0.00    -0.216 NA
ATOM      7  C   UNL     1      -4.447  -1.633  -1.439  0.00  0.00    +0.252 A 
ATOM      8  N   UNL     1      -4.326  -1.570  -2.755  0.00  0.00    -0.216 NA
ATOM      9  N   UNL     1      -3.374  -1.244  -0.637  0.00  0.00    -0.202 N 
ATOM     10  C   UNL     1      -2.168  -0.795  -1.075  0.00  0.00    +0.049 A 
ATOM     11  C   UNL     1      -1.412  -0.526   0.013  0.00  0.00    +0.005 A 
ATOM     12  C   UNL     1      -2.171  -0.822   1.151  0.00  0.00    +0.064 A 
ATOM     13  N   UNL     1      -3.346  -1.247   0.764  0.00  0.00    -0.169 NA
ATOM     14  C   UNL     1      -1.714  -0.674   2.579  0.00  0.00    +0.068 C 
ATOM     15  C   UNL     1      -1.750  -0.628  -2.514  0.00  0.00    +0.066 C 
ATOM     16  C   UNL     1      -7.868  -2.902  -0.932  0.00  0.00    +0.066 C 
ENDBRANCH   1  11
BRANCH   1  17
ATOM     17  C   UNL     1      -0.018   1.503   0.010  0.00  0.00    +0.218 C 
ATOM     18  O   UNL     1      -1.077   2.095   0.018  0.00  0.00    -0.275 OA
ATOM     19  N   UNL     1       1.139   2.192   0.003  0.00  0.00    -0.312 N 
ATOM     20  H   UNL     1       2.099   1.655  -0.009  0.00  0.00    +0.149 HD
BRANCH  19  21
ATOM     21  C   UNL     1       1.120   3.661   0.011  0.00  0.00    +0.070 C 
ATOM     22  C   UNL     1       1.009   4.170  -1.426  0.00  0.00    +0.009 C 
ATOM     23  C   UNL     1       1.010   5.697  -1.450  0.00  0.00    -0.072 C 
ATOM     24  N   UNL     1       2.083   6.275  -0.669  0.00  0.00    +0.386 N 
ATOM     25  C   UNL     1       2.442   5.705   0.613  0.00  0.00    -0.072 C 
ATOM     26  C   UNL     1       2.426   4.178   0.611  0.00  0.00    +0.009 C 
ATOM     27  C   UNL     1       1.526   6.226   1.727  0.00  0.00    -0.010 C 
ATOM     28  C   UNL     1       3.880   6.155   0.956  0.00  0.00    -0.010 C 
ATOM     29  C   UNL     1      -0.356   6.217  -0.985  0.00  0.00    -0.010 C 
ATOM     30  C   UNL     1       1.190   6.139  -2.919  0.00  0.00    -0.010 C 
ATOM     31  H   UNL     1       3.019   6.235  -1.246  0.00  0.00    -0.084 HD
ATOM     32  H   UNL     1       1.843   7.322  -0.433  0.00  0.00    -0.084 HD
ENDBRANCH  19  21
ENDBRANCH   1  17
TORSDOF 3
