REMARK  Name = ZINC14996254
REMARK  5 active torsions:
REMARK  status: ('A' for Active; 'I' for Inactive)
REMARK    1  A    between atoms: C_12  and  C_14
REMARK    2  A    between atoms: C_14  and  N_68
REMARK    3  A    between atoms: N_17  and  C_20
REMARK    4  A    between atoms: N_28  and  C_31
REMARK    5  A    between atoms: C_31  and  C_32
REMARK                            x       y       z     vdW  Elec       q    Type
REMARK                         _______ _______ _______ _____ _____    ______ ____
ROOT
ATOM      1  C   UNL     1      -0.612   3.022   1.334  0.00  0.00    -0.059 C 
ATOM      2  C   UNL     1      -1.405   3.482   2.559  0.00  0.00    +0.086 C 
ATOM      3  N   UNL     1      -0.870   2.826   3.761  0.00  0.00    -0.333 N 
ATOM      4  C   UNL     1      -0.959   1.364   3.643  0.00  0.00    +0.086 C 
ATOM      5  C   UNL     1      -0.165   0.904   2.418  0.00  0.00    -0.059 C 
ATOM      6  N   UNL     1      -0.727   1.553   1.215  0.00  0.00    +0.384 N 
ATOM      7  H   UNL     1      -1.720   1.302   1.133  0.00  0.00    -0.081 HD
ENDROOT
BRANCH   3   8
ATOM      8  C   UNL     1      -1.519   3.273   4.902  0.00  0.00    +0.043 A 
ATOM      9  C   UNL     1      -2.885   3.034   5.074  0.00  0.00    +0.024 A 
ATOM     10  C   UNL     1      -3.531   3.473   6.209  0.00  0.00    +0.003 A 
ATOM     11  C   UNL     1      -2.840   4.168   7.193  0.00  0.00    +0.014 A 
ATOM     12  C   UNL     1      -1.488   4.420   7.040  0.00  0.00    +0.051 A 
ATOM     13  C   UNL     1      -0.816   3.970   5.883  0.00  0.00    +0.070 A 
ATOM     14  C   UNL     1       0.585   4.397   6.037  0.00  0.00    +0.256 C 
ATOM     15  O   UNL     1       1.480   4.194   5.240  0.00  0.00    -0.269 OA
ATOM     16  N   UNL     1       0.710   5.051   7.206  0.00  0.00    -0.232 N 
ATOM     17  C   UNL     1      -0.466   5.107   7.857  0.00  0.00    +0.254 C 
ATOM     18  O   UNL     1      -0.656   5.634   8.934  0.00  0.00    -0.270 OA
BRANCH  16  19
ATOM     19  C   UNL     1       1.962   5.625   7.705  0.00  0.00    +0.148 C 
BRANCH  19  20
ATOM     20  C   UNL     1       2.705   4.580   8.540  0.00  0.00    +0.136 C 
ATOM     21  C   UNL     1       3.968   5.211   9.165  0.00  0.00    +0.035 C 
ATOM     22  C   UNL     1       5.006   4.063   9.039  0.00  0.00    +0.031 C 
ATOM     23  C   UNL     1       4.564   3.411   7.705  0.00  0.00    +0.160 C 
ATOM     24  O   UNL     1       3.130   3.500   7.701  0.00  0.00    -0.375 OA
ENDBRANCH  19  20
ENDBRANCH  16  19
ENDBRANCH   3   8
BRANCH   6  25
ATOM     25  C   UNL     1      -0.013   1.086   0.008  0.00  0.00    -0.043 C 
BRANCH  25  37
ATOM     26  C   UNL     1      -4.776   2.756  -6.725  0.00  0.00    +0.000 A 
ATOM     27  C   UNL     1      -3.906   3.820  -6.569  0.00  0.00    +0.001 A 
ATOM     28  C   UNL     1      -2.995   3.826  -5.534  0.00  0.00    +0.009 A 
ATOM     29  C   UNL     1      -2.947   2.755  -4.640  0.00  0.00    -0.014 A 
ATOM     30  C   UNL     1      -3.826   1.688  -4.806  0.00  0.00    -0.035 A 
ATOM     31  C   UNL     1      -4.734   1.691  -5.843  0.00  0.00    +0.004 A 
ATOM     32  C   UNL     1      -3.546   0.693  -3.707  0.00  0.00    +0.071 C 
ATOM     33  C   UNL     1      -2.422   1.281  -2.889  0.00  0.00    -0.035 A 
ATOM     34  C   UNL     1      -2.083   2.504  -3.460  0.00  0.00    -0.014 A 
ATOM     35  C   UNL     1      -1.060   3.265  -2.891  0.00  0.00    +0.009 A 
ATOM     36  C   UNL     1      -0.397   2.802  -1.774  0.00  0.00    +0.002 A 
ATOM     37  C   UNL     1      -0.742   1.585  -1.213  0.00  0.00    -0.064 A 
ATOM     38  C   UNL     1      -1.750   0.823  -1.775  0.00  0.00    +0.006 A 
ENDBRANCH  25  37
ENDBRANCH   6  25
TORSDOF 5
