REMARK  Name = ZINC08645021
REMARK  9 active torsions:
REMARK  status: ('A' for Active; 'I' for Inactive)
REMARK    1  A    between atoms: C_1  and  C_2
REMARK    2  A    between atoms: C_7  and  N_12
REMARK    3  A    between atoms: C_9  and  C_11
REMARK    4  A    between atoms: C_13  and  C_15
REMARK    5  A    between atoms: C_15  and  C_17
REMARK    6  A    between atoms: C_15  and  S_18
REMARK    7  A    between atoms: S_18  and  C_19
REMARK    8  A    between atoms: C_22  and  C_25
REMARK    9  A    between atoms: N_23  and  N_24
REMARK                            x       y       z     vdW  Elec       q    Type
REMARK                         _______ _______ _______ _____ _____    ______ ____
ROOT
ATOM      1  C   UNL     1       6.440   0.962   0.868  0.00  0.00    +0.209 A 
ATOM      2  N   UNL     1       6.609   2.231   0.570  0.00  0.00    -0.121 NA
ATOM      3  N   UNL     1       7.843   2.459   0.292  0.00  0.00    -0.127 NA
ATOM      4  C   UNL     1       8.536   1.348   0.385  0.00  0.00    +0.183 A 
ATOM      5  N   UNL     1       7.658   0.355   0.757  0.00  0.00    -0.224 N 
ENDROOT
BRANCH   4   6
ATOM      6  C   UNL     1       9.985   1.192   0.138  0.00  0.00    +0.039 A 
ATOM      7  C   UNL     1      10.452   0.141  -0.652  0.00  0.00    +0.014 A 
ATOM      8  C   UNL     1      11.805   0.003  -0.882  0.00  0.00    +0.021 A 
ATOM      9  C   UNL     1      12.700   0.900  -0.325  0.00  0.00    +0.042 A 
ATOM     10  C   UNL     1      12.245   1.943   0.463  0.00  0.00    +0.040 A 
ATOM     11  C   UNL     1      10.892   2.094   0.698  0.00  0.00    +0.053 A 
ATOM     12 CL   UNL     1      10.322   3.402   1.687  0.00  0.00    -0.083 Cl
ATOM     13 CL   UNL     1      14.402   0.716  -0.615  0.00  0.00    -0.083 Cl
ENDBRANCH   4   6
BRANCH   5  14
ATOM     14  N   UNL     1       7.946  -0.963   0.971  0.00  0.00    -0.295 N 
ATOM     15  H   UNL     1       7.931  -1.482   0.105  0.00  0.00    +0.163 HD
ATOM     16  H   UNL     1       8.834  -1.068   1.439  0.00  0.00    +0.163 HD
ENDBRANCH   5  14
BRANCH   1  17
ATOM     17  S   UNL     1       4.923   0.188   1.318  0.00  0.00    -0.072 S 
BRANCH  17  18
ATOM     18  C   UNL     1       3.808   1.611   1.242  0.00  0.00    +0.137 C 
ATOM     19  C   UNL     1       4.203   2.626   2.317  0.00  0.00    +0.029 C 
BRANCH  18  21
ATOM     20  N   UNL     1       1.361   1.874   0.996  0.00  0.00    -0.311 N 
ATOM     21  C   UNL     1       2.392   1.154   1.480  0.00  0.00    +0.226 C 
ATOM     22  O   UNL     1       2.180   0.137   2.107  0.00  0.00    -0.275 OA
ATOM     23  H   UNL     1       1.530   2.687   0.494  0.00  0.00    +0.149 HD
BRANCH  20  29
ATOM     24  C   UNL     1      -3.268   2.082  -0.729  0.00  0.00    +0.008 C 
ATOM     25  C   UNL     1      -2.361   1.523   0.369  0.00  0.00    -0.009 C 
ATOM     26  C   UNL     1      -2.838   2.029   1.732  0.00  0.00    +0.003 C 
ATOM     27  C   UNL     1      -1.931   1.470   2.830  0.00  0.00    +0.002 C 
ATOM     28  C   UNL     1      -0.493   1.935   2.589  0.00  0.00    +0.022 C 
ATOM     29  C   UNL     1      -0.016   1.429   1.226  0.00  0.00    +0.076 C 
ATOM     30  C   UNL     1      -0.923   1.988   0.128  0.00  0.00    +0.009 C 
ATOM     31  C   UNL     1      -0.870   3.517   0.152  0.00  0.00    +0.009 C 
ENDBRANCH  20  29
ENDBRANCH  18  21
ENDBRANCH  17  18
ENDBRANCH   1  17
TORSDOF 6
