REMARK  Name = ZINC14881248
REMARK  11 active torsions:
REMARK  status: ('A' for Active; 'I' for Inactive)
REMARK    1  A    between atoms: C_1  and  C_2
REMARK    2  A    between atoms: C_3  and  C_36
REMARK    3  A    between atoms: C_4  and  O_34
REMARK    4  A    between atoms: C_7  and  C_8
REMARK    5  A    between atoms: C_8  and  N_72
REMARK    6  A    between atoms: C_11  and  C_14
REMARK    7  A    between atoms: C_11  and  O_33
REMARK    8  A    between atoms: C_21  and  C_23
REMARK    9  A    between atoms: N_25  and  C_26
REMARK   10  A    between atoms: C_26  and  C_27
REMARK   11  A    between atoms: O_34  and  C_35
REMARK                            x       y       z     vdW  Elec       q    Type
REMARK                         _______ _______ _______ _____ _____    ______ ____
ROOT
ATOM      1  C   UNL     1     -14.939   2.226   1.748  0.00  0.00    -0.075 C 
ATOM      2  C   UNL     1     -13.411   2.194   1.679  0.00  0.00    +0.021 C 
ATOM      3  C   UNL     1     -12.977   1.804   0.263  0.00  0.00    +0.088 C 
ATOM      4  C   UNL     1     -13.567   2.802  -0.737  0.00  0.00    +0.021 C 
ATOM      5  C   UNL     1     -15.091   2.816  -0.597  0.00  0.00    -0.075 C 
ATOM      6  N   UNL     1     -15.443   3.223   0.780  0.00  0.00    +0.383 N 
ATOM      7  H   UNL     1     -15.008   4.131   0.980  0.00  0.00    -0.081 HD
ENDROOT
BRANCH   3   8
ATOM      8  C   UNL     1     -11.473   1.829   0.172  0.00  0.00    -0.015 A 
ATOM      9  C   UNL     1     -10.749   2.708   0.966  0.00  0.00    +0.010 A 
ATOM     10  C   UNL     1      -9.373   2.748   0.899  0.00  0.00    +0.047 A 
ATOM     11  C   UNL     1      -8.698   1.901   0.028  0.00  0.00    +0.136 A 
ATOM     12  C   UNL     1      -9.437   1.012  -0.774  0.00  0.00    +0.021 A 
ATOM     13  C   UNL     1     -10.831   0.987  -0.691  0.00  0.00    +0.018 A 
ATOM     14  C   UNL     1      -8.449   0.275  -1.562  0.00  0.00    +0.063 A 
ATOM     15  C   UNL     1      -7.235   0.757  -1.190  0.00  0.00    +0.190 A 
ATOM     16  O   UNL     1      -7.393   1.711  -0.248  0.00  0.00    -0.450 OA
BRANCH  15  17
ATOM     17  C   UNL     1      -5.944   0.304  -1.727  0.00  0.00    +0.279 C 
ATOM     18  O   UNL     1      -5.910  -0.569  -2.573  0.00  0.00    -0.267 OA
ATOM     19  N   UNL     1      -4.798   0.856  -1.282  0.00  0.00    -0.306 N 
ATOM     20  H   UNL     1      -4.825   1.553  -0.607  0.00  0.00    +0.149 HD
BRANCH  19  21
ATOM     21  C   UNL     1      -3.511   0.405  -1.817  0.00  0.00    +0.136 C 
BRANCH  21  22
ATOM     22  C   UNL     1      -2.379   1.187  -1.149  0.00  0.00    +0.135 C 
ATOM     23  C   UNL     1      -1.031   0.809  -1.793  0.00  0.00    +0.035 C 
ATOM     24  C   UNL     1      -0.184   0.270  -0.615  0.00  0.00    +0.031 C 
ATOM     25  C   UNL     1      -0.903   0.888   0.612  0.00  0.00    +0.160 C 
ATOM     26  O   UNL     1      -2.299   0.838   0.243  0.00  0.00    -0.375 OA
ENDBRANCH  21  22
ENDBRANCH  19  21
ENDBRANCH  15  17
ENDBRANCH   3   8
BRANCH   3  27
ATOM     27  O   UNL     1     -13.451   0.489  -0.036  0.00  0.00    -0.384 OA
ATOM     28  H   UNL     1     -13.214   0.177  -0.920  0.00  0.00    +0.211 HD
ENDBRANCH   3  27
BRANCH   6  29
ATOM     29  C   UNL     1     -16.909   3.354   0.908  0.00  0.00    -0.043 C 
BRANCH  29  36
ATOM     30  C   UNL     1     -16.416   6.193   1.098  0.00  0.00    +0.044 C 
ATOM     31  C   UNL     1     -17.179   5.638  -0.077  0.00  0.00    -0.043 A 
ATOM     32  C   UNL     1     -17.637   6.488  -1.066  0.00  0.00    -0.006 A 
ATOM     33  C   UNL     1     -18.344   5.978  -2.144  0.00  0.00    +0.123 A 
ATOM     34  C   UNL     1     -18.585   4.614  -2.231  0.00  0.00    +0.046 A 
ATOM     35  C   UNL     1     -18.120   3.768  -1.243  0.00  0.00    +0.005 A 
ATOM     36  C   UNL     1     -17.415   4.279  -0.168  0.00  0.00    -0.061 A 
ATOM     37  C   UNL     1     -17.374   7.969  -0.969  0.00  0.00    +0.048 C 
BRANCH  33  38
ATOM     38  O   UNL     1     -18.801   6.812  -3.115  0.00  0.00    -0.495 OA
ATOM     39  C   UNL     1     -19.521   6.217  -4.197  0.00  0.00    +0.277 C 
ENDBRANCH  33  38
ENDBRANCH  29  36
ENDBRANCH   6  29
TORSDOF 8
