REMARK  Name = ZINC63763651
REMARK  1 active torsions:
REMARK  status: ('A' for Active; 'I' for Inactive)
REMARK    1  A    between atoms: C_6  and  N_7
REMARK                            x       y       z     vdW  Elec       q    Type
REMARK                         _______ _______ _______ _____ _____    ______ ____
ROOT
ATOM      1  N   UNL     1      -1.198  -0.720   0.010  0.00  0.00    -0.262 N 
ATOM      2  C   UNL     1      -1.316  -2.195   0.009  0.00  0.00    +0.158 C 
ATOM      3  C   UNL     1      -2.793  -2.470   0.014  0.00  0.00    -0.004 C 
ATOM      4  C   UNL     1      -3.676  -3.391   0.356  0.00  0.00    +0.135 C 
ATOM      5  N   UNL     1      -4.989  -3.119   0.364  0.00  0.00    -0.165 NA
ATOM      6  N   UNL     1      -5.515  -1.973   0.147  0.00  0.00    -0.079 NA
ATOM      7  C   UNL     1      -4.792  -0.898  -0.258  0.00  0.00    +0.276 C 
ATOM      8  O   UNL     1      -5.277   0.210  -0.347  0.00  0.00    -0.270 OA
ATOM      9  C   UNL     1      -3.345  -1.171  -0.591  0.00  0.00    +0.191 C 
ATOM     10  N   UNL     1      -2.462  -0.165   0.026  0.00  0.00    -0.224 NA
ATOM     11  H   UNL     1      -2.752   0.046   0.969  0.00  0.00    +0.146 HD
ENDROOT
BRANCH   1  17
ATOM     12  C   UNL     1      -0.017   1.385   0.010  0.00  0.00    +0.025 A 
ATOM     13  C   UNL     1       1.171   2.090   0.002  0.00  0.00    +0.017 A 
ATOM     14  C   UNL     1       2.378   1.415  -0.013  0.00  0.00    +0.018 A 
ATOM     15  C   UNL     1       2.400   0.031  -0.021  0.00  0.00    +0.017 A 
ATOM     16  C   UNL     1       1.216  -0.679  -0.014  0.00  0.00    +0.025 A 
ATOM     17  C   UNL     1       0.002  -0.004   0.002  0.00  0.00    +0.045 A 
ATOM     18 BR   UNL     1       4.002   2.384  -0.025  0.00  0.00    -0.050 Br
ENDBRANCH   1  17
TORSDOF 1
