REMARK  Name = ZINC44938138
REMARK  4 active torsions:
REMARK  status: ('A' for Active; 'I' for Inactive)
REMARK    1  A    between atoms: C_4  and  C_7
REMARK    2  A    between atoms: C_12  and  C_13
REMARK    3  A    between atoms: C_13  and  N_14
REMARK    4  A    between atoms: N_17  and  C_20
REMARK                            x       y       z     vdW  Elec       q    Type
REMARK                         _______ _______ _______ _____ _____    ______ ____
ROOT
ATOM      1  N   UNL     1       1.911  -3.146   1.050  0.00  0.00    -0.295 NA
ATOM      2  C   UNL     1       1.312  -2.576  -0.164  0.00  0.00    +0.103 C 
ATOM      3  C   UNL     1       0.582  -3.680  -0.936  0.00  0.00    +0.120 C 
ATOM      4  N   UNL     1      -0.367  -4.338  -0.025  0.00  0.00    -0.327 N 
ATOM      5  C   UNL     1       0.132  -4.814   1.274  0.00  0.00    +0.120 C 
ATOM      6  C   UNL     1       0.880  -3.666   1.959  0.00  0.00    +0.103 C 
ENDROOT
BRANCH   4   7
ATOM      7  C   UNL     1      -1.709  -4.505  -0.385  0.00  0.00    +0.032 A 
ATOM      8  C   UNL     1      -2.180  -3.966  -1.576  0.00  0.00    +0.025 A 
ATOM      9  C   UNL     1      -3.503  -4.128  -1.936  0.00  0.00    +0.029 A 
ATOM     10  C   UNL     1      -4.365  -4.831  -1.108  0.00  0.00    +0.067 A 
ATOM     11  C   UNL     1      -3.894  -5.374   0.089  0.00  0.00    +0.069 A 
ATOM     12  C   UNL     1      -2.564  -5.214   0.446  0.00  0.00    +0.051 A 
ATOM     13  N   UNL     1      -4.974  -6.012   0.695  0.00  0.00    -0.306 N 
ATOM     14  H   UNL     1      -4.953  -6.482   1.543  0.00  0.00    +0.170 HD
ATOM     15  C   UNL     1      -6.053  -5.865  -0.097  0.00  0.00    +0.325 A 
ATOM     16  O   UNL     1      -7.162  -6.305   0.141  0.00  0.00    -0.247 OA
ATOM     17  N   UNL     1      -5.719  -5.157  -1.193  0.00  0.00    -0.306 N 
ATOM     18  H   UNL     1      -6.317  -4.915  -1.917  0.00  0.00    +0.170 HD
ENDBRANCH   4   7
BRANCH   1  19
ATOM     19  C   UNL     1       2.763  -2.161   1.729  0.00  0.00    +0.120 C 
BRANCH  19  25
ATOM     20  C   UNL     1       5.015  -2.924   0.916  0.00  0.00    -0.013 A 
ATOM     21  C   UNL     1       6.174  -2.722   0.168  0.00  0.00    +0.009 A 
ATOM     22  C   UNL     1       6.333  -1.556  -0.552  0.00  0.00    +0.001 A 
ATOM     23  C   UNL     1       5.345  -0.588  -0.533  0.00  0.00    +0.000 A 
ATOM     24  C   UNL     1       4.194  -0.782   0.208  0.00  0.00    +0.005 A 
ATOM     25  C   UNL     1       4.021  -1.948   0.928  0.00  0.00    -0.026 A 
BRANCH  20  29
ATOM     26  C   UNL     1       4.509  -6.512   3.140  0.00  0.00    +0.000 A 
ATOM     27  C   UNL     1       4.742  -6.573   1.778  0.00  0.00    +0.001 A 
ATOM     28  C   UNL     1       4.907  -5.412   1.051  0.00  0.00    +0.008 A 
ATOM     29  C   UNL     1       4.838  -4.176   1.692  0.00  0.00    -0.018 A 
ATOM     30  C   UNL     1       4.604  -4.121   3.065  0.00  0.00    +0.008 A 
ATOM     31  C   UNL     1       4.441  -5.289   3.782  0.00  0.00    +0.001 A 
ENDBRANCH  20  29
ENDBRANCH  19  25
ENDBRANCH   1  19
TORSDOF 4
