REMARK  Name = ZINC08744619
REMARK  6 active torsions:
REMARK  status: ('A' for Active; 'I' for Inactive)
REMARK    1  A    between atoms: C_1  and  N_2
REMARK    2  A    between atoms: C_12  and  C_14
REMARK    3  A    between atoms: C_18  and  O_22
REMARK    4  A    between atoms: C_19  and  O_20
REMARK    5  A    between atoms: O_20  and  C_21
REMARK    6  A    between atoms: O_22  and  C_23
REMARK                            x       y       z     vdW  Elec       q    Type
REMARK                         _______ _______ _______ _____ _____    ______ ____
ROOT
ATOM      1  C   UNL     1      -0.018   1.461   0.010  0.00  0.00    +0.131 C 
ATOM      2  N   UNL     1       0.002  -0.004   0.002  0.00  0.00    -0.310 N 
ATOM      3  C   UNL     1       0.006  -0.705  -1.199  0.00  0.00    +0.043 A 
ATOM      4  C   UNL     1      -0.574  -0.190  -2.346  0.00  0.00    +0.024 A 
ATOM      5  C   UNL     1      -0.535  -0.920  -3.518  0.00  0.00    +0.002 A 
ATOM      6  C   UNL     1       0.078  -2.162  -3.555  0.00  0.00    +0.001 A 
ATOM      7  C   UNL     1       0.657  -2.691  -2.421  0.00  0.00    +0.015 A 
ATOM      8  C   UNL     1       0.622  -1.969  -1.230  0.00  0.00    +0.058 A 
ATOM      9  C   UNL     1       1.204  -2.502   0.014  0.00  0.00    +0.247 C 
ATOM     10  O   UNL     1       1.885  -3.509  -0.009  0.00  0.00    -0.270 OA
ATOM     11  N   UNL     1       0.975  -1.862   1.179  0.00  0.00    -0.289 N 
ATOM     12  C   UNL     1       0.024  -0.758   1.261  0.00  0.00    +0.196 C 
ATOM     13  H   UNL     1       1.452  -2.140   1.976  0.00  0.00    +0.151 HD
ENDROOT
BRANCH  12  14
ATOM     14  C   UNL     1      -1.351  -1.309   1.537  0.00  0.00    +0.036 A 
ATOM     15  C   UNL     1      -2.464  -0.692   0.996  0.00  0.00    +0.011 A 
ATOM     16  C   UNL     1      -3.727  -1.194   1.247  0.00  0.00    +0.004 A 
ATOM     17  C   UNL     1      -3.883  -2.316   2.041  0.00  0.00    +0.049 A 
ATOM     18  C   UNL     1      -2.772  -2.939   2.585  0.00  0.00    +0.162 A 
ATOM     19  C   UNL     1      -1.500  -2.436   2.327  0.00  0.00    +0.168 A 
BRANCH  19  20
ATOM     20  O   UNL     1      -0.406  -3.048   2.855  0.00  0.00    -0.491 OA
ATOM     21  C   UNL     1       0.029  -2.603   4.142  0.00  0.00    +0.277 C 
ENDBRANCH  19  20
BRANCH  18  22
ATOM     22  O   UNL     1      -2.924  -4.042   3.366  0.00  0.00    -0.491 OA
ATOM     23  C   UNL     1      -4.258  -4.505   3.583  0.00  0.00    +0.277 C 
ENDBRANCH  18  22
ENDBRANCH  12  14
TORSDOF 3
