REMARK  Name = ZINC67381927
REMARK  5 active torsions:
REMARK  status: ('A' for Active; 'I' for Inactive)
REMARK    1  A    between atoms: C_1  and  C_2
REMARK    2  A    between atoms: C_2  and  C_3
REMARK    3  A    between atoms: C_2  and  N_4
REMARK    4  A    between atoms: C_7  and  N_10
REMARK    5  A    between atoms: C_17  and  C_19
REMARK                            x       y       z     vdW  Elec       q    Type
REMARK                         _______ _______ _______ _____ _____    ______ ____
ROOT
ATOM      1  N   UNL     1       1.705  -2.396   4.818  0.00  0.00    -0.297 N 
ATOM      2  C   UNL     1       1.526  -3.618   5.358  0.00  0.00    +0.303 C 
ATOM      3  O   UNL     1       0.690  -4.370   4.894  0.00  0.00    -0.253 OA
ATOM      4  N   UNL     1       2.272  -4.006   6.410  0.00  0.00    -0.278 N 
ATOM      5  C   UNL     1       3.311  -3.196   7.073  0.00  0.00    +0.110 C 
ATOM      6  C   UNL     1       3.409  -3.773   8.507  0.00  0.00    +0.021 C 
ATOM      7  C   UNL     1       3.205  -5.289   8.247  0.00  0.00    +0.029 C 
ATOM      8  C   UNL     1       2.181  -5.305   7.093  0.00  0.00    +0.111 C 
ATOM      9  H   UNL     1       2.371  -1.796   5.188  0.00  0.00    +0.151 HD
ENDROOT
BRANCH   8  10
ATOM     10  C   UNL     1       2.516  -6.415   6.130  0.00  0.00    +0.018 A 
ATOM     11  C   UNL     1       3.320  -6.159   5.035  0.00  0.00    +0.009 A 
ATOM     12  C   UNL     1       3.629  -7.175   4.149  0.00  0.00    +0.004 A 
ATOM     13  C   UNL     1       3.133  -8.449   4.355  0.00  0.00    +0.049 A 
ATOM     14  C   UNL     1       2.325  -8.711   5.451  0.00  0.00    +0.162 A 
ATOM     15  C   UNL     1       2.021  -7.692   6.346  0.00  0.00    +0.167 A 
ATOM     16  O   UNL     1       1.241  -7.931   7.435  0.00  0.00    -0.485 OA
ATOM     17  C   UNL     1       0.460  -9.131   7.416  0.00  0.00    +0.270 C 
ATOM     18  C   UNL     1       1.361 -10.284   6.953  0.00  0.00    +0.270 C 
ATOM     19  O   UNL     1       1.841  -9.970   5.638  0.00  0.00    -0.485 OA
ENDBRANCH   8  10
BRANCH   1  23
ATOM     20  N   UNL     1       0.713  -0.491   1.192  0.00  0.00    +0.381 N 
ATOM     21  C   UNL     1       0.030  -0.009   2.399  0.00  0.00    -0.077 C 
ATOM     22  C   UNL     1       0.811  -0.445   3.640  0.00  0.00    +0.004 C 
ATOM     23  C   UNL     1       0.893  -1.974   3.674  0.00  0.00    +0.071 C 
ATOM     24  C   UNL     1       1.540  -2.469   2.377  0.00  0.00    +0.004 C 
ATOM     25  C   UNL     1       0.732  -1.958   1.183  0.00  0.00    -0.077 C 
ATOM     26  H   UNL     1       1.660  -0.143   1.183  0.00  0.00    -0.081 HD
BRANCH  20  28
ATOM     27  C   UNL     1      -0.019   1.526   0.010  0.00  0.00    -0.014 C 
ATOM     28  C   UNL     1       0.002  -0.004   0.002  0.00  0.00    -0.075 C 
ATOM     29  C   UNL     1       0.718  -0.497  -1.257  0.00  0.00    -0.014 C 
ENDBRANCH  20  28
ENDBRANCH   1  23
TORSDOF 3
