REMARK  Name = ZINC57327702
REMARK  6 active torsions:
REMARK  status: ('A' for Active; 'I' for Inactive)
REMARK    1  A    between atoms: C_1  and  C_2
REMARK    2  A    between atoms: C_2  and  C_24
REMARK    3  A    between atoms: N_3  and  N_4
REMARK    4  A    between atoms: C_8  and  C_15
REMARK    5  A    between atoms: C_15  and  C_17
REMARK    6  A    between atoms: C_15  and  O_23
REMARK                            x       y       z     vdW  Elec       q    Type
REMARK                         _______ _______ _______ _____ _____    ______ ____
ROOT
ATOM      1  N   UNL     1       0.023   0.044   2.324  0.00  0.00    -0.215 N 
ATOM      2  C   UNL     1       0.044  -0.653   3.516  0.00  0.00    +0.179 A 
ATOM      3  N   UNL     1       0.044  -0.185   4.744  0.00  0.00    -0.223 NA
ATOM      4  C   UNL     1       0.066  -0.992   5.827  0.00  0.00    +0.086 A 
ATOM      5  C   UNL     1       0.069  -0.621   7.192  0.00  0.00    +0.013 A 
ATOM      6  C   UNL     1       0.094  -1.573   8.177  0.00  0.00    +0.028 A 
ATOM      7  C   UNL     1       0.117  -2.929   7.875  0.00  0.00    +0.043 A 
ATOM      8  C   UNL     1       0.114  -3.327   6.550  0.00  0.00    +0.037 A 
ATOM      9  C   UNL     1       0.089  -2.380   5.557  0.00  0.00    +0.043 A 
ATOM     10  S   UNL     1       0.070  -2.420   3.781  0.00  0.00    -0.051 S 
ATOM     11 CL   UNL     1       0.148  -4.110   9.146  0.00  0.00    -0.083 Cl
ATOM     12  H   UNL     1       0.010   1.014   2.329  0.00  0.00    +0.176 HD
ENDROOT
BRANCH   1  15
ATOM     13  C   UNL     1      -0.018   1.503   0.010  0.00  0.00    +0.062 C 
ATOM     14  C   UNL     1       0.002  -0.004   0.002  0.00  0.00    +0.031 C 
ATOM     15  N   UNL     1       0.021  -0.650   1.107  0.00  0.00    -0.190 NA
ATOM     16  C   UNL     1      -0.000  -0.750  -1.307  0.00  0.00    +0.062 C 
ENDBRANCH   1  15
BRANCH   5  17
ATOM     17  C   UNL     1       0.045   0.838   7.567  0.00  0.00    +0.177 C 
BRANCH  17  18
ATOM     18  C   UNL     1       1.451   1.381   7.562  0.00  0.00    -0.015 A 
ATOM     19  C   UNL     1       2.286   1.148   8.639  0.00  0.00    +0.006 A 
ATOM     20  C   UNL     1       3.575   1.646   8.634  0.00  0.00    +0.000 A 
ATOM     21  C   UNL     1       4.030   2.377   7.552  0.00  0.00    +0.000 A 
ATOM     22  C   UNL     1       3.196   2.610   6.475  0.00  0.00    +0.000 A 
ATOM     23  C   UNL     1       1.907   2.108   6.478  0.00  0.00    +0.006 A 
ENDBRANCH  17  18
BRANCH  17  24
ATOM     24  O   UNL     1      -0.517   0.985   8.872  0.00  0.00    -0.382 OA
ATOM     25  H   UNL     1      -0.029   0.520   9.566  0.00  0.00    +0.211 HD
ENDBRANCH  17  24
ENDBRANCH   5  17
TORSDOF 4
