REMARK  Name = ZINC65388234
REMARK  2 active torsions:
REMARK  status: ('A' for Active; 'I' for Inactive)
REMARK    1  A    between atoms: C_8  and  C_16
REMARK    2  A    between atoms: C_11  and  C_13
REMARK                            x       y       z     vdW  Elec       q    Type
REMARK                         _______ _______ _______ _____ _____    ______ ____
ROOT
ATOM      1  C   UNL     1      -0.017   1.378   0.010  0.00  0.00    +0.005 A 
ATOM      2  C   UNL     1       1.195   2.058   0.002  0.00  0.00    +0.020 A 
ATOM      3  C   UNL     1       2.373   1.340  -0.013  0.00  0.00    +0.113 A 
ATOM      4  N   UNL     1       2.362   0.020  -0.020  0.00  0.00    -0.239 NA
ATOM      5  C   UNL     1       1.228  -0.664  -0.013  0.00  0.00    +0.143 A 
ATOM      6  C   UNL     1       0.002  -0.004   0.002  0.00  0.00    +0.045 A 
ATOM      7  N   UNL     1       1.262  -2.052  -0.021  0.00  0.00    -0.181 N 
ATOM      8  C   UNL     1       2.460  -2.909  -0.032  0.00  0.00    +0.215 C 
ATOM      9  N   UNL     1       1.913  -4.276  -0.037  0.00  0.00    -0.308 N 
ATOM     10  C   UNL     1       0.535  -4.150  -0.030  0.00  0.00    +0.118 C 
ATOM     11  N   UNL     1       0.164  -2.921  -0.015  0.00  0.00    -0.165 NA
ATOM     12  H   UNL     1       2.420  -5.104  -0.045  0.00  0.00    +0.149 HD
ENDROOT
BRANCH   8  13
ATOM     13  C   UNL     1       3.280  -2.658  -1.272  0.00  0.00    -0.009 C 
ATOM     14  C   UNL     1       4.540  -2.236  -1.129  0.00  0.00    +0.011 C 
ATOM     15  C   UNL     1       5.350  -1.929  -2.354  0.00  0.00    +0.158 C 
ATOM     16  C   UNL     1       4.816  -2.789  -3.484  0.00  0.00    -0.018 C 
ATOM     17  C   UNL     1       5.897  -3.362  -4.042  0.00  0.00    +0.025 C 
ATOM     18  C   UNL     1       7.037  -3.068  -3.262  0.00  0.00    +0.106 C 
ATOM     19  N   UNL     1       6.761  -2.277  -2.262  0.00  0.00    -0.279 NA
ATOM     20  C   UNL     1       3.437  -2.985  -3.695  0.00  0.00    +0.006 C 
ATOM     21  C   UNL     1       2.662  -2.893  -2.574  0.00  0.00    +0.007 C 
ENDBRANCH   8  13
BRANCH  10  22
ATOM     22  C   UNL     1      -0.418  -5.317  -0.033  0.00  0.00    +0.054 C 
ATOM     23  C   UNL     1      -1.630  -5.238  -0.963  0.00  0.00    +0.012 C 
ATOM     24  C   UNL     1      -1.815  -5.090   0.549  0.00  0.00    +0.012 C 
ENDBRANCH  10  22
TORSDOF 2
