REMARK  Name = ZINC01791637
REMARK  6 active torsions:
REMARK  status: ('A' for Active; 'I' for Inactive)
REMARK    1  A    between atoms: C_1  and  C_2
REMARK    2  A    between atoms: C_2  and  C_3
REMARK    3  A    between atoms: C_11  and  C_12
REMARK    4  A    between atoms: C_15  and  O_18
REMARK    5  A    between atoms: O_18  and  C_19
REMARK    6  A    between atoms: C_19  and  C_20
REMARK                            x       y       z     vdW  Elec       q    Type
REMARK                         _______ _______ _______ _____ _____    ______ ____
ROOT
ATOM      1  C   UNL     1       2.661   0.434  -0.073  0.00  0.00    +0.007 C 
ATOM      2  C   UNL     1       3.572  -0.486  -0.378  0.00  0.00    +0.092 A 
ATOM      3  N   UNL     1       3.604  -1.365  -1.463  0.00  0.00    -0.283 N 
ATOM      4  H   UNL     1       2.876  -1.388  -2.103  0.00  0.00    +0.188 HD
ATOM      5  N   UNL     1       4.693  -2.201  -1.604  0.00  0.00    -0.212 N 
ATOM      6  C   UNL     1       4.940  -3.026  -2.721  0.00  0.00    +0.160 A 
ATOM      7  N   UNL     1       4.457  -2.788  -3.911  0.00  0.00    -0.281 NA
ATOM      8  C   UNL     1       5.809  -4.197  -2.408  0.00  0.00    +0.085 A 
ATOM      9  C   UNL     1       5.653  -5.407  -3.044  0.00  0.00    +0.025 C 
ATOM     10  C   UNL     1       6.850  -3.985  -1.372  0.00  0.00    +0.283 A 
ATOM     11  O   UNL     1       7.856  -4.673  -1.346  0.00  0.00    -0.265 OA
ATOM     12  N   UNL     1       6.652  -3.011  -0.459  0.00  0.00    -0.182 NA
ATOM     13  C   UNL     1       5.623  -2.214  -0.582  0.00  0.00    +0.199 A 
ATOM     14  S   UNL     1       5.075  -0.912   0.490  0.00  0.00    -0.031 S 
ATOM     15  H   UNL     1       3.897  -2.010  -4.060  0.00  0.00    +0.188 HD
ENDROOT
BRANCH   9  16
ATOM     16  C   UNL     1       6.396  -6.581  -2.578  0.00  0.00    -0.024 A 
ATOM     17  C   UNL     1       6.611  -6.778  -1.207  0.00  0.00    +0.011 A 
ATOM     18  C   UNL     1       7.304  -7.875  -0.778  0.00  0.00    +0.046 A 
ATOM     19  C   UNL     1       7.796  -8.794  -1.699  0.00  0.00    +0.121 A 
ATOM     20  C   UNL     1       7.585  -8.604  -3.061  0.00  0.00    +0.046 A 
ATOM     21  C   UNL     1       6.889  -7.514  -3.502  0.00  0.00    +0.011 A 
BRANCH  19  22
ATOM     22  O   UNL     1       8.484  -9.881  -1.267  0.00  0.00    -0.487 OA
BRANCH  22  23
ATOM     23  C   UNL     1       8.961 -10.785  -2.266  0.00  0.00    +0.266 C 
BRANCH  23  24
ATOM     24  C   UNL     1       9.696 -11.922  -1.603  0.00  0.00    +0.008 A 
ATOM     25  C   UNL     1       9.810 -11.963  -0.226  0.00  0.00    +0.008 A 
ATOM     26  C   UNL     1      10.484 -13.005   0.381  0.00  0.00    +0.000 A 
ATOM     27  C   UNL     1      11.044 -14.009  -0.388  0.00  0.00    +0.001 A 
ATOM     28  C   UNL     1      10.931 -13.969  -1.765  0.00  0.00    +0.020 A 
ATOM     29  C   UNL     1      10.251 -12.929  -2.373  0.00  0.00    +0.047 A 
ATOM     30 CL   UNL     1      10.102 -12.882  -4.102  0.00  0.00    -0.083 Cl
ENDBRANCH  23  24
ENDBRANCH  22  23
ENDBRANCH  19  22
ENDBRANCH   9  16
BRANCH   1  32
ATOM     31  C   UNL     1       2.778   2.765   0.766  0.00  0.00    +0.008 C 
ATOM     32  C   UNL     1       2.834   1.287   1.157  0.00  0.00    +0.026 C 
ENDBRANCH   1  32
TORSDOF 5
