REMARK  Name = ZINC43401199
REMARK  6 active torsions:
REMARK  status: ('A' for Active; 'I' for Inactive)
REMARK    1  A    between atoms: C_1  and  C_2
REMARK    2  A    between atoms: C_5  and  C_18
REMARK    3  A    between atoms: C_6  and  N_8
REMARK    4  A    between atoms: N_8  and  C_9
REMARK    5  A    between atoms: N_8  and  C_10
REMARK    6  A    between atoms: C_10  and  C_11
REMARK                            x       y       z     vdW  Elec       q    Type
REMARK                         _______ _______ _______ _____ _____    ______ ____
ROOT
ATOM      1  C   UNL     1      -2.943  -1.168  -0.433  0.00  0.00    +0.065 C 
ATOM      2  C   UNL     1      -1.544  -1.445   0.054  0.00  0.00    +0.040 A 
ATOM      3  C   UNL     1      -0.470  -1.185  -0.779  0.00  0.00    +0.024 A 
ATOM      4  C   UNL     1       0.815  -1.439  -0.333  0.00  0.00    +0.016 A 
ATOM      5  C   UNL     1       0.981  -1.955   0.957  0.00  0.00    +0.052 A 
ATOM      6  C   UNL     1      -0.158  -2.192   1.743  0.00  0.00    +0.132 A 
ATOM      7  N   UNL     1      -1.365  -1.926   1.269  0.00  0.00    -0.237 NA
ENDROOT
BRANCH   5   8
ATOM      8  C   UNL     1       2.330  -2.244   1.481  0.00  0.00    +0.098 C 
ATOM      9  N   UNL     1       3.137  -3.076   0.823  0.00  0.00    -0.387 N 
ATOM     10  N   UNL     1       2.741  -1.673   2.614  0.00  0.00    -0.344 N 
ATOM     11  H   UNL     1       3.994  -3.323   1.204  0.00  0.00    +0.157 HD
ATOM     12  H   UNL     1       2.154  -1.067   3.092  0.00  0.00    +0.144 HD
ATOM     13  H   UNL     1       3.628  -1.863   2.958  0.00  0.00    +0.144 HD
ATOM     14  H   UNL     1       2.867  -3.435  -0.037  0.00  0.00    +0.157 HD
ENDBRANCH   5   8
BRANCH   6  15
ATOM     15  N   UNL     1      -0.018  -2.702   3.021  0.00  0.00    -0.313 N 
ATOM     16  C   UNL     1       0.119  -4.147   3.222  0.00  0.00    +0.131 C 
BRANCH  15  17
ATOM     17  C   UNL     1      -0.005  -1.797   4.173  0.00  0.00    +0.142 C 
BRANCH  17  18
ATOM     18  C   UNL     1      -1.422  -1.495   4.590  0.00  0.00    -0.016 A 
ATOM     19  C   UNL     1      -2.031  -0.327   4.171  0.00  0.00    +0.006 A 
ATOM     20  C   UNL     1      -3.330  -0.050   4.553  0.00  0.00    +0.000 A 
ATOM     21  C   UNL     1      -4.021  -0.941   5.353  0.00  0.00    +0.001 A 
ATOM     22  C   UNL     1      -3.413  -2.109   5.772  0.00  0.00    +0.015 A 
ATOM     23  C   UNL     1      -2.114  -2.389   5.386  0.00  0.00    +0.023 A 
ATOM     24 BR   UNL     1      -1.284  -3.991   5.953  0.00  0.00    -0.050 Br
ENDBRANCH  17  18
ENDBRANCH  15  17
ENDBRANCH   6  15
TORSDOF 4
