REMARK  Name = ZINC67617883
REMARK  3 active torsions:
REMARK  status: ('A' for Active; 'I' for Inactive)
REMARK    1  A    between atoms: C_4  and  N_7
REMARK    2  A    between atoms: N_7  and  C_8
REMARK    3  A    between atoms: N_16  and  C_17
REMARK                            x       y       z     vdW  Elec       q    Type
REMARK                         _______ _______ _______ _____ _____    ______ ____
ROOT
ATOM      1  C   UNL     1       3.641  -2.114  -0.044  0.00  0.00    +0.089 C 
ATOM      2  C   UNL     1       4.984  -2.640  -0.617  0.00  0.00    +0.043 C 
ATOM      3  C   UNL     1       5.091  -4.027   0.065  0.00  0.00    +0.111 C 
ATOM      4  N   UNL     1       4.549  -3.823   1.421  0.00  0.00    -0.284 N 
ATOM      5  C   UNL     1       3.635  -2.668   1.396  0.00  0.00    +0.131 C 
ATOM      6  C   UNL     1       4.837  -4.573   2.503  0.00  0.00    +0.302 C 
ATOM      7  O   UNL     1       4.328  -4.312   3.576  0.00  0.00    -0.253 OA
ATOM      8  N   UNL     1       5.690  -5.611   2.396  0.00  0.00    -0.296 N 
ATOM      9  H   UNL     1       6.096  -5.819   1.540  0.00  0.00    +0.151 HD
ENDROOT
BRANCH   8  10
ATOM     10  C   UNL     1       6.004  -6.426   3.572  0.00  0.00    +0.075 C 
ATOM     11  C   UNL     1       7.136  -5.766   4.362  0.00  0.00    +0.027 C 
ATOM     12  C   UNL     1       7.461  -6.614   5.593  0.00  0.00    +0.067 C 
ATOM     13  C   UNL     1       7.892  -8.013   5.147  0.00  0.00    +0.170 C 
ATOM     14  C   UNL     1       6.764  -8.674   4.352  0.00  0.00    +0.067 C 
ATOM     15  C   UNL     1       6.440  -7.822   3.123  0.00  0.00    +0.027 C 
ATOM     16  O   UNL     1       9.063  -7.910   4.320  0.00  0.00    -0.346 OA
ATOM     17  C   UNL     1      10.173  -8.129   5.223  0.00  0.00    +0.191 C 
ATOM     18  C   UNL     1       9.591  -9.193   6.187  0.00  0.00    +0.191 C 
ATOM     19  O   UNL     1       8.204  -8.810   6.296  0.00  0.00    -0.346 OA
ENDBRANCH   8  10
BRANCH   1  20
ATOM     20  N   UNL     1       3.620  -0.649  -0.036  0.00  0.00    -0.339 N 
ATOM     21  H   UNL     1       4.452  -0.152  -0.042  0.00  0.00    +0.146 HD
BRANCH  20  25
ATOM     22  C   UNL     1      -0.017   1.379   0.010  0.00  0.00    +0.000 A 
ATOM     23  C   UNL     1       1.169   2.089   0.002  0.00  0.00    +0.002 A 
ATOM     24  C   UNL     1       2.377   1.420  -0.013  0.00  0.00    +0.023 A 
ATOM     25  C   UNL     1       2.400   0.031  -0.021  0.00  0.00    +0.027 A 
ATOM     26  C   UNL     1       1.206  -0.680  -0.013  0.00  0.00    +0.023 A 
ATOM     27  C   UNL     1       0.002  -0.004   0.002  0.00  0.00    +0.002 A 
ENDBRANCH  20  25
ENDBRANCH   1  20
TORSDOF 3
