REMARK  Name = ZINC00522562
REMARK  5 active torsions:
REMARK  status: ('A' for Active; 'I' for Inactive)
REMARK    1  A    between atoms: C_1  and  C_2
REMARK    2  A    between atoms: C_2  and  C_3
REMARK    3  A    between atoms: C_3  and  C_20
REMARK    4  A    between atoms: N_12  and  C_17
REMARK    5  A    between atoms: N_15  and  C_16
REMARK                            x       y       z     vdW  Elec       q    Type
REMARK                         _______ _______ _______ _____ _____    ______ ____
ROOT
ATOM      1  C   UNL     1       4.684  -3.647  -0.509  0.00  0.00    +0.071 C 
ATOM      2  C   UNL     1       3.795  -2.487  -0.052  0.00  0.00    +0.071 C 
ATOM      3  C   UNL     1       2.349  -2.977  -0.036  0.00  0.00    -0.018 A 
ATOM      4  C   UNL     1       2.095  -4.304  -0.039  0.00  0.00    +0.021 A 
ATOM      5  S   UNL     1       0.330  -4.433  -0.022  0.00  0.00    -0.071 S 
ATOM      6  C   UNL     1      -0.064  -2.701  -0.011  0.00  0.00    +0.118 A 
ATOM      7  C   UNL     1       1.197  -2.079  -0.020  0.00  0.00    +0.076 A 
ATOM      8  C   UNL     1       1.184  -0.648  -0.013  0.00  0.00    +0.264 A 
ATOM      9  O   UNL     1       2.229  -0.021  -0.019  0.00  0.00    -0.267 OA
ATOM     10  N   UNL     1       0.002  -0.004   0.002  0.00  0.00    -0.284 N 
ATOM     11  C   UNL     1      -1.177  -0.689   0.015  0.00  0.00    +0.199 A 
ATOM     12  N   UNL     1      -1.195  -2.006   0.003  0.00  0.00    -0.208 NA
ATOM     13  N   UNL     1      -2.362   0.004   0.035  0.00  0.00    -0.318 N 
ATOM     14  C   UNL     1      -3.635  -0.722   0.050  0.00  0.00    +0.128 C 
ATOM     15  C   UNL     1      -0.018   1.461   0.010  0.00  0.00    +0.155 C 
ATOM     16  C   UNL     1       3.114  -5.401  -0.054  0.00  0.00    +0.203 C 
ATOM     17  O   UNL     1       4.391  -4.821   0.254  0.00  0.00    -0.368 OA
ATOM     18  C   UNL     1       4.426  -3.931  -1.990  0.00  0.00    +0.042 C 
ATOM     19  H   UNL     1      -2.357   0.974   0.040  0.00  0.00    +0.149 HD
ENDROOT
BRANCH   1  21
ATOM     20  C   UNL     1       7.045  -4.373  -0.883  0.00  0.00    +0.007 C 
ATOM     21  C   UNL     1       6.153  -3.268  -0.313  0.00  0.00    +0.032 C 
ENDBRANCH   1  21
TORSDOF 1
