REMARK  Name = ZINC10106773
REMARK  11 active torsions:
REMARK  status: ('A' for Active; 'I' for Inactive)
REMARK    1  A    between atoms: C_1  and  C_2
REMARK    2  A    between atoms: C_5  and  N_9
REMARK    3  A    between atoms: C_7  and  C_8
REMARK    4  A    between atoms: C_10  and  C_36
REMARK    5  A    between atoms: N_19  and  C_24
REMARK    6  A    between atoms: N_22  and  C_23
REMARK    7  A    between atoms: C_24  and  C_25
REMARK    8  A    between atoms: C_25  and  C_27
REMARK    9  A    between atoms: C_25  and  C_28
REMARK   10  A    between atoms: C_28  and  N_71
REMARK   11  A    between atoms: C_32  and  C_35
REMARK                            x       y       z     vdW  Elec       q    Type
REMARK                         _______ _______ _______ _____ _____    ______ ____
ROOT
ATOM      1  N   UNL     1       0.236  -0.805   1.655  0.00  0.00    -0.283 N 
ATOM      2  C   UNL     1       0.973  -0.270   0.614  0.00  0.00    +0.040 A 
ATOM      3  C   UNL     1       2.241  -0.638   0.770  0.00  0.00    +0.116 A 
ATOM      4  N   UNL     1       2.333  -1.413   1.913  0.00  0.00    -0.277 N 
ATOM      5  C   UNL     1       1.098  -1.509   2.459  0.00  0.00    +0.223 A 
ATOM      6  N   UNL     1       1.160  -2.252   3.554  0.00  0.00    -0.193 NA
ATOM      7  C   UNL     1       2.412  -2.650   3.761  0.00  0.00    +0.170 A 
ATOM      8  C   UNL     1       3.193  -2.131   2.729  0.00  0.00    +0.157 A 
ATOM      9  C   UNL     1       4.571  -2.405   2.710  0.00  0.00    +0.283 A 
ATOM     10  O   UNL     1       5.274  -1.962   1.818  0.00  0.00    -0.265 OA
ATOM     11  N   UNL     1       5.108  -3.163   3.688  0.00  0.00    -0.259 N 
ATOM     12  C   UNL     1       4.347  -3.659   4.679  0.00  0.00    +0.333 A 
ATOM     13  O   UNL     1       4.868  -4.338   5.543  0.00  0.00    -0.246 OA
ATOM     14  N   UNL     1       3.023  -3.422   4.738  0.00  0.00    -0.279 N 
ATOM     15  C   UNL     1       2.228  -3.981   5.834  0.00  0.00    +0.155 C 
ATOM     16  C   UNL     1       0.431   0.583  -0.505  0.00  0.00    +0.065 C 
ENDROOT
BRANCH   1  21
ATOM     17  C   UNL     1      -5.344  -0.181   2.471  0.00  0.00    +0.044 C 
ATOM     18  C   UNL     1      -3.862  -0.346   2.255  0.00  0.00    -0.047 A 
ATOM     19  C   UNL     1      -3.340  -1.597   1.979  0.00  0.00    +0.005 A 
ATOM     20  C   UNL     1      -1.982  -1.754   1.786  0.00  0.00    +0.026 A 
ATOM     21  C   UNL     1      -1.141  -0.651   1.857  0.00  0.00    +0.050 A 
ATOM     22  C   UNL     1      -1.668   0.605   2.128  0.00  0.00    +0.030 A 
ATOM     23  C   UNL     1      -3.027   0.753   2.326  0.00  0.00    -0.046 A 
ATOM     24  C   UNL     1      -3.600   2.116   2.620  0.00  0.00    +0.044 C 
ENDBRANCH   1  21
BRANCH  11  25
ATOM     25  C   UNL     1       6.545  -3.450   3.670  0.00  0.00    +0.131 C 
BRANCH  25  26
ATOM     26  C   UNL     1       6.798  -4.736   2.881  0.00  0.00    -0.011 C 
ATOM     27  C   UNL     1       6.410  -4.520   1.416  0.00  0.00    +0.007 C 
BRANCH  26  28
ATOM     28  C   UNL     1       8.281  -5.103   2.966  0.00  0.00    -0.074 C 
BRANCH  28  35
ATOM     29  C   UNL     1       8.686  -6.243   0.870  0.00  0.00    -0.079 C 
ATOM     30  C   UNL     1       9.057  -7.592   0.250  0.00  0.00    -0.018 C 
ATOM     31  C   UNL     1       7.941  -8.602   0.533  0.00  0.00    -0.001 C 
ATOM     32  C   UNL     1       7.736  -8.714   2.046  0.00  0.00    -0.031 C 
ATOM     33  C   UNL     1       7.404  -7.332   2.614  0.00  0.00    -0.076 C 
ATOM     34  C   UNL     1       6.583  -9.677   2.336  0.00  0.00    +0.005 C 
ATOM     35  N   UNL     1       8.527  -6.413   2.329  0.00  0.00    +0.380 N 
ATOM     36  H   UNL     1       9.390  -6.814   2.714  0.00  0.00    -0.082 HD
ENDBRANCH  28  35
ENDBRANCH  26  28
ENDBRANCH  25  26
ENDBRANCH  11  25
TORSDOF 5
