REMARK  Name = ZINC35929056
REMARK  8 active torsions:
REMARK  status: ('A' for Active; 'I' for Inactive)
REMARK    1  A    between atoms: C_1  and  O_2
REMARK    2  A    between atoms: O_2  and  C_3
REMARK    3  A    between atoms: C_6  and  C_10
REMARK    4  A    between atoms: C_12  and  N_37
REMARK    5  A    between atoms: N_13  and  C_30
REMARK    6  A    between atoms: N_19  and  C_20
REMARK    7  A    between atoms: C_20  and  C_21
REMARK    8  A    between atoms: C_30  and  C_31
REMARK                            x       y       z     vdW  Elec       q    Type
REMARK                         _______ _______ _______ _____ _____    ______ ____
ROOT
ATOM      1  C   UNL     1      -4.969  -2.606  -0.108  0.00  0.00    +0.091 A 
ATOM      2  C   UNL     1      -5.046  -4.017  -0.129  0.00  0.00    +0.086 A 
ATOM      3  C   UNL     1      -4.134  -5.064  -0.184  0.00  0.00    +0.126 A 
ATOM      4  N   UNL     1      -4.834  -6.212  -0.174  0.00  0.00    -0.244 N 
ATOM      5  N   UNL     1      -6.204  -5.935  -0.113  0.00  0.00    -0.149 NA
ATOM      6  C   UNL     1      -6.385  -4.633  -0.083  0.00  0.00    +0.188 A 
ATOM      7  N   UNL     1      -7.454  -3.815  -0.025  0.00  0.00    -0.193 NA
ATOM      8  C   UNL     1      -7.290  -2.508  -0.010  0.00  0.00    +0.218 A 
ATOM      9  N   UNL     1      -6.101  -1.915  -0.044  0.00  0.00    -0.214 NA
ATOM     10  N   UNL     1      -8.418  -1.709   0.050  0.00  0.00    -0.309 N 
ATOM     11  H   UNL     1      -8.328  -0.743   0.062  0.00  0.00    +0.149 HD
ENDROOT
BRANCH   1  15
ATOM     12  C   UNL     1      -1.210  -0.625  -0.232  0.00  0.00    +0.123 A 
ATOM     13  C   UNL     1      -1.557  -1.520  -1.238  0.00  0.00    +0.046 A 
ATOM     14  C   UNL     1      -2.774  -2.164  -1.201  0.00  0.00    +0.016 A 
ATOM     15  C   UNL     1      -3.662  -1.917  -0.151  0.00  0.00    +0.037 A 
ATOM     16  C   UNL     1      -3.310  -1.017   0.860  0.00  0.00    +0.136 A 
ATOM     17  C   UNL     1      -2.085  -0.380   0.817  0.00  0.00    +0.084 A 
ATOM     18  F   UNL     1      -4.164  -0.774   1.877  0.00  0.00    -0.205 F 
BRANCH  12  20
ATOM     19  C   UNL     1       0.843  -0.292  -1.382  0.00  0.00    +0.277 C 
ATOM     20  O   UNL     1      -0.009   0.007  -0.274  0.00  0.00    -0.495 OA
ENDBRANCH  12  20
ENDBRANCH   1  15
BRANCH   3  21
ATOM     21  N   UNL     1      -2.758  -4.946  -0.239  0.00  0.00    -0.343 N 
ATOM     22  H   UNL     1      -2.340  -4.078  -0.121  0.00  0.00    +0.144 HD
ATOM     23  H   UNL     1      -2.210  -5.730  -0.397  0.00  0.00    +0.144 HD
ENDBRANCH   3  21
BRANCH  10  24
ATOM     24  C   UNL     1      -9.748  -2.321   0.095  0.00  0.00    +0.139 C 
BRANCH  24  25
ATOM     25  C   UNL     1     -10.797  -1.240   0.157  0.00  0.00    -0.027 A 
ATOM     26  C   UNL     1     -11.223  -0.762   1.382  0.00  0.00    +0.009 A 
ATOM     27  C   UNL     1     -12.184   0.230   1.443  0.00  0.00    +0.050 A 
ATOM     28  C   UNL     1     -12.723   0.746   0.276  0.00  0.00    +0.166 A 
ATOM     29  C   UNL     1     -12.294   0.264  -0.958  0.00  0.00    +0.167 A 
ATOM     30  C   UNL     1     -11.326  -0.726  -1.012  0.00  0.00    +0.054 A 
ATOM     31  O   UNL     1     -12.969   0.926  -1.943  0.00  0.00    -0.453 OA
ATOM     32  C   UNL     1     -14.106   1.525  -1.295  0.00  0.00    +0.466 C 
ATOM     33  O   UNL     1     -13.666   1.710   0.064  0.00  0.00    -0.453 OA
ENDBRANCH  24  25
ENDBRANCH  10  24
BRANCH   4  34
ATOM     34  C   UNL     1      -4.248  -7.554  -0.221  0.00  0.00    +0.180 C 
BRANCH  34  35
ATOM     35  C   UNL     1      -3.988  -8.038   1.182  0.00  0.00    -0.026 A 
ATOM     36  C   UNL     1      -2.774  -7.775   1.790  0.00  0.00    +0.005 A 
ATOM     37  C   UNL     1      -2.536  -8.220   3.077  0.00  0.00    +0.000 A 
ATOM     38  C   UNL     1      -3.510  -8.926   3.756  0.00  0.00    +0.000 A 
ATOM     39  C   UNL     1      -4.724  -9.188   3.149  0.00  0.00    +0.000 A 
ATOM     40  C   UNL     1      -4.965  -8.740   1.863  0.00  0.00    +0.005 A 
ENDBRANCH  34  35
ENDBRANCH   4  34
TORSDOF 7
