REMARK  Name = ZINC39677023
REMARK  9 active torsions:
REMARK  status: ('A' for Active; 'I' for Inactive)
REMARK    1  A    between atoms: C_1  and  C_2
REMARK    2  A    between atoms: C_5  and  C_39
REMARK    3  A    between atoms: C_6  and  C_8
REMARK    4  A    between atoms: C_8  and  C_9
REMARK    5  A    between atoms: C_9  and  N_10
REMARK    6  A    between atoms: C_11  and  C_13
REMARK    7  A    between atoms: C_24  and  C_26
REMARK    8  A    between atoms: C_31  and  S_32
REMARK    9  A    between atoms: S_32  and  C_33
REMARK                            x       y       z     vdW  Elec       q    Type
REMARK                         _______ _______ _______ _____ _____    ______ ____
ROOT
ATOM      1  C   UNL     1       2.695  -5.104   5.947  0.00  0.00    +0.100 C 
ATOM      2  C   UNL     1       1.843  -6.388   5.837  0.00  0.00    +0.121 C 
ATOM      3  N   UNL     1       2.812  -7.452   5.483  0.00  0.00    -0.296 N 
ATOM      4  C   UNL     1       4.016  -7.137   6.290  0.00  0.00    +0.115 C 
ATOM      5  C   UNL     1       4.120  -5.599   6.248  0.00  0.00    -0.004 C 
ATOM      6  C   UNL     1       4.591  -5.064   7.596  0.00  0.00    -0.010 C 
ATOM      7  C   UNL     1       6.031  -5.522   7.847  0.00  0.00    -0.082 C 
ATOM      8  N   UNL     1       6.898  -5.027   6.771  0.00  0.00    +0.379 N 
ATOM      9  C   UNL     1       6.495  -5.620   5.490  0.00  0.00    -0.082 C 
ATOM     10  C   UNL     1       5.075  -5.166   5.140  0.00  0.00    -0.010 C 
ATOM     11  C   UNL     1       2.639  -8.474   4.623  0.00  0.00    +0.249 C 
ATOM     12  O   UNL     1       1.623  -8.544   3.959  0.00  0.00    -0.270 OA
ATOM     13  H   UNL     1       6.821  -4.022   6.714  0.00  0.00    -0.086 HD
ATOM     14  H   UNL     1       7.855  -5.278   6.969  0.00  0.00    -0.086 HD
ENDROOT
BRANCH  11  15
ATOM     15  C   UNL     1       3.682  -9.507   4.486  0.00  0.00    +0.069 A 
ATOM     16  C   UNL     1       4.433  -9.913   5.596  0.00  0.00    +0.017 A 
ATOM     17  C   UNL     1       5.399 -10.886   5.415  0.00  0.00    +0.020 A 
ATOM     18  C   UNL     1       5.595 -11.428   4.157  0.00  0.00    +0.112 A 
ATOM     19  N   UNL     1       4.877 -11.033   3.124  0.00  0.00    -0.248 NA
ATOM     20  C   UNL     1       3.936 -10.108   3.241  0.00  0.00    +0.114 A 
BRANCH  20  21
ATOM     21  S   UNL     1       3.002  -9.623   1.827  0.00  0.00    -0.069 S 
BRANCH  21  22
ATOM     22  C   UNL     1       3.750 -10.508   0.499  0.00  0.00    +0.014 A 
ATOM     23  C   UNL     1       3.220 -11.725   0.088  0.00  0.00    +0.015 A 
ATOM     24  C   UNL     1       3.808 -12.415  -0.953  0.00  0.00    +0.001 A 
ATOM     25  C   UNL     1       4.923 -11.896  -1.587  0.00  0.00    +0.000 A 
ATOM     26  C   UNL     1       5.453 -10.685  -1.180  0.00  0.00    +0.001 A 
ATOM     27  C   UNL     1       4.866  -9.987  -0.143  0.00  0.00    +0.015 A 
ENDBRANCH  21  22
ENDBRANCH  20  21
ENDBRANCH  11  15
BRANCH   1  29
ATOM     28  N   UNL     1       2.780  -3.001   4.647  0.00  0.00    -0.315 N 
ATOM     29  C   UNL     1       2.668  -4.344   4.646  0.00  0.00    +0.218 C 
ATOM     30  O   UNL     1       2.545  -4.941   3.597  0.00  0.00    -0.275 OA
ATOM     31  H   UNL     1       2.879  -2.523   5.486  0.00  0.00    +0.149 HD
BRANCH  28  32
ATOM     32  C   UNL     1       2.754  -2.262   3.382  0.00  0.00    +0.109 C 
BRANCH  32  33
ATOM     33  C   UNL     1       2.899  -0.765   3.663  0.00  0.00    +0.054 C 
BRANCH  33  39
ATOM     34  C   UNL     1       5.322   1.404  -0.140  0.00  0.00    +0.044 C 
ATOM     35  C   UNL     1       4.031   1.034   0.543  0.00  0.00    -0.050 A 
ATOM     36  C   UNL     1       2.822   1.391  -0.024  0.00  0.00    +0.003 A 
ATOM     37  C   UNL     1       1.638   1.051   0.602  0.00  0.00    +0.004 A 
ATOM     38  C   UNL     1       1.663   0.353   1.796  0.00  0.00    -0.047 A 
ATOM     39  C   UNL     1       2.872  -0.005   2.362  0.00  0.00    -0.043 A 
ATOM     40  C   UNL     1       4.056   0.332   1.733  0.00  0.00    +0.007 A 
ATOM     41  C   UNL     1       0.371  -0.017   2.479  0.00  0.00    +0.044 C 
ENDBRANCH  33  39
ENDBRANCH  32  33
ENDBRANCH  28  32
ENDBRANCH   1  29
TORSDOF 7
