REMARK  Name = ZINC12314029
REMARK  10 active torsions:
REMARK  status: ('A' for Active; 'I' for Inactive)
REMARK    1  A    between atoms: C_1  and  C_2
REMARK    2  A    between atoms: C_7  and  C_8
REMARK    3  A    between atoms: C_8  and  C_9
REMARK    4  A    between atoms: C_9  and  N_67
REMARK    5  A    between atoms: C_13  and  C_16
REMARK    6  A    between atoms: C_16  and  N_17
REMARK    7  A    between atoms: N_17  and  C_18
REMARK    8  A    between atoms: C_19  and  C_21
REMARK    9  A    between atoms: C_21  and  N_69
REMARK   10  A    between atoms: C_24  and  C_27
REMARK                            x       y       z     vdW  Elec       q    Type
REMARK                         _______ _______ _______ _____ _____    ______ ____
ROOT
ATOM      1  C   UNL     1       2.765  -0.567  -2.537  0.00  0.00    +0.109 C 
ENDROOT
BRANCH   1   5
ATOM      2  C   UNL     1      -0.018   1.464   0.010  0.00  0.00    -0.079 C 
ATOM      3  C   UNL     1       1.417   1.995  -0.001  0.00  0.00    -0.018 C 
ATOM      4  C   UNL     1       2.137   1.483  -1.252  0.00  0.00    +0.001 C 
ATOM      5  C   UNL     1       2.101  -0.048  -1.260  0.00  0.00    -0.010 C 
ATOM      6  C   UNL     1       0.646  -0.520  -1.213  0.00  0.00    -0.074 C 
ATOM      7  N   UNL     1       0.017  -0.014   0.026  0.00  0.00    +0.380 N 
ATOM      8  H   UNL     1       0.572  -0.325   0.832  0.00  0.00    -0.082 HD
BRANCH   7   9
ATOM      9  C   UNL     1      -1.354  -0.550   0.152  0.00  0.00    -0.074 C 
BRANCH   9  10
ATOM     10  C   UNL     1      -1.894  -0.201   1.540  0.00  0.00    +0.017 C 
BRANCH  10  17
ATOM     11  C   UNL     1      -2.264  -2.941   2.377  0.00  0.00    +0.044 C 
ATOM     12  C   UNL     1      -3.461  -2.071   2.094  0.00  0.00    -0.047 A 
ATOM     13  C   UNL     1      -4.737  -2.584   2.239  0.00  0.00    +0.003 A 
ATOM     14  C   UNL     1      -5.836  -1.788   1.974  0.00  0.00    +0.000 A 
ATOM     15  C   UNL     1      -5.659  -0.478   1.568  0.00  0.00    +0.000 A 
ATOM     16  C   UNL     1      -4.383   0.036   1.428  0.00  0.00    +0.004 A 
ATOM     17  C   UNL     1      -3.284  -0.760   1.693  0.00  0.00    -0.046 A 
ENDBRANCH  10  17
ENDBRANCH   9  10
ENDBRANCH   7   9
ENDBRANCH   1   5
BRANCH   1  18
ATOM     18  N   UNL     1       4.188  -0.217  -2.525  0.00  0.00    -0.306 N 
ATOM     19  C   UNL     1       5.163  -1.137  -1.936  0.00  0.00    +0.132 C 
ATOM     20  C   UNL     1       4.598   0.952  -3.055  0.00  0.00    +0.199 C 
ATOM     21  O   UNL     1       3.791   1.714  -3.543  0.00  0.00    -0.278 OA
BRANCH  20  22
ATOM     22  C   UNL     1       6.062   1.312  -3.043  0.00  0.00    +0.019 C 
BRANCH  22  28
ATOM     23  C   UNL     1       5.908   2.574  -5.103  0.00  0.00    -0.077 C 
ATOM     24  C   UNL     1       5.974   3.984  -5.694  0.00  0.00    -0.006 C 
ATOM     25  C   UNL     1       7.386   4.546  -5.507  0.00  0.00    +0.071 C 
ATOM     26  C   UNL     1       7.734   4.542  -4.016  0.00  0.00    -0.006 C 
ATOM     27  C   UNL     1       7.617   3.116  -3.473  0.00  0.00    -0.077 C 
ATOM     28  N   UNL     1       6.229   2.643  -3.661  0.00  0.00    +0.385 N 
ATOM     29  H   UNL     1       5.588   3.304  -3.208  0.00  0.00    -0.081 HD
BRANCH  25  30
ATOM     30  C   UNL     1       7.441   5.957  -6.033  0.00  0.00    +0.213 C 
ATOM     31  O   UNL     1       7.730   6.870  -5.290  0.00  0.00    -0.276 OA
ATOM     32  N   UNL     1       7.168   6.203  -7.330  0.00  0.00    -0.329 N 
ATOM     33  H   UNL     1       6.937   5.472  -7.924  0.00  0.00    +0.145 HD
ATOM     34  H   UNL     1       7.204   7.111  -7.669  0.00  0.00    +0.145 HD
ENDBRANCH  25  30
ENDBRANCH  22  28
ENDBRANCH  20  22
ENDBRANCH   1  18
TORSDOF 8
