REMARK  Name = ZINC04993699
REMARK  3 active torsions:
REMARK  status: ('A' for Active; 'I' for Inactive)
REMARK    1  A    between atoms: C_4  and  C_8
REMARK    2  A    between atoms: C_8  and  S_9
REMARK    3  A    between atoms: S_9  and  C_10
REMARK                            x       y       z     vdW  Elec       q    Type
REMARK                         _______ _______ _______ _____ _____    ______ ____
ROOT
ATOM      1  C   UNL     1       0.002  -0.004   0.002  0.00  0.00    +0.138 A 
ATOM      2  N   UNL     1       1.295  -0.278  -0.012  0.00  0.00    -0.215 NA
ATOM      3  C   UNL     1       2.222   0.670  -0.016  0.00  0.00    +0.156 A 
ATOM      4  C   UNL     1       1.735   1.982  -0.004  0.00  0.00    +0.121 A 
ATOM      5  S   UNL     1      -0.021   1.733   0.012  0.00  0.00    -0.054 S 
ATOM      6  C   UNL     1       2.586   3.082  -0.006  0.00  0.00    +0.270 A 
ATOM      7  O   UNL     1       2.135   4.214   0.004  0.00  0.00    -0.266 OA
ATOM      8  N   UNL     1       3.923   2.876  -0.021  0.00  0.00    -0.274 N 
ATOM      9  H   UNL     1       4.550   3.655  -0.023  0.00  0.00    +0.173 HD
ATOM     10  C   UNL     1       4.408   1.622  -0.032  0.00  0.00    +0.328 A 
ATOM     11  O   UNL     1       5.614   1.463  -0.045  0.00  0.00    -0.247 OA
ATOM     12  N   UNL     1       3.617   0.539  -0.030  0.00  0.00    -0.291 N 
ATOM     13  H   UNL     1       4.027  -0.372  -0.039  0.00  0.00    +0.172 HD
ENDROOT
BRANCH   1  14
ATOM     14  S   UNL     1      -1.359  -1.123   0.010  0.00  0.00    -0.094 S 
BRANCH  14  15
ATOM     15  C   UNL     1      -0.470  -2.699  -0.008  0.00  0.00    +0.114 C 
BRANCH  15  19
ATOM     16  C   UNL     1      -3.280  -5.920   0.004  0.00  0.00    +0.003 A 
ATOM     17  C   UNL     1      -2.838  -5.392  -1.195  0.00  0.00    +0.020 A 
ATOM     18  C   UNL     1      -1.929  -4.350  -1.200  0.00  0.00    +0.046 A 
ATOM     19  C   UNL     1      -1.461  -3.835  -0.004  0.00  0.00    -0.001 A 
ATOM     20  C   UNL     1      -1.900  -4.366   1.196  0.00  0.00    +0.046 A 
ATOM     21  C   UNL     1      -2.813  -5.406   1.199  0.00  0.00    +0.020 A 
ATOM     22 CL   UNL     1      -1.309  -3.726   2.697  0.00  0.00    -0.083 Cl
ATOM     23 CL   UNL     1      -1.373  -3.688  -2.705  0.00  0.00    -0.083 Cl
ENDBRANCH  15  19
ENDBRANCH  14  15
ENDBRANCH   1  14
TORSDOF 3
