REMARK  Name = ZINC01372077
REMARK  6 active torsions:
REMARK  status: ('A' for Active; 'I' for Inactive)
REMARK    1  A    between atoms: C_1  and  C_2
REMARK    2  A    between atoms: C_2  and  C_3
REMARK    3  A    between atoms: C_13  and  C_17
REMARK    4  A    between atoms: C_24  and  C_26
REMARK    5  A    between atoms: C_32  and  O_37
REMARK    6  A    between atoms: O_37  and  C_38
REMARK                            x       y       z     vdW  Elec       q    Type
REMARK                         _______ _______ _______ _____ _____    ______ ____
ROOT
ATOM      1  C   UNL     1       0.962   5.477   0.515  0.00  0.00    +0.132 A 
ATOM      2  N   UNL     1       0.939   4.163   0.654  0.00  0.00    -0.217 NA
ATOM      3  C   UNL     1       1.440   3.348  -0.259  0.00  0.00    +0.133 A 
ATOM      4  C   UNL     1       2.015   3.899  -1.438  0.00  0.00    +0.051 A 
ATOM      5  C   UNL     1       2.618   3.204  -2.576  0.00  0.00    -0.025 A 
ATOM      6  C   UNL     1       3.096   3.969  -3.578  0.00  0.00    -0.004 A 
ATOM      7  S   UNL     1       2.776   5.639  -3.076  0.00  0.00    -0.073 S 
ATOM      8  C   UNL     1       1.999   5.306  -1.518  0.00  0.00    +0.114 A 
ATOM      9  N   UNL     1       1.482   6.046  -0.556  0.00  0.00    -0.225 NA
ATOM     10  C   UNL     1       3.754   3.504  -4.841  0.00  0.00    +0.046 C 
ATOM     11  C   UNL     1       3.474   2.004  -5.010  0.00  0.00    -0.009 C 
ATOM     12  C   UNL     1       3.768   1.299  -3.683  0.00  0.00    +0.008 C 
ATOM     13  C   UNL     1       2.712   1.682  -2.645  0.00  0.00    +0.037 C 
ATOM     14  C   UNL     1       4.376   1.433  -6.105  0.00  0.00    +0.008 C 
ATOM     15  N   UNL     1       1.401   1.978  -0.074  0.00  0.00    -0.312 N 
ATOM     16  C   UNL     1       0.015   1.489  -0.052  0.00  0.00    +0.125 C 
ATOM     17  C   UNL     1       0.018  -0.043  -0.027  0.00  0.00    +0.127 C 
ATOM     18  N   UNL     1       0.853  -0.490   1.098  0.00  0.00    -0.294 N 
ATOM     19  C   UNL     1       2.210   0.063   1.221  0.00  0.00    +0.127 C 
ATOM     20  C   UNL     1       2.121   1.591   1.147  0.00  0.00    +0.125 C 
ATOM     21  C   UNL     1       0.387  -1.385   1.992  0.00  0.00    +0.254 C 
ATOM     22  O   UNL     1      -0.771  -1.751   1.939  0.00  0.00    -0.270 OA
ENDROOT
BRANCH  21  23
ATOM     23  C   UNL     1       1.281  -1.917   3.035  0.00  0.00    +0.122 A 
ATOM     24  C   UNL     1       2.494  -2.491   2.697  0.00  0.00    +0.032 A 
ATOM     25  C   UNL     1       3.325  -2.986   3.734  0.00  0.00    +0.022 A 
ATOM     26  C   UNL     1       4.565  -3.569   3.426  0.00  0.00    +0.012 A 
ATOM     27  C   UNL     1       5.360  -4.049   4.427  0.00  0.00    +0.004 A 
ATOM     28  C   UNL     1       4.953  -3.966   5.751  0.00  0.00    +0.049 A 
ATOM     29  C   UNL     1       3.737  -3.397   6.079  0.00  0.00    +0.163 A 
ATOM     30  C   UNL     1       2.908  -2.899   5.073  0.00  0.00    +0.180 A 
ATOM     31  O   UNL     1       1.720  -2.343   5.394  0.00  0.00    -0.418 OA
ATOM     32  C   UNL     1       0.897  -1.855   4.450  0.00  0.00    +0.350 A 
ATOM     33  O   UNL     1      -0.167  -1.360   4.770  0.00  0.00    -0.244 OA
BRANCH  29  34
ATOM     34  O   UNL     1       3.350  -3.321   7.380  0.00  0.00    -0.491 OA
ATOM     35  C   UNL     1       4.249  -3.850   8.357  0.00  0.00    +0.277 C 
ENDBRANCH  29  34
ENDBRANCH  21  23
BRANCH   1  37
ATOM     36  C   UNL     1      -1.106   6.586   1.316  0.00  0.00    +0.012 C 
ATOM     37  C   UNL     1       0.378   6.344   1.600  0.00  0.00    +0.073 C 
ENDBRANCH   1  37
TORSDOF 3
