REMARK  Name = ZINC20119673
REMARK  10 active torsions:
REMARK  status: ('A' for Active; 'I' for Inactive)
REMARK    1  A    between atoms: C_1  and  C_2
REMARK    2  A    between atoms: C_2  and  C_4
REMARK    3  A    between atoms: C_2  and  O_26
REMARK    4  A    between atoms: N_6  and  C_7
REMARK    5  A    between atoms: C_10  and  N_13
REMARK    6  A    between atoms: N_13  and  C_14
REMARK    7  A    between atoms: C_14  and  N_16
REMARK    8  A    between atoms: C_17  and  C_19
REMARK    9  A    between atoms: C_20  and  C_21
REMARK   10  A    between atoms: O_26  and  C_27
REMARK                            x       y       z     vdW  Elec       q    Type
REMARK                         _______ _______ _______ _____ _____    ______ ____
ROOT
ATOM      1  C   UNL     1      -5.799   3.226  -0.111  0.00  0.00    +0.034 A 
ATOM      2  C   UNL     1      -5.830   1.838  -0.090  0.00  0.00    +0.025 A 
ATOM      3  C   UNL     1      -4.652   1.122  -0.015  0.00  0.00    +0.025 A 
ATOM      4  C   UNL     1      -3.436   1.790   0.039  0.00  0.00    +0.033 A 
ATOM      5  C   UNL     1      -3.405   3.178   0.025  0.00  0.00    +0.025 A 
ATOM      6  C   UNL     1      -4.583   3.894  -0.056  0.00  0.00    +0.025 A 
ENDROOT
BRANCH   1   9
ATOM      7  C   UNL     1      -7.043   5.098  -0.895  0.00  0.00    +0.258 C 
ATOM      8  O   UNL     1      -6.038   5.528  -1.423  0.00  0.00    -0.271 OA
ATOM      9  N   UNL     1      -6.994   3.953  -0.187  0.00  0.00    -0.282 N 
ATOM     10  H   UNL     1      -7.893   3.588   0.331  0.00  0.00    +0.155 HD
BRANCH   7  12
ATOM     11  C   UNL     1      -8.786   6.355   0.342  0.00  0.00    +0.062 C 
ATOM     12  C   UNL     1      -8.344   5.846  -1.032  0.00  0.00    +0.256 C 
BRANCH  12  13
ATOM     13  O   UNL     1      -8.167   6.954  -1.916  0.00  0.00    -0.478 OA
BRANCH  13  14
ATOM     14  C   UNL     1      -9.273   7.415  -2.557  0.00  0.00    +0.140 A 
ATOM     15  C   UNL     1     -10.522   6.901  -2.244  0.00  0.00    +0.047 A 
ATOM     16  C   UNL     1     -11.645   7.371  -2.897  0.00  0.00    +0.004 A 
ATOM     17  C   UNL     1     -11.525   8.353  -3.862  0.00  0.00    +0.002 A 
ATOM     18  C   UNL     1     -10.281   8.869  -4.177  0.00  0.00    +0.023 A 
ATOM     19  C   UNL     1      -9.155   8.405  -3.522  0.00  0.00    +0.083 A 
ATOM     20 CL   UNL     1      -7.594   9.057  -3.912  0.00  0.00    -0.080 Cl
ENDBRANCH  13  14
ENDBRANCH  12  13
ENDBRANCH   7  12
ENDBRANCH   1   9
BRANCH   4  21
ATOM     21  N   UNL     1      -2.241   1.064   0.115  0.00  0.00    -0.297 N 
ATOM     22  H   UNL     1      -1.452   1.375   0.815  0.00  0.00    +0.154 HD
BRANCH  21  23
ATOM     23  C   UNL     1      -2.058  -0.017  -0.670  0.00  0.00    +0.141 C 
ATOM     24  S   UNL     1      -3.323  -0.559  -1.688  0.00  0.00    -0.018 S 
BRANCH  23  25
ATOM     25  N   UNL     1      -0.879  -0.670  -0.653  0.00  0.00    -0.264 N 
ATOM     26  C   UNL     1      -0.698  -1.753  -1.434  0.00  0.00    +0.242 C 
ATOM     27  O   UNL     1      -1.598  -2.139  -2.158  0.00  0.00    -0.270 OA
ATOM     28  H   UNL     1      -0.065  -0.318  -0.003  0.00  0.00    +0.157 HD
BRANCH  26  29
ATOM     29  C   UNL     1       0.536  -2.441  -1.413  0.00  0.00    +0.069 C 
ATOM     30  C   UNL     1       0.718  -3.533  -2.199  0.00  0.00    +0.020 C 
BRANCH  30  31
ATOM     31  C   UNL     1       1.954  -4.222  -2.178  0.00  0.00    +0.012 A 
ATOM     32  C   UNL     1       2.343  -5.347  -2.896  0.00  0.00    +0.015 A 
ATOM     33  C   UNL     1       3.615  -5.815  -2.680  0.00  0.00    +0.008 A 
ATOM     34  C   UNL     1       4.419  -5.170  -1.794  0.00  0.00    +0.046 A 
ATOM     35  S   UNL     1       3.423  -3.869  -1.228  0.00  0.00    -0.097 S 
ENDBRANCH  30  31
ENDBRANCH  26  29
ENDBRANCH  23  25
ENDBRANCH  21  23
ENDBRANCH   4  21
TORSDOF 9
