REMARK  Name = ZINC39665993
REMARK  11 active torsions:
REMARK  status: ('A' for Active; 'I' for Inactive)
REMARK    1  A    between atoms: C_1  and  C_2
REMARK    2  A    between atoms: C_2  and  O_3
REMARK    3  A    between atoms: O_3  and  C_4
REMARK    4  A    between atoms: C_7  and  C_10
REMARK    5  A    between atoms: C_14  and  C_23
REMARK    6  A    between atoms: N_25  and  C_26
REMARK    7  A    between atoms: C_26  and  C_27
REMARK    8  A    between atoms: C_27  and  C_29
REMARK    9  A    between atoms: C_27  and  O_30
REMARK   10  A    between atoms: O_30  and  C_31
REMARK   11  A    between atoms: C_34  and  C_37
REMARK                            x       y       z     vdW  Elec       q    Type
REMARK                         _______ _______ _______ _____ _____    ______ ____
ROOT
ATOM      1  C   UNL     1      -0.278  -6.597   1.710  0.00  0.00    +0.247 C 
ATOM      2  O   UNL     1      -0.973  -7.414   1.137  0.00  0.00    -0.270 OA
ATOM      3  N   UNL     1       0.636  -7.005   2.613  0.00  0.00    -0.296 N 
ATOM      4  C   UNL     1       1.476  -6.165   3.498  0.00  0.00    +0.121 C 
ATOM      5  C   UNL     1       1.510  -6.926   4.842  0.00  0.00    +0.100 C 
ATOM      6  C   UNL     1       1.218  -8.390   4.471  0.00  0.00    -0.004 C 
ATOM      7  C   UNL     1       1.024  -8.396   2.948  0.00  0.00    +0.115 C 
ATOM      8  C   UNL     1      -0.058  -8.865   5.161  0.00  0.00    -0.010 C 
ATOM      9  C   UNL     1      -0.296 -10.339   4.822  0.00  0.00    -0.082 C 
ATOM     10  N   UNL     1       0.852 -11.138   5.269  0.00  0.00    +0.379 N 
ATOM     11  C   UNL     1       2.057 -10.737   4.533  0.00  0.00    -0.082 C 
ATOM     12  C   UNL     1       2.395  -9.279   4.859  0.00  0.00    -0.010 C 
ATOM     13  H   UNL     1       0.998 -10.991   6.256  0.00  0.00    -0.086 HD
ATOM     14  H   UNL     1       0.666 -12.115   5.100  0.00  0.00    -0.086 HD
ENDROOT
BRANCH   1  18
ATOM     15  C   UNL     1      -0.732  -2.460   0.868  0.00  0.00    +0.121 A 
ATOM     16  C   UNL     1       0.453  -2.928   1.424  0.00  0.00    +0.046 A 
ATOM     17  C   UNL     1       0.604  -4.269   1.698  0.00  0.00    +0.016 A 
ATOM     18  C   UNL     1      -0.436  -5.159   1.418  0.00  0.00    +0.037 A 
ATOM     19  C   UNL     1      -1.626  -4.684   0.860  0.00  0.00    +0.016 A 
ATOM     20  C   UNL     1      -1.771  -3.341   0.592  0.00  0.00    +0.046 A 
BRANCH  15  21
ATOM     21  O   UNL     1      -0.877  -1.138   0.599  0.00  0.00    -0.492 OA
BRANCH  21  23
ATOM     22  C   UNL     1      -0.117   1.156   0.537  0.00  0.00    +0.048 C 
ATOM     23  C   UNL     1       0.230  -0.288   0.906  0.00  0.00    +0.225 C 
ENDBRANCH  21  23
ENDBRANCH  15  21
ENDBRANCH   1  18
BRANCH   5  24
ATOM     24  C   UNL     1       0.449  -6.396   5.772  0.00  0.00    +0.218 C 
ATOM     25  O   UNL     1      -0.579  -5.937   5.321  0.00  0.00    -0.275 OA
ATOM     26  N   UNL     1       0.643  -6.433   7.106  0.00  0.00    -0.312 N 
ATOM     27  H   UNL     1       1.465  -6.800   7.466  0.00  0.00    +0.149 HD
BRANCH  26  28
ATOM     28  C   UNL     1      -0.388  -5.918   8.010  0.00  0.00    +0.148 C 
BRANCH  28  29
ATOM     29  C   UNL     1       0.079  -6.076   9.459  0.00  0.00    +0.187 C 
ATOM     30  C   UNL     1      -0.998  -5.538  10.403  0.00  0.00    +0.053 C 
BRANCH  29  31
ATOM     31  O   UNL     1       0.309  -7.458   9.736  0.00  0.00    -0.488 OA
BRANCH  31  32
ATOM     32  C   UNL     1       1.190  -7.750  10.729  0.00  0.00    +0.121 A 
ATOM     33  C   UNL     1       1.552  -9.067  10.972  0.00  0.00    +0.046 A 
ATOM     34  C   UNL     1       2.448  -9.361  11.982  0.00  0.00    +0.007 A 
ATOM     35  C   UNL     1       2.983  -8.344  12.750  0.00  0.00    -0.050 A 
ATOM     36  C   UNL     1       2.623  -7.030  12.511  0.00  0.00    +0.007 A 
ATOM     37  C   UNL     1       1.732  -6.731  11.498  0.00  0.00    +0.046 A 
ATOM     38  C   UNL     1       3.960  -8.667  13.851  0.00  0.00    +0.044 C 
ENDBRANCH  31  32
ENDBRANCH  29  31
ENDBRANCH  28  29
ENDBRANCH  26  28
ENDBRANCH   5  24
TORSDOF 8
