REMARK  Name = ZINC14200067
REMARK  5 active torsions:
REMARK  status: ('A' for Active; 'I' for Inactive)
REMARK    1  A    between atoms: C_3  and  S_11
REMARK    2  A    between atoms: C_6  and  S_7
REMARK    3  A    between atoms: S_7  and  N_10
REMARK    4  A    between atoms: S_11  and  N_14
REMARK    5  A    between atoms: C_17  and  C_20
REMARK                            x       y       z     vdW  Elec       q    Type
REMARK                         _______ _______ _______ _____ _____    ______ ____
ROOT
ATOM      1  N   UNL     1       1.155   4.329   1.596  0.00  0.00    -0.177 NA
ATOM      2  C   UNL     1      -0.105   4.535   2.322  0.00  0.00    +0.110 C 
ATOM      3  C   UNL     1      -0.104   5.936   2.932  0.00  0.00    +0.030 C 
ATOM      4  C   UNL     1       1.151   6.116   3.788  0.00  0.00    +0.078 C 
ATOM      5  C   UNL     1       2.396   5.969   2.909  0.00  0.00    +0.030 C 
ATOM      6  C   UNL     1       2.423   4.564   2.300  0.00  0.00    +0.110 C 
ENDROOT
BRANCH   4   7
ATOM      7  C   UNL     1       1.139   7.486   4.416  0.00  0.00    +0.222 C 
ATOM      8  O   UNL     1       2.036   8.267   4.184  0.00  0.00    -0.275 OA
ATOM      9  N   UNL     1       0.130   7.842   5.236  0.00  0.00    -0.264 N 
ATOM     10  C   UNL     1       0.119   9.105   5.816  0.00  0.00    +0.165 A 
ATOM     11  N   UNL     1      -0.765   9.632   6.631  0.00  0.00    -0.229 NA
ATOM     12  C   UNL     1      -0.643  10.877   7.113  0.00  0.00    +0.054 A 
ATOM     13  C   UNL     1       0.453  11.562   6.710  0.00  0.00    +0.014 A 
ATOM     14  S   UNL     1       1.274  10.392   5.653  0.00  0.00    -0.057 S 
ATOM     15  C   UNL     1       0.510  12.939   7.299  0.00  0.00    +0.045 C 
ATOM     16  C   UNL     1      -0.485  12.899   8.480  0.00  0.00    +0.011 C 
ATOM     17  C   UNL     1      -1.453  11.782   8.042  0.00  0.00    +0.056 C 
ATOM     18  H   UNL     1      -0.587   7.216   5.423  0.00  0.00    +0.157 HD
ENDBRANCH   4   7
BRANCH   1  19
ATOM     19  S   UNL     1       1.147   3.847   0.011  0.00  0.00    +0.061 S 
ATOM     20  O   UNL     1       2.382   4.273  -0.549  0.00  0.00    -0.153 OA
ATOM     21  O   UNL     1      -0.109   4.239  -0.526  0.00  0.00    -0.153 OA
BRANCH  19  24
ATOM     22  C   UNL     1       0.002  -0.004   0.002  0.00  0.00    +0.030 A 
ATOM     23  C   UNL     1      -0.017   1.378   0.010  0.00  0.00    +0.030 A 
ATOM     24  C   UNL     1       1.171   2.086   0.002  0.00  0.00    +0.106 A 
ATOM     25  C   UNL     1       2.377   1.411  -0.015  0.00  0.00    +0.030 A 
ATOM     26  C   UNL     1       2.396   0.029  -0.021  0.00  0.00    +0.030 A 
ATOM     27  C   UNL     1       1.208  -0.679  -0.013  0.00  0.00    +0.105 A 
BRANCH  27  28
ATOM     28  S   UNL     1       1.232  -2.441  -0.022  0.00  0.00    +0.056 S 
ATOM     29  O   UNL     1       2.489  -2.832   0.515  0.00  0.00    -0.153 OA
ATOM     30  O   UNL     1      -0.002  -2.866   0.539  0.00  0.00    -0.153 OA
BRANCH  28  31
ATOM     31  N   UNL     1       1.223  -2.923  -1.606  0.00  0.00    -0.204 NA
ATOM     32  H   UNL     1       1.207  -2.260  -2.314  0.00  0.00    +0.144 HD
ATOM     33  H   UNL     1       1.234  -3.868  -1.825  0.00  0.00    +0.144 HD
ENDBRANCH  28  31
ENDBRANCH  27  28
ENDBRANCH  19  24
ENDBRANCH   1  19
TORSDOF 5
