REMARK  Name = ZINC03625577
REMARK  7 active torsions:
REMARK  status: ('A' for Active; 'I' for Inactive)
REMARK    1  A    between atoms: C_1  and  C_2
REMARK    2  A    between atoms: C_5  and  N_8
REMARK    3  A    between atoms: C_9  and  C_11
REMARK    4  A    between atoms: C_11  and  C_13
REMARK    5  A    between atoms: C_11  and  N_19
REMARK    6  A    between atoms: C_20  and  C_22
REMARK    7  A    between atoms: C_22  and  N_23
REMARK                            x       y       z     vdW  Elec       q    Type
REMARK                         _______ _______ _______ _____ _____    ______ ____
ROOT
ATOM      1  C   UNL     1      -2.569   4.140   0.252  0.00  0.00    +0.190 C 
ENDROOT
BRANCH   1   2
ATOM      2  C   UNL     1      -3.293   3.665   1.485  0.00  0.00    -0.018 A 
ATOM      3  C   UNL     1      -2.937   4.156   2.728  0.00  0.00    +0.006 A 
ATOM      4  C   UNL     1      -3.604   3.723   3.859  0.00  0.00    +0.000 A 
ATOM      5  C   UNL     1      -4.620   2.792   3.748  0.00  0.00    +0.000 A 
ATOM      6  C   UNL     1      -4.972   2.298   2.507  0.00  0.00    +0.000 A 
ATOM      7  C   UNL     1      -4.308   2.734   1.375  0.00  0.00    +0.006 A 
ENDBRANCH   1   2
BRANCH   1   9
ATOM      8  N   UNL     1      -1.237   2.069   0.019  0.00  0.00    -0.284 N 
ATOM      9  C   UNL     1      -1.255   3.412   0.128  0.00  0.00    +0.242 C 
ATOM     10  O   UNL     1      -0.215   4.035   0.127  0.00  0.00    -0.273 OA
ATOM     11  H   UNL     1      -2.070   1.577  -0.048  0.00  0.00    +0.155 HD
BRANCH   8  16
ATOM     12  C   UNL     1       3.707  -0.712  -0.066  0.00  0.00    +0.044 C 
ATOM     13  C   UNL     1       2.394   0.027  -0.042  0.00  0.00    -0.050 A 
ATOM     14  C   UNL     1       1.293  -0.541   0.573  0.00  0.00    +0.005 A 
ATOM     15  C   UNL     1       0.089   0.134   0.597  0.00  0.00    +0.023 A 
ATOM     16  C   UNL     1      -0.017   1.385   0.002  0.00  0.00    +0.033 A 
ATOM     17  C   UNL     1       1.091   1.953  -0.614  0.00  0.00    +0.023 A 
ATOM     18  C   UNL     1       2.293   1.273  -0.634  0.00  0.00    +0.005 A 
ENDBRANCH   8  16
ENDBRANCH   1   9
BRANCH   1  19
ATOM     19  N   UNL     1      -2.321   5.580   0.356  0.00  0.00    -0.299 N 
ATOM     20  C   UNL     1      -3.273   6.457  -0.022  0.00  0.00    +0.231 C 
ATOM     21  O   UNL     1      -4.334   6.053  -0.448  0.00  0.00    -0.274 OA
ATOM     22  H   UNL     1      -1.472   5.903   0.696  0.00  0.00    +0.150 HD
BRANCH  20  23
ATOM     23  C   UNL     1      -3.018   7.938   0.085  0.00  0.00    +0.201 C 
BRANCH  23  24
ATOM     24  N   UNL     1      -4.200   8.674  -0.386  0.00  0.00    -0.311 N 
ATOM     25  C   UNL     1      -5.345   8.452   0.503  0.00  0.00    +0.201 C 
ATOM     26  C   UNL     1      -6.573   9.119  -0.060  0.00  0.00    +0.235 C 
ATOM     27  O   UNL     1      -7.394   9.615   0.683  0.00  0.00    -0.274 OA
ATOM     28  N   UNL     1      -6.752   9.161  -1.398  0.00  0.00    -0.283 N 
ATOM     29  C   UNL     1      -5.771   8.592  -2.225  0.00  0.00    +0.055 A 
ATOM     30  C   UNL     1      -4.497   8.348  -1.711  0.00  0.00    +0.052 A 
ATOM     31  C   UNL     1      -3.526   7.782  -2.524  0.00  0.00    +0.025 A 
ATOM     32  C   UNL     1      -3.824   7.465  -3.837  0.00  0.00    +0.002 A 
ATOM     33  C   UNL     1      -5.086   7.709  -4.344  0.00  0.00    +0.002 A 
ATOM     34  C   UNL     1      -6.061   8.272  -3.540  0.00  0.00    +0.025 A 
ATOM     35  H   UNL     1      -7.541   9.575  -1.780  0.00  0.00    +0.155 HD
ENDBRANCH  23  24
ENDBRANCH  20  23
ENDBRANCH   1  19
TORSDOF 6
