REMARK  Name = ZINC67204990
REMARK  13 active torsions:
REMARK  status: ('A' for Active; 'I' for Inactive)
REMARK    1  A    between atoms: C_1  and  C_2
REMARK    2  A    between atoms: C_2  and  O_3
REMARK    3  A    between atoms: O_3  and  C_4
REMARK    4  A    between atoms: C_4  and  C_6
REMARK    5  A    between atoms: C_7  and  C_21
REMARK    6  A    between atoms: C_12  and  C_14
REMARK    7  A    between atoms: C_21  and  N_22
REMARK    8  A    between atoms: C_25  and  N_28
REMARK    9  A    between atoms: C_29  and  O_31
REMARK   10  A    between atoms: O_31  and  C_32
REMARK   11  A    between atoms: C_32  and  C_33
REMARK   12  A    between atoms: C_32  and  C_34
REMARK   13  A    between atoms: C_32  and  C_35
REMARK                            x       y       z     vdW  Elec       q    Type
REMARK                         _______ _______ _______ _____ _____    ______ ____
ROOT
ATOM      1  C   UNL     1       1.535  -3.680   3.914  0.00  0.00    +0.079 C 
ATOM      2  C   UNL     1       1.996  -3.316   2.698  0.00  0.00    +0.038 C 
ATOM      3  N   UNL     1       2.769  -2.201   2.542  0.00  0.00    -0.271 N 
ATOM      4  C   UNL     1       3.125  -1.397   3.552  0.00  0.00    +0.304 C 
ATOM      5  O   UNL     1       3.817  -0.426   3.315  0.00  0.00    -0.252 OA
ATOM      6  N   UNL     1       2.742  -1.630   4.823  0.00  0.00    -0.288 N 
ATOM      7  C   UNL     1       1.899  -2.806   5.097  0.00  0.00    +0.145 C 
ATOM      8  H   UNL     1       3.077  -1.979   1.650  0.00  0.00    +0.156 HD
ATOM      9  H   UNL     1       3.012  -1.034   5.540  0.00  0.00    +0.151 HD
ENDROOT
BRANCH   7  10
ATOM     10  C   UNL     1       2.621  -3.664   6.104  0.00  0.00    -0.004 A 
ATOM     11  C   UNL     1       4.000  -3.754   6.074  0.00  0.00    +0.007 A 
ATOM     12  C   UNL     1       4.663  -4.541   6.997  0.00  0.00    +0.000 A 
ATOM     13  C   UNL     1       3.946  -5.239   7.951  0.00  0.00    +0.001 A 
ATOM     14  C   UNL     1       2.567  -5.150   7.983  0.00  0.00    +0.020 A 
ATOM     15  C   UNL     1       1.904  -4.358   7.062  0.00  0.00    +0.046 A 
ATOM     16 CL   UNL     1       0.173  -4.241   7.105  0.00  0.00    -0.083 Cl
ENDBRANCH   7  10
BRANCH   1  17
ATOM     17  C   UNL     1       0.734  -4.835   4.077  0.00  0.00    +0.339 C 
ATOM     18  O   UNL     1      -0.472  -4.726   4.198  0.00  0.00    -0.245 OA
BRANCH  17  19
ATOM     19  O   UNL     1       1.307  -6.056   4.099  0.00  0.00    -0.462 OA
BRANCH  19  21
ATOM     20  C   UNL     1       1.255  -8.464   4.296  0.00  0.00    +0.048 C 
ATOM     21  C   UNL     1       0.431  -7.183   4.155  0.00  0.00    +0.229 C 
ENDBRANCH  19  21
ENDBRANCH  17  19
ENDBRANCH   1  17
BRANCH   2  22
ATOM     22  C   UNL     1       1.653  -4.155   1.494  0.00  0.00    +0.135 C 
BRANCH  22  23
ATOM     23  N   UNL     1       2.882  -4.724   0.927  0.00  0.00    -0.297 NA
ATOM     24  C   UNL     1       3.425  -5.776   1.796  0.00  0.00    +0.086 C 
ATOM     25  C   UNL     1       4.776  -6.244   1.251  0.00  0.00    +0.038 C 
ATOM     26  C   UNL     1       4.591  -6.777  -0.172  0.00  0.00    +0.079 C 
ATOM     27  C   UNL     1       3.980  -5.677  -1.045  0.00  0.00    +0.038 C 
ATOM     28  C   UNL     1       2.651  -5.226  -0.434  0.00  0.00    +0.086 C 
BRANCH  26  29
ATOM     29  N   UNL     1       5.891  -7.171  -0.720  0.00  0.00    -0.278 N 
ATOM     30  C   UNL     1       5.957  -8.098  -1.697  0.00  0.00    +0.401 C 
ATOM     31  O   UNL     1       4.938  -8.606  -2.122  0.00  0.00    -0.226 OA
ATOM     32  H   UNL     1       6.704  -6.766  -0.380  0.00  0.00    +0.152 HD
BRANCH  30  33
ATOM     33  O   UNL     1       7.152  -8.461  -2.200  0.00  0.00    -0.445 OA
BRANCH  33  34
ATOM     34  C   UNL     1       7.147  -9.448  -3.233  0.00  0.00    +0.107 C 
ATOM     35  C   UNL     1       6.337  -8.936  -4.426  0.00  0.00    +0.055 C 
ATOM     36  C   UNL     1       8.584  -9.729  -3.676  0.00  0.00    +0.055 C 
ATOM     37  C   UNL     1       6.515 -10.738  -2.704  0.00  0.00    +0.055 C 
ENDBRANCH  33  34
ENDBRANCH  30  33
ENDBRANCH  26  29
ENDBRANCH  22  23
ENDBRANCH   2  22
TORSDOF 9
