REMARK  Name = ZINC06993203
REMARK  6 active torsions:
REMARK  status: ('A' for Active; 'I' for Inactive)
REMARK    1  A    between atoms: C_1  and  C_2
REMARK    2  A    between atoms: C_6  and  O_8
REMARK    3  A    between atoms: O_8  and  C_9
REMARK    4  A    between atoms: C_9  and  C_11
REMARK    5  A    between atoms: C_9  and  C_12
REMARK    6  A    between atoms: N_14  and  N_15
REMARK                            x       y       z     vdW  Elec       q    Type
REMARK                         _______ _______ _______ _____ _____    ______ ____
ROOT
ATOM      1  C   UNL     1       0.013   1.200   0.258  0.00  0.00    +0.270 C 
ATOM      2  O   UNL     1       0.062  -0.001   0.421  0.00  0.00    -0.270 OA
ATOM      3  N   UNL     1      -1.173   1.839   0.307  0.00  0.00    -0.221 N 
ATOM      4  H   UNL     1      -1.212   2.800   0.177  0.00  0.00    +0.174 HD
ENDROOT
BRANCH   3   5
ATOM      5  N   UNL     1      -2.349   1.116   0.547  0.00  0.00    -0.137 N 
ATOM      6  C   UNL     1      -3.014   1.118   1.720  0.00  0.00    +0.263 C 
ATOM      7  O   UNL     1      -2.720   1.722   2.730  0.00  0.00    -0.271 OA
ATOM      8  C   UNL     1      -4.203   0.208   1.512  0.00  0.00    +0.114 C 
ATOM      9  C   UNL     1      -5.503   0.984   1.695  0.00  0.00    +0.035 C 
ATOM     10  C   UNL     1      -6.694   0.053   1.452  0.00  0.00    +0.003 C 
ATOM     11  C   UNL     1      -6.635  -1.117   2.437  0.00  0.00    +0.000 C 
ATOM     12  C   UNL     1      -5.337  -1.899   2.224  0.00  0.00    +0.003 C 
ATOM     13  C   UNL     1      -4.141  -0.976   2.470  0.00  0.00    +0.035 C 
ATOM     14  N   UNL     1      -4.065  -0.246   0.122  0.00  0.00    -0.284 N 
ATOM     15  C   UNL     1      -2.954   0.342  -0.362  0.00  0.00    +0.326 C 
ATOM     16  O   UNL     1      -2.546   0.186  -1.496  0.00  0.00    -0.251 OA
ATOM     17  H   UNL     1      -4.659  -0.847  -0.354  0.00  0.00    +0.151 HD
ENDBRANCH   3   5
BRANCH   1  18
ATOM     18  C   UNL     1       1.277   1.977  -0.006  0.00  0.00    +0.257 C 
ATOM     19  C   UNL     1       1.538   2.936   1.157  0.00  0.00    +0.062 C 
BRANCH  18  20
ATOM     20  O   UNL     1       2.375   1.071  -0.132  0.00  0.00    -0.480 OA
BRANCH  20  26
ATOM     21  C   UNL     1       6.729   0.123  -2.124  0.00  0.00    +0.044 C 
ATOM     22  C   UNL     1       5.585   1.064  -1.845  0.00  0.00    -0.047 A 
ATOM     23  C   UNL     1       5.624   2.361  -2.324  0.00  0.00    +0.003 A 
ATOM     24  C   UNL     1       4.576   3.225  -2.069  0.00  0.00    +0.004 A 
ATOM     25  C   UNL     1       3.485   2.795  -1.340  0.00  0.00    +0.046 A 
ATOM     26  C   UNL     1       3.446   1.496  -0.854  0.00  0.00    +0.122 A 
ATOM     27  C   UNL     1       4.498   0.629  -1.111  0.00  0.00    +0.049 A 
ENDBRANCH  20  26
ENDBRANCH  18  20
ENDBRANCH   1  18
TORSDOF 4
