REMARK  Name = ZINC37209476
REMARK  8 active torsions:
REMARK  status: ('A' for Active; 'I' for Inactive)
REMARK    1  A    between atoms: C_1  and  C_2
REMARK    2  A    between atoms: C_2  and  C_4
REMARK    3  A    between atoms: C_2  and  N_12
REMARK    4  A    between atoms: N_9  and  C_11
REMARK    5  A    between atoms: N_12  and  C_13
REMARK    6  A    between atoms: C_13  and  C_14
REMARK    7  A    between atoms: C_17  and  S_20
REMARK    8  A    between atoms: S_20  and  N_23
REMARK                            x       y       z     vdW  Elec       q    Type
REMARK                         _______ _______ _______ _____ _____    ______ ____
ROOT
ATOM      1  C   UNL     1      -0.191  -0.572   2.348  0.00  0.00    +0.116 C 
ENDROOT
BRANCH   1   2
ATOM      2  C   UNL     1       0.572  -1.074   3.547  0.00  0.00    -0.033 A 
ATOM      3  C   UNL     1       0.650  -2.431   3.798  0.00  0.00    +0.007 A 
ATOM      4  C   UNL     1       1.349  -2.891   4.898  0.00  0.00    +0.029 A 
ATOM      5  C   UNL     1       1.971  -1.994   5.747  0.00  0.00    +0.105 A 
ATOM      6  C   UNL     1       1.894  -0.637   5.495  0.00  0.00    +0.029 A 
ATOM      7  C   UNL     1       1.198  -0.177   4.392  0.00  0.00    +0.007 A 
BRANCH   5   8
ATOM      8  S   UNL     1       2.862  -2.581   7.149  0.00  0.00    +0.056 S 
ATOM      9  O   UNL     1       2.892  -1.514   8.086  0.00  0.00    -0.153 OA
ATOM     10  O   UNL     1       2.325  -3.858   7.466  0.00  0.00    -0.153 OA
BRANCH   8  11
ATOM     11  N   UNL     1       4.426  -2.832   6.666  0.00  0.00    -0.204 NA
ATOM     12  H   UNL     1       4.685  -2.652   5.749  0.00  0.00    +0.144 HD
ATOM     13  H   UNL     1       5.083  -3.159   7.301  0.00  0.00    +0.144 HD
ENDBRANCH   8  11
ENDBRANCH   5   8
ENDBRANCH   1   2
BRANCH   1  14
ATOM     14  N   UNL     1       0.713  -0.491   1.192  0.00  0.00    -0.309 NA
ATOM     15  H   UNL     1       1.151  -1.381   1.012  0.00  0.00    +0.123 HD
BRANCH  14  17
ATOM     16  C   UNL     1      -0.019   1.526   0.010  0.00  0.00    +0.024 C 
ATOM     17  C   UNL     1       0.002  -0.004   0.002  0.00  0.00    +0.052 C 
BRANCH  17  18
ATOM     18  C   UNL     1       0.718  -0.497  -1.257  0.00  0.00    -0.011 C 
ATOM     19  C   UNL     1       2.154   0.034  -1.270  0.00  0.00    +0.001 C 
ATOM     20  C   UNL     1       2.837  -0.400  -2.570  0.00  0.00    -0.018 C 
ATOM     21  C   UNL     1       2.021   0.106  -3.761  0.00  0.00    -0.079 C 
ATOM     22  N   UNL     1       0.667  -0.458  -3.706  0.00  0.00    +0.378 N 
ATOM     23  C   UNL     1      -0.020   0.011  -2.497  0.00  0.00    -0.074 C 
ATOM     24  C   UNL     1      -0.088  -0.033  -4.893  0.00  0.00    -0.096 C 
ATOM     25  H   UNL     1       0.724  -1.466  -3.690  0.00  0.00    -0.082 HD
ENDBRANCH  17  18
ENDBRANCH  14  17
ENDBRANCH   1  14
TORSDOF 6
