REMARK  Name = ZINC12570159
REMARK  9 active torsions:
REMARK  status: ('A' for Active; 'I' for Inactive)
REMARK    1  A    between atoms: C_1  and  C_2
REMARK    2  A    between atoms: C_5  and  N_9
REMARK    3  A    between atoms: C_6  and  C_8
REMARK    4  A    between atoms: N_9  and  S_10
REMARK    5  A    between atoms: S_10  and  C_13
REMARK    6  A    between atoms: C_15  and  N_33
REMARK    7  A    between atoms: C_18  and  N_19
REMARK    8  A    between atoms: N_19  and  N_20
REMARK    9  A    between atoms: C_21  and  C_22
REMARK                            x       y       z     vdW  Elec       q    Type
REMARK                         _______ _______ _______ _____ _____    ______ ____
ROOT
ATOM      1  C   UNL     1       2.231   0.111  -2.648  0.00  0.00    +0.133 A 
ATOM      2  C   UNL     1       3.242  -0.147  -3.553  0.00  0.00    +0.063 A 
ATOM      3  C   UNL     1       3.164   0.353  -4.840  0.00  0.00    +0.128 A 
ATOM      4  C   UNL     1       2.079   1.122  -5.223  0.00  0.00    +0.035 A 
ATOM      5  C   UNL     1       1.068   1.389  -4.322  0.00  0.00    +0.029 A 
ATOM      6  C   UNL     1       1.140   0.883  -3.029  0.00  0.00    +0.075 A 
ENDROOT
BRANCH   1   7
ATOM      7  S   UNL     1       2.328  -0.533  -1.011  0.00  0.00    +0.074 S 
ATOM      8  O   UNL     1       3.576  -1.206  -0.912  0.00  0.00    -0.150 OA
ATOM      9  O   UNL     1       1.090  -1.183  -0.756  0.00  0.00    -0.150 OA
BRANCH   7  10
ATOM     10  N   UNL     1       2.404   0.761   0.020  0.00  0.00    -0.216 N 
ATOM     11  H   UNL     1       1.664   0.949   0.618  0.00  0.00    +0.174 HD
BRANCH  10  16
ATOM     12  C   UNL     1       6.995   4.089   0.055  0.00  0.00    +0.044 C 
ATOM     13  C   UNL     1       5.775   3.205   0.046  0.00  0.00    -0.050 A 
ATOM     14  C   UNL     1       5.334   2.650  -1.142  0.00  0.00    +0.005 A 
ATOM     15  C   UNL     1       4.213   1.843  -1.155  0.00  0.00    +0.025 A 
ATOM     16  C   UNL     1       3.534   1.581   0.029  0.00  0.00    +0.051 A 
ATOM     17  C   UNL     1       3.982   2.136   1.220  0.00  0.00    -0.028 A 
ATOM     18  C   UNL     1       5.101   2.947   1.225  0.00  0.00    +0.008 A 
ATOM     19  C   UNL     1       3.249   1.855   2.506  0.00  0.00    +0.046 C 
ENDBRANCH  10  16
ENDBRANCH   7  10
ENDBRANCH   1   7
BRANCH   3  20
ATOM     20  N   UNL     1       4.247   0.070  -5.809  0.00  0.00    +0.056 N 
ATOM     21  O   UNL     1       4.183   0.514  -6.941  0.00  0.00    -0.126 OA
ATOM     22  O   UNL     1       5.203  -0.607  -5.474  0.00  0.00    -0.126 OA
ENDBRANCH   3  20
BRANCH   6  23
ATOM     23  N   UNL     1       0.120   1.150  -2.115  0.00  0.00    -0.236 N 
ATOM     24  H   UNL     1       0.176   0.804  -1.211  0.00  0.00    +0.174 HD
BRANCH  23  25
ATOM     25  N   UNL     1      -0.986   1.917  -2.505  0.00  0.00    -0.190 NA
ATOM     26  C   UNL     1      -1.882   2.257  -1.629  0.00  0.00    +0.144 C 
BRANCH  26  27
ATOM     27  C   UNL     1      -3.105   2.958  -2.059  0.00  0.00    +0.071 A 
ATOM     28  C   UNL     1      -3.301   3.264  -3.409  0.00  0.00    +0.173 A 
ATOM     29  C   UNL     1      -4.453   3.917  -3.807  0.00  0.00    +0.197 A 
ATOM     30  C   UNL     1      -5.408   4.278  -2.869  0.00  0.00    +0.199 A 
ATOM     31  C   UNL     1      -5.217   3.983  -1.527  0.00  0.00    +0.197 A 
ATOM     32  C   UNL     1      -4.072   3.325  -1.117  0.00  0.00    +0.173 A 
ATOM     33  F   UNL     1      -3.887   3.038   0.190  0.00  0.00    -0.202 F 
ATOM     34  F   UNL     1      -6.152   4.338  -0.619  0.00  0.00    -0.199 F 
ATOM     35  F   UNL     1      -6.529   4.921  -3.263  0.00  0.00    -0.199 F 
ATOM     36  F   UNL     1      -4.647   4.209  -5.112  0.00  0.00    -0.199 F 
ATOM     37  F   UNL     1      -2.369   2.917  -4.324  0.00  0.00    -0.202 F 
ENDBRANCH  26  27
ENDBRANCH  23  25
ENDBRANCH   6  23
TORSDOF 7
