REMARK  Name = ZINC34734337
REMARK  6 active torsions:
REMARK  status: ('A' for Active; 'I' for Inactive)
REMARK    1  A    between atoms: C_1  and  C_2
REMARK    2  A    between atoms: C_3  and  C_26
REMARK    3  A    between atoms: C_7  and  N_18
REMARK    4  A    between atoms: N_11  and  C_12
REMARK    5  A    between atoms: C_12  and  C_13
REMARK    6  A    between atoms: N_18  and  C_19
REMARK                            x       y       z     vdW  Elec       q    Type
REMARK                         _______ _______ _______ _____ _____    ______ ____
ROOT
ATOM      1  C   UNL     1       0.559   1.280  -0.011  0.00  0.00    +0.045 C 
ATOM      2  C   UNL     1      -0.071  -0.087   0.044  0.00  0.00    -0.028 A 
ATOM      3  C   UNL     1      -0.296  -0.776  -1.084  0.00  0.00    -0.008 A 
ATOM      4  S   UNL     1      -1.036  -2.292  -0.507  0.00  0.00    -0.073 S 
ATOM      5  C   UNL     1      -1.024  -1.959   1.235  0.00  0.00    +0.116 A 
ATOM      6  C   UNL     1      -0.437  -0.678   1.320  0.00  0.00    +0.051 A 
ATOM      7  C   UNL     1      -0.297  -0.155   2.636  0.00  0.00    +0.137 A 
ATOM      8  N   UNL     1      -0.705  -0.877   3.666  0.00  0.00    -0.199 NA
ATOM      9  C   UNL     1      -1.245  -2.080   3.515  0.00  0.00    +0.218 A 
ATOM     10  N   UNL     1      -1.410  -2.613   2.312  0.00  0.00    -0.207 NA
ATOM     11  N   UNL     1      -1.652  -2.787   4.634  0.00  0.00    -0.306 N 
ATOM     12  C   UNL     1       0.005  -0.366  -2.503  0.00  0.00    +0.052 C 
ATOM     13  H   UNL     1      -1.542  -2.402   5.518  0.00  0.00    +0.149 HD
ENDROOT
BRANCH   7  14
ATOM     14  N   UNL     1       0.262   1.095   2.835  0.00  0.00    -0.299 N 
ATOM     15  H   UNL     1       0.497   1.649   2.074  0.00  0.00    +0.154 HD
BRANCH  14  16
ATOM     16  C   UNL     1       0.487   1.561   4.134  0.00  0.00    +0.032 A 
ATOM     17  C   UNL     1       0.812   0.668   5.147  0.00  0.00    +0.024 A 
ATOM     18  C   UNL     1       1.035   1.131   6.429  0.00  0.00    +0.017 A 
ATOM     19  C   UNL     1       0.933   2.483   6.705  0.00  0.00    +0.018 A 
ATOM     20  C   UNL     1       0.608   3.375   5.698  0.00  0.00    +0.017 A 
ATOM     21  C   UNL     1       0.391   2.919   4.413  0.00  0.00    +0.024 A 
ATOM     22 BR   UNL     1       1.237   3.113   8.462  0.00  0.00    -0.050 Br
ENDBRANCH  14  16
ENDBRANCH   7  14
BRANCH  11  23
ATOM     23  C   UNL     1      -2.250  -4.116   4.483  0.00  0.00    +0.178 C 
BRANCH  23  24
ATOM     24  C   UNL     1      -2.603  -4.665   5.841  0.00  0.00    +0.122 A 
ATOM     25  C   UNL     1      -3.779  -4.503   6.474  0.00  0.00    +0.046 A 
ATOM     26  C   UNL     1      -3.675  -5.179   7.711  0.00  0.00    +0.041 A 
ATOM     27  C   UNL     1      -2.442  -5.714   7.761  0.00  0.00    +0.195 A 
ATOM     28  O   UNL     1      -1.799  -5.404   6.623  0.00  0.00    -0.466 OA
ENDBRANCH  23  24
ENDBRANCH  11  23
TORSDOF 4
