REMARK  Name = ZINC09355860
REMARK  9 active torsions:
REMARK  status: ('A' for Active; 'I' for Inactive)
REMARK    1  A    between atoms: C_1  and  C_2
REMARK    2  A    between atoms: C_5  and  S_7
REMARK    3  A    between atoms: S_7  and  C_8
REMARK    4  A    between atoms: C_8  and  C_9
REMARK    5  A    between atoms: CA_10  and  C_32
REMARK    6  A    between atoms: CA_14  and  N_18
REMARK    7  A    between atoms: C_19  and  C_21
REMARK    8  A    between atoms: C_21  and  C_23
REMARK    9  A    between atoms: C_21  and  N_24
REMARK                            x       y       z     vdW  Elec       q    Type
REMARK                         _______ _______ _______ _____ _____    ______ ____
ROOT
ATOM      1  C   UNL     1       4.299   0.724   4.742  0.00  0.00    -0.021 C 
ATOM      2  CA  UNL     1       4.962   1.789   4.319  0.00  0.00    +0.127 C 
ATOM      3  N   UNL     1       5.365   1.884   2.977  0.00  0.00    -0.249 N 
ATOM      4  C   UNL     1       5.511   0.751   2.009  0.00  0.00    +0.169 C 
ATOM      5  CA  UNL     1       5.480   1.827   0.928  0.00  0.00    +0.191 C 
ATOM      6  C   UNL     1       5.573   2.841   2.056  0.00  0.00    +0.244 C 
ATOM      7  O   UNL     1       5.761   4.038   2.105  0.00  0.00    -0.273 OA
ATOM      8  S   UNL     1       3.981  -0.229   2.179  0.00  0.00    -0.131 S 
ATOM      9  C   UNL     1       3.927  -0.504   3.977  0.00  0.00    +0.104 C 
ENDROOT
BRANCH   5  10
ATOM     10  N   UNL     1       4.216   1.883   0.190  0.00  0.00    -0.300 N 
ATOM     11  C   UNL     1       4.188   2.382  -1.062  0.00  0.00    +0.238 C 
ATOM     12  O   UNL     1       5.210   2.785  -1.577  0.00  0.00    -0.273 OA
ATOM     13  H   UNL     1       3.399   1.560   0.602  0.00  0.00    +0.150 HD
BRANCH  11  14
ATOM     14  C   UNL     1       2.888   2.439  -1.821  0.00  0.00    +0.189 C 
ATOM     15  C   UNL     1       1.888   3.307  -1.055  0.00  0.00    +0.042 C 
BRANCH  14  16
ATOM     16  N   UNL     1       3.122   3.018  -3.147  0.00  0.00    -0.258 N 
ATOM     17  C   UNL     1       3.151   4.335  -3.445  0.00  0.00    +0.129 A 
ATOM     18  C   UNL     1       3.394   4.452  -4.771  0.00  0.00    +0.078 A 
ATOM     19  C   UNL     1       3.518   3.163  -5.301  0.00  0.00    +0.154 A 
ATOM     20  N   UNL     1       3.361   2.304  -4.328  0.00  0.00    -0.177 NA
ATOM     21 CL   UNL     1       3.530   5.939  -5.657  0.00  0.00    -0.080 Cl
ENDBRANCH  14  16
ENDBRANCH  11  14
ENDBRANCH   5  10
BRANCH   2  22
ATOM     22  C   UNL     1       5.278   2.879   5.260  0.00  0.00    +0.401 C 
ATOM     23  O   UNL     1       5.190   4.036   4.900  0.00  0.00    -0.239 OA
ATOM     24  OXT UNL     1       5.664   2.592   6.518  0.00  0.00    -0.239 OA
ENDBRANCH   2  22
BRANCH   1  25
ATOM     25  C   UNL     1       3.863   0.753   6.185  0.00  0.00    +0.110 C 
BRANCH  25  26
ATOM     26  S   UNL     1       4.974  -0.280   7.172  0.00  0.00    -0.093 S 
BRANCH  26  31
ATOM     27  C   UNL     1       3.130  -0.048  12.771  0.00  0.00    +0.075 C 
ATOM     28  C   UNL     1       3.432   0.027  11.297  0.00  0.00    +0.100 A 
ATOM     29  N   UNL     1       2.814   0.687  10.338  0.00  0.00    -0.146 NA
ATOM     30  N   UNL     1       3.201   0.650   9.139  0.00  0.00    -0.135 NA
ATOM     31  C   UNL     1       4.253  -0.068   8.766  0.00  0.00    +0.159 A 
ATOM     32  S   UNL     1       4.735  -0.753  10.348  0.00  0.00    -0.044 S 
ENDBRANCH  26  31
ENDBRANCH  25  26
ENDBRANCH   1  25
TORSDOF 7
