REMARK  Name = ZINC23283079
REMARK  8 active torsions:
REMARK  status: ('A' for Active; 'I' for Inactive)
REMARK    1  A    between atoms: C_1  and  C_2
REMARK    2  A    between atoms: C_2  and  O_3
REMARK    3  A    between atoms: O_3  and  C_4
REMARK    4  A    between atoms: C_6  and  C_11
REMARK    5  A    between atoms: C_9  and  O_10
REMARK    6  A    between atoms: C_11  and  N_12
REMARK    7  A    between atoms: C_15  and  C_18
REMARK    8  A    between atoms: C_15  and  O_25
REMARK                            x       y       z     vdW  Elec       q    Type
REMARK                         _______ _______ _______ _____ _____    ______ ____
ROOT
ATOM      1  N   UNL     1       2.394  -2.244   3.698  0.00  0.00    +0.383 N 
ATOM      2  C   UNL     1       1.686  -2.585   4.939  0.00  0.00    -0.075 C 
ATOM      3  C   UNL     1       1.178  -4.027   4.858  0.00  0.00    +0.021 C 
ATOM      4  C   UNL     1       2.366  -4.970   4.650  0.00  0.00    +0.088 C 
ATOM      5  C   UNL     1       3.115  -4.564   3.378  0.00  0.00    +0.021 C 
ATOM      6  C   UNL     1       3.566  -3.107   3.502  0.00  0.00    -0.075 C 
ATOM      7  H   UNL     1       1.704  -2.420   2.859  0.00  0.00    -0.081 HD
ENDROOT
BRANCH   4   8
ATOM      8  C   UNL     1       1.869  -6.386   4.511  0.00  0.00    -0.016 A 
ATOM      9  C   UNL     1       1.540  -6.883   3.263  0.00  0.00    +0.007 A 
ATOM     10  C   UNL     1       1.088  -8.183   3.135  0.00  0.00    +0.015 A 
ATOM     11  C   UNL     1       0.954  -8.983   4.255  0.00  0.00    +0.018 A 
ATOM     12  C   UNL     1       1.278  -8.483   5.504  0.00  0.00    +0.015 A 
ATOM     13  C   UNL     1       1.735  -7.185   5.631  0.00  0.00    +0.007 A 
ATOM     14 BR   UNL     1       0.330 -10.759   4.080  0.00  0.00    -0.050 Br
ENDBRANCH   4   8
BRANCH   4  15
ATOM     15  O   UNL     1       3.248  -4.882   5.772  0.00  0.00    -0.384 OA
ATOM     16  H   UNL     1       4.163  -5.492   5.801  0.00  0.00    +0.211 HD
ENDBRANCH   4  15
BRANCH   1  17
ATOM     17  C   UNL     1       2.775  -0.826   3.682  0.00  0.00    -0.043 C 
BRANCH  17  20
ATOM     18  C   UNL     1      -0.148   1.182   2.380  0.00  0.00    +0.162 A 
ATOM     19  C   UNL     1       0.990   0.393   2.422  0.00  0.00    +0.051 A 
ATOM     20  C   UNL     1       1.534   0.028   3.639  0.00  0.00    -0.060 A 
ATOM     21  C   UNL     1       0.938   0.439   4.817  0.00  0.00    +0.005 A 
ATOM     22  C   UNL     1      -0.201   1.221   4.783  0.00  0.00    +0.049 A 
ATOM     23  C   UNL     1      -0.748   1.595   3.566  0.00  0.00    +0.158 A 
BRANCH  23  24
ATOM     24  O   UNL     1      -1.869   2.365   3.531  0.00  0.00    -0.503 OA
ATOM     25  H   UNL     1      -2.342   2.691   4.468  0.00  0.00    +0.292 HD
ENDBRANCH  23  24
BRANCH  18  26
ATOM     26  O   UNL     1      -0.682   1.547   1.184  0.00  0.00    -0.489 OA
BRANCH  26  28
ATOM     27  C   UNL     1      -0.753   1.593  -1.232  0.00  0.00    +0.048 C 
ATOM     28  C   UNL     1      -0.013   1.086   0.008  0.00  0.00    +0.226 C 
ENDBRANCH  26  28
ENDBRANCH  18  26
ENDBRANCH  17  20
ENDBRANCH   1  17
TORSDOF 7
