REMARK  Name = ZINC63225535
REMARK  5 active torsions:
REMARK  status: ('A' for Active; 'I' for Inactive)
REMARK    1  A    between atoms: C_4  and  C_7
REMARK    2  A    between atoms: C_7  and  N_8
REMARK    3  A    between atoms: N_8  and  C_9
REMARK    4  A    between atoms: C_9  and  N_11
REMARK    5  A    between atoms: N_11  and  N_12
REMARK                            x       y       z     vdW  Elec       q    Type
REMARK                         _______ _______ _______ _____ _____    ______ ____
ROOT
ATOM      1  N   UNL     1       4.933  -1.387   3.909  0.00  0.00    -0.237 N 
ATOM      2  C   UNL     1       5.344  -1.616   5.194  0.00  0.00    +0.202 C 
ATOM      3  N   UNL     1       6.488  -2.250   5.396  0.00  0.00    -0.147 NA
ATOM      4  C   UNL     1       6.902  -2.574   6.614  0.00  0.00    +0.248 C 
ATOM      5  O   UNL     1       7.981  -3.117   6.754  0.00  0.00    -0.273 OA
ATOM      6  C   UNL     1       6.064  -2.284   7.821  0.00  0.00    +0.131 C 
ATOM      7  C   UNL     1       4.884  -1.421   7.450  0.00  0.00    +0.038 C 
ATOM      8  N   UNL     1       4.579  -1.187   6.206  0.00  0.00    -0.331 N 
ATOM      9  C   UNL     1       4.125  -0.799   8.546  0.00  0.00    -0.002 A 
ATOM     10  C   UNL     1       2.868  -0.239   8.301  0.00  0.00    +0.010 A 
ATOM     11  C   UNL     1       2.168   0.349   9.332  0.00  0.00    +0.001 A 
ATOM     12  C   UNL     1       2.712   0.384  10.605  0.00  0.00    +0.000 A 
ATOM     13  C   UNL     1       3.954  -0.171  10.854  0.00  0.00    +0.004 A 
ATOM     14  C   UNL     1       4.671  -0.770   9.834  0.00  0.00    -0.038 A 
ATOM     15  C   UNL     1       6.009  -1.382  10.144  0.00  0.00    +0.043 C 
ATOM     16  C   UNL     1       6.862  -1.524   8.883  0.00  0.00    -0.009 C 
ATOM     17  C   UNL     1       8.130  -2.308   9.224  0.00  0.00    +0.008 C 
ATOM     18  C   UNL     1       8.930  -1.548  10.284  0.00  0.00    +0.001 C 
ATOM     19  C   UNL     1       9.314  -0.170   9.742  0.00  0.00    +0.000 C 
ATOM     20  C   UNL     1       8.045   0.615   9.402  0.00  0.00    +0.001 C 
ATOM     21  C   UNL     1       7.244  -0.144   8.343  0.00  0.00    +0.008 C 
ATOM     22  H   UNL     1       3.770  -0.690   6.006  0.00  0.00    +0.168 HD
ATOM     23  H   UNL     1       4.099  -0.921   3.743  0.00  0.00    +0.173 HD
ENDROOT
BRANCH   1  24
ATOM     24  N   UNL     1       5.716  -1.826   2.834  0.00  0.00    -0.246 N 
ATOM     25  H   UNL     1       6.550  -2.292   3.000  0.00  0.00    +0.172 HD
BRANCH  24  26
ATOM     26  C   UNL     1       5.311  -1.601   1.569  0.00  0.00    +0.147 C 
ATOM     27  S   UNL     1       6.268  -2.137   0.255  0.00  0.00    -0.017 S 
BRANCH  26  28
ATOM     28  N   UNL     1       4.152  -0.952   1.338  0.00  0.00    -0.321 N 
ATOM     29  H   UNL     1       3.610  -0.648   2.082  0.00  0.00    +0.148 HD
BRANCH  28  30
ATOM     30  C   UNL     1       3.711  -0.707  -0.038  0.00  0.00    +0.138 C 
BRANCH  30  34
ATOM     31  C   UNL     1      -0.017   1.378   0.010  0.00  0.00    +0.000 A 
ATOM     32  C   UNL     1       1.171   2.086   0.002  0.00  0.00    +0.000 A 
ATOM     33  C   UNL     1       2.377   1.411  -0.013  0.00  0.00    +0.005 A 
ATOM     34  C   UNL     1       2.396   0.029  -0.020  0.00  0.00    -0.030 A 
ATOM     35  C   UNL     1       1.208  -0.679  -0.012  0.00  0.00    +0.005 A 
ATOM     36  C   UNL     1       0.002  -0.004   0.002  0.00  0.00    +0.000 A 
ENDBRANCH  30  34
ENDBRANCH  28  30
ENDBRANCH  26  28
ENDBRANCH  24  26
ENDBRANCH   1  24
TORSDOF 5
