REMARK  Name = ZINC63073221
REMARK  6 active torsions:
REMARK  status: ('A' for Active; 'I' for Inactive)
REMARK    1  A    between atoms: C_7  and  C_10
REMARK    2  A    between atoms: C_10  and  C_11
REMARK    3  A    between atoms: C_11  and  C_12
REMARK    4  A    between atoms: N_14  and  C_15
REMARK    5  A    between atoms: C_18  and  S_21
REMARK    6  A    between atoms: S_21  and  N_24
REMARK                            x       y       z     vdW  Elec       q    Type
REMARK                         _______ _______ _______ _____ _____    ______ ____
ROOT
ATOM      1  C   UNL     1      -0.813  -4.571  -3.675  0.00  0.00    +0.217 C 
ATOM      2  O   UNL     1      -1.553  -4.757  -4.618  0.00  0.00    -0.275 OA
ATOM      3  N   UNL     1      -0.837  -5.413  -2.623  0.00  0.00    -0.285 N 
ATOM      4  H   UNL     1      -0.200  -5.304  -1.900  0.00  0.00    +0.155 HD
ENDROOT
BRANCH   3   5
ATOM      5  C   UNL     1      -1.782  -6.444  -2.574  0.00  0.00    +0.033 A 
ATOM      6  C   UNL     1      -2.334  -6.824  -1.358  0.00  0.00    +0.025 A 
ATOM      7  C   UNL     1      -3.266  -7.842  -1.312  0.00  0.00    +0.031 A 
ATOM      8  C   UNL     1      -3.650  -8.483  -2.476  0.00  0.00    +0.113 A 
ATOM      9  C   UNL     1      -3.101  -8.107  -3.689  0.00  0.00    +0.031 A 
ATOM     10  C   UNL     1      -2.173  -7.085  -3.742  0.00  0.00    +0.025 A 
BRANCH   8  11
ATOM     11  S   UNL     1      -4.840  -9.781  -2.414  0.00  0.00    +0.100 S 
ATOM     12  O   UNL     1      -4.624 -10.585  -3.566  0.00  0.00    -0.146 OA
ATOM     13  O   UNL     1      -4.795 -10.310  -1.096  0.00  0.00    -0.146 OA
BRANCH  11  14
ATOM     14  N   UNL     1      -6.332  -9.086  -2.595  0.00  0.00    -0.118 NA
ATOM     15  C   UNL     1      -7.394  -9.825  -2.586  0.00  0.00    +0.117 C 
ATOM     16  N   UNL     1      -7.410 -11.185  -2.430  0.00  0.00    -0.331 N 
ATOM     17  C   UNL     1      -8.749 -11.607  -1.989  0.00  0.00    +0.103 C 
ATOM     18  C   UNL     1      -9.706 -10.568  -2.615  0.00  0.00    +0.026 C 
ATOM     19  C   UNL     1      -8.811  -9.317  -2.741  0.00  0.00    +0.074 C 
ATOM     20  H   UNL     1      -6.657 -11.777  -2.585  0.00  0.00    +0.147 HD
ENDBRANCH  11  14
ENDBRANCH   8  11
ENDBRANCH   3   5
BRANCH   1  21
ATOM     21  C   UNL     1       0.134  -3.399  -3.680  0.00  0.00    +0.100 C 
BRANCH  21  22
ATOM     22  C   UNL     1      -0.038  -2.609  -4.979  0.00  0.00    +0.042 C 
BRANCH  22  29
ATOM     23  C   UNL     1       4.164  -2.027  -6.727  0.00  0.00    +0.001 A 
ATOM     24  C   UNL     1       4.696  -0.751  -6.499  0.00  0.00    +0.002 A 
ATOM     25  C   UNL     1       4.026   0.209  -5.827  0.00  0.00    +0.026 A 
ATOM     26  C   UNL     1       2.724  -0.048  -5.314  0.00  0.00    +0.043 A 
ATOM     27  N   UNL     1       1.887   0.704  -4.641  0.00  0.00    -0.380 N 
ATOM     28  C   UNL     1       0.675  -0.077  -4.366  0.00  0.00    +0.144 C 
ATOM     29  C   UNL     1       0.908  -1.437  -4.985  0.00  0.00    -0.041 C 
ATOM     30  C   UNL     1       2.140  -1.389  -5.543  0.00  0.00    -0.001 A 
ATOM     31  C   UNL     1       2.935  -2.375  -6.284  0.00  0.00    +0.010 A 
ATOM     32  H   UNL     1       2.043   1.622  -4.370  0.00  0.00    +0.160 HD
ENDBRANCH  22  29
ENDBRANCH  21  22
ENDBRANCH   1  21
TORSDOF 6
