REMARK  Name = ZINC50586372
REMARK  8 active torsions:
REMARK  status: ('A' for Active; 'I' for Inactive)
REMARK    1  A    between atoms: C_1  and  C_2
REMARK    2  A    between atoms: C_2  and  C_3
REMARK    3  A    between atoms: C_3  and  C_5
REMARK    4  A    between atoms: C_3  and  N_22
REMARK    5  A    between atoms: C_5  and  C_7
REMARK    6  A    between atoms: C_5  and  N_14
REMARK    7  A    between atoms: C_15  and  C_21
REMARK    8  A    between atoms: C_17  and  C_19
REMARK                            x       y       z     vdW  Elec       q    Type
REMARK                         _______ _______ _______ _____ _____    ______ ____
ROOT
ATOM      1  C   UNL     1       0.642  -2.013  -1.453  0.00  0.00    +0.123 C 
ENDROOT
BRANCH   1   2
ATOM      2  N   UNL     1       1.080  -2.650  -0.209  0.00  0.00    -0.261 N 
ATOM      3  C   UNL     1       2.120  -3.501  -0.075  0.00  0.00    +0.055 A 
ATOM      4  C   UNL     1       2.191  -3.862   1.228  0.00  0.00    +0.084 A 
ATOM      5  C   UNL     1       1.160  -3.210   1.913  0.00  0.00    +0.078 A 
ATOM      6  N   UNL     1       0.497  -2.479   1.054  0.00  0.00    -0.174 NA
ATOM      7  C   UNL     1       0.867  -3.325   3.386  0.00  0.00    +0.069 C 
ATOM      8 CL   UNL     1       3.356  -4.944   1.925  0.00  0.00    -0.080 Cl
ATOM      9  C   UNL     1       3.036  -3.965  -1.178  0.00  0.00    +0.067 C 
ENDBRANCH   1   2
BRANCH   1  10
ATOM     10  C   UNL     1      -0.781  -2.411  -1.748  0.00  0.00    -0.024 A 
ATOM     11  C   UNL     1      -1.794  -2.047  -0.880  0.00  0.00    +0.006 A 
ATOM     12  C   UNL     1      -3.100  -2.411  -1.149  0.00  0.00    +0.001 A 
ATOM     13  C   UNL     1      -3.394  -3.140  -2.287  0.00  0.00    +0.015 A 
ATOM     14  C   UNL     1      -2.381  -3.503  -3.156  0.00  0.00    +0.018 A 
ATOM     15  C   UNL     1      -1.075  -3.134  -2.888  0.00  0.00    +0.021 A 
ATOM     16 BR   UNL     1      -2.782  -4.500  -4.712  0.00  0.00    -0.050 Br
ENDBRANCH   1  10
BRANCH   1  17
ATOM     17  C   UNL     1       0.727  -0.492  -1.305  0.00  0.00    -0.046 C 
BRANCH  17  18
ATOM     18  N   UNL     1       0.334   0.145  -2.569  0.00  0.00    +0.382 N 
ATOM     19  H   UNL     1       0.390   1.148  -2.471  0.00  0.00    -0.090 HD
ATOM     20  H   UNL     1       0.955  -0.156  -3.305  0.00  0.00    -0.090 HD
ATOM     21  H   UNL     1      -0.612  -0.118  -2.799  0.00  0.00    -0.090 HD
ENDBRANCH  17  18
BRANCH  17  23
ATOM     22  C   UNL     1       2.223   1.413  -0.693  0.00  0.00    +0.002 C 
ATOM     23  C   UNL     1       2.162  -0.093  -0.957  0.00  0.00    -0.017 C 
ENDBRANCH  17  23
ENDBRANCH   1  17
TORSDOF 5
