REMARK  Name = ZINC36567910
REMARK  13 active torsions:
REMARK  status: ('A' for Active; 'I' for Inactive)
REMARK    1  A    between atoms: C_1  and  C_2
REMARK    2  A    between atoms: C_2  and  C_3
REMARK    3  A    between atoms: C_3  and  N_4
REMARK    4  A    between atoms: N_4  and  C_5
REMARK    5  A    between atoms: C_5  and  C_7
REMARK    6  A    between atoms: C_5  and  C_16
REMARK    7  A    between atoms: C_10  and  N_13
REMARK    8  A    between atoms: N_18  and  C_19
REMARK    9  A    between atoms: C_19  and  S_20
REMARK   10  A    between atoms: S_20  and  C_23
REMARK   11  A    between atoms: C_26  and  C_29
REMARK   12  A    between atoms: C_30  and  C_32
REMARK   13  A    between atoms: C_37  and  O_38
REMARK                            x       y       z     vdW  Elec       q    Type
REMARK                         _______ _______ _______ _____ _____    ______ ____
ROOT
ATOM      1  C   UNL     1       0.745  -3.208  -0.243  0.00  0.00    +0.192 C 
ENDROOT
BRANCH   1   2
ATOM      2  C   UNL     1       2.231  -2.959  -0.233  0.00  0.00    -0.018 A 
ATOM      3  C   UNL     1       2.727  -1.751   0.219  0.00  0.00    +0.008 A 
ATOM      4  C   UNL     1       4.090  -1.523   0.228  0.00  0.00    +0.033 A 
ATOM      5  C   UNL     1       4.958  -2.503  -0.215  0.00  0.00    +0.126 A 
ATOM      6  C   UNL     1       4.462  -3.712  -0.667  0.00  0.00    +0.033 A 
ATOM      7  C   UNL     1       3.099  -3.942  -0.672  0.00  0.00    +0.008 A 
BRANCH   5   8
ATOM      8  N   UNL     1       6.418  -2.259  -0.207  0.00  0.00    +0.056 N 
ATOM      9  O   UNL     1       6.851  -1.201   0.188  0.00  0.00    -0.126 OA
ATOM     10  O   UNL     1       7.177  -3.116  -0.595  0.00  0.00    -0.126 OA
ENDBRANCH   5   8
ENDBRANCH   1   2
BRANCH   1  11
ATOM     11  C   UNL     1       0.326  -3.693  -1.607  0.00  0.00    +0.239 C 
ATOM     12  O   UNL     1      -0.122  -2.911  -2.417  0.00  0.00    -0.273 OA
ATOM     13  N   UNL     1       0.448  -4.997  -1.925  0.00  0.00    -0.294 N 
ATOM     14  H   UNL     1       0.807  -5.623  -1.277  0.00  0.00    +0.150 HD
BRANCH  13  15
ATOM     15  C   UNL     1       0.041  -5.469  -3.251  0.00  0.00    +0.278 C 
BRANCH  15  16
ATOM     16  S   UNL     1       1.484  -5.511  -4.348  0.00  0.00    +0.013 S 
ATOM     17  O   UNL     1       1.117  -6.027  -5.620  0.00  0.00    -0.168 OA
ATOM     18  O   UNL     1       2.215  -4.297  -4.242  0.00  0.00    -0.168 OA
BRANCH  16  19
ATOM     19  C   UNL     1       2.544  -6.736  -3.655  0.00  0.00    +0.090 A 
ATOM     20  C   UNL     1       3.489  -6.379  -2.711  0.00  0.00    +0.027 A 
ATOM     21  C   UNL     1       4.320  -7.340  -2.167  0.00  0.00    +0.005 A 
ATOM     22  C   UNL     1       4.207  -8.659  -2.568  0.00  0.00    -0.050 A 
ATOM     23  C   UNL     1       3.262  -9.016  -3.511  0.00  0.00    +0.005 A 
ATOM     24  C   UNL     1       2.428  -8.055  -4.052  0.00  0.00    +0.027 A 
ATOM     25  C   UNL     1       5.114  -9.706  -1.976  0.00  0.00    +0.044 C 
ENDBRANCH  16  19
ENDBRANCH  15  16
ENDBRANCH  13  15
ENDBRANCH   1  11
BRANCH   1  26
ATOM     26  N   UNL     1       0.039  -1.963   0.071  0.00  0.00    -0.282 N 
ATOM     27  C   UNL     1      -0.709  -1.876   1.189  0.00  0.00    +0.251 C 
ATOM     28  O   UNL     1      -1.214  -0.815   1.500  0.00  0.00    -0.270 OA
BRANCH  27  29
ATOM     29  C   UNL     1      -0.913  -3.067   2.034  0.00  0.00    +0.078 A 
ATOM     30  C   UNL     1       0.179  -3.840   2.435  0.00  0.00    +0.017 A 
ATOM     31  C   UNL     1      -0.018  -4.952   3.226  0.00  0.00    +0.001 A 
ATOM     32  C   UNL     1      -1.297  -5.307   3.625  0.00  0.00    +0.004 A 
ATOM     33  C   UNL     1      -2.385  -4.551   3.236  0.00  0.00    +0.046 A 
ATOM     34  C   UNL     1      -2.204  -3.427   2.445  0.00  0.00    +0.129 A 
BRANCH  34  35
ATOM     35  O   UNL     1      -3.272  -2.681   2.067  0.00  0.00    -0.506 OA
ATOM     36  H   UNL     1      -3.673  -2.963   1.233  0.00  0.00    +0.292 HD
ENDBRANCH  34  35
ENDBRANCH  27  29
BRANCH  26  37
ATOM     37  C   UNL     1       0.147  -0.813  -0.831  0.00  0.00    +0.109 C 
BRANCH  37  39
ATOM     38  C   UNL     1      -1.100   0.633  -2.442  0.00  0.00    +0.005 C 
ATOM     39  C   UNL     1      -1.232  -0.488  -1.408  0.00  0.00    +0.016 C 
ENDBRANCH  37  39
ENDBRANCH  26  37
ENDBRANCH   1  26
TORSDOF 11
