REMARK  Name = ZINC02385296
REMARK  4 active torsions:
REMARK  status: ('A' for Active; 'I' for Inactive)
REMARK    1  A    between atoms: C_1  and  C_2
REMARK    2  A    between atoms: C_2  and  C_21
REMARK    3  A    between atoms: N_5  and  C_10
REMARK    4  A    between atoms: C_10  and  C_11
REMARK                            x       y       z     vdW  Elec       q    Type
REMARK                         _______ _______ _______ _____ _____    ______ ____
ROOT
ATOM      1  C   UNL     1       0.574   3.793  -4.705  0.00  0.00    +0.039 C 
ATOM      2  C   UNL     1       0.879   4.804  -3.599  0.00  0.00    +0.113 C 
ATOM      3  C   UNL     1       0.375   4.270  -2.296  0.00  0.00    +0.257 C 
ATOM      4  O   UNL     1      -0.792   3.999  -2.110  0.00  0.00    -0.272 OA
ATOM      5  N   UNL     1       1.312   4.114  -1.349  0.00  0.00    -0.156 N 
ATOM      6  S   UNL     1       2.762   4.604  -2.006  0.00  0.00    +0.115 S 
ATOM      7  O   UNL     1       3.159   5.784  -1.322  0.00  0.00    -0.138 OA
ATOM      8  O   UNL     1       3.588   3.452  -2.115  0.00  0.00    -0.138 OA
ATOM      9  N   UNL     1       2.327   5.047  -3.556  0.00  0.00    -0.162 NA
ATOM     10  C   UNL     1       0.160   6.117  -3.913  0.00  0.00    +0.039 C 
ATOM     11  H   UNL     1       2.897   5.389  -4.263  0.00  0.00    +0.151 HD
ENDROOT
BRANCH   5  12
ATOM     12  C   UNL     1       1.099   3.612   0.011  0.00  0.00    +0.171 C 
BRANCH  12  13
ATOM     13  C   UNL     1       1.141   2.106   0.003  0.00  0.00    -0.021 A 
ATOM     14  C   UNL     1      -0.017   1.389   0.010  0.00  0.00    +0.006 A 
ATOM     15  C   UNL     1       0.002  -0.004   0.002  0.00  0.00    +0.001 A 
ATOM     16  C   UNL     1       1.178  -0.689  -0.013  0.00  0.00    +0.008 A 
ATOM     17  C   UNL     1       2.393   0.016  -0.021  0.00  0.00    -0.018 A 
ATOM     18  C   UNL     1       2.374   1.434  -0.013  0.00  0.00    -0.013 A 
ATOM     19  C   UNL     1       3.590   2.139  -0.022  0.00  0.00    +0.009 A 
ATOM     20  C   UNL     1       4.766   1.455  -0.037  0.00  0.00    +0.001 A 
ATOM     21  C   UNL     1       4.785   0.061  -0.045  0.00  0.00    +0.001 A 
ATOM     22  C   UNL     1       3.628  -0.656  -0.037  0.00  0.00    +0.008 A 
ENDBRANCH  12  13
ENDBRANCH   5  12
TORSDOF 2
