REMARK  Name = ZINC32581837
REMARK  10 active torsions:
REMARK  status: ('A' for Active; 'I' for Inactive)
REMARK    1  A    between atoms: C_1  and  C_2
REMARK    2  A    between atoms: C_3  and  C_15
REMARK    3  A    between atoms: N_6  and  C_7
REMARK    4  A    between atoms: C_10  and  O_13
REMARK    5  A    between atoms: O_13  and  C_14
REMARK    6  A    between atoms: C_15  and  C_17
REMARK    7  A    between atoms: C_15  and  N_18
REMARK    8  A    between atoms: N_18  and  C_19
REMARK    9  A    between atoms: C_19  and  C_20
REMARK   10  A    between atoms: C_25  and  C_26
REMARK                            x       y       z     vdW  Elec       q    Type
REMARK                         _______ _______ _______ _____ _____    ______ ____
ROOT
ATOM      1  C   UNL     1      -0.006  -0.327  -2.527  0.00  0.00    -0.040 C 
ATOM      2  C   UNL     1      -1.434   0.049  -2.927  0.00  0.00    -0.009 C 
ENDROOT
BRANCH   1   5
ATOM      3  C   UNL     1      -0.018   1.503   0.010  0.00  0.00    +0.066 C 
ATOM      4  C   UNL     1       0.002  -0.004   0.002  0.00  0.00    +0.043 A 
ATOM      5  C   UNL     1       0.008  -0.796  -1.095  0.00  0.00    -0.021 A 
ATOM      6  C   UNL     1       0.028  -2.127  -0.665  0.00  0.00    +0.137 A 
ATOM      7  N   UNL     1       0.035  -2.135   0.643  0.00  0.00    -0.174 NA
ATOM      8  N   UNL     1       0.024  -0.807   1.089  0.00  0.00    -0.237 N 
BRANCH   8   9
ATOM      9  C   UNL     1       0.031  -0.385   2.427  0.00  0.00    +0.066 A 
ATOM     10  C   UNL     1       0.703   0.775   2.786  0.00  0.00    +0.031 A 
ATOM     11  C   UNL     1       0.709   1.190   4.103  0.00  0.00    +0.048 A 
ATOM     12  C   UNL     1       0.044   0.448   5.068  0.00  0.00    +0.120 A 
ATOM     13  C   UNL     1      -0.628  -0.712   4.710  0.00  0.00    +0.048 A 
ATOM     14  C   UNL     1      -0.639  -1.125   3.392  0.00  0.00    +0.031 A 
BRANCH  12  15
ATOM     15  O   UNL     1       0.051   0.856   6.364  0.00  0.00    -0.495 OA
ATOM     16  C   UNL     1      -0.654   0.043   7.304  0.00  0.00    +0.277 C 
ENDBRANCH  12  15
ENDBRANCH   8   9
ENDBRANCH   1   5
BRANCH   1  17
ATOM     17  N   UNL     1       0.479  -1.405  -3.400  0.00  0.00    +0.386 N 
ATOM     18  H   UNL     1       1.388  -1.709  -3.086  0.00  0.00    -0.085 HD
ATOM     19  H   UNL     1      -0.166  -2.180  -3.367  0.00  0.00    -0.085 HD
BRANCH  17  20
ATOM     20  C   UNL     1       0.579  -0.910  -4.780  0.00  0.00    -0.043 C 
BRANCH  20  21
ATOM     21  C   UNL     1       1.076  -2.015  -5.675  0.00  0.00    -0.024 A 
ATOM     22  C   UNL     1       2.389  -2.179  -6.128  0.00  0.00    +0.136 A 
ATOM     23  N   UNL     1       2.431  -3.249  -6.880  0.00  0.00    -0.182 NA
ATOM     24  H   UNL     1       0.884  -4.598  -7.417  0.00  0.00    +0.189 HD
ATOM     25  N   UNL     1       1.144  -3.800  -6.931  0.00  0.00    -0.281 N 
ATOM     26  C   UNL     1       0.332  -3.027  -6.179  0.00  0.00    +0.040 A 
BRANCH  26  27
ATOM     27  C   UNL     1      -1.140  -3.250  -5.945  0.00  0.00    +0.037 C 
ATOM     28  C   UNL     1      -1.350  -4.609  -5.275  0.00  0.00    +0.010 C 
ATOM     29  C   UNL     1      -2.844  -4.836  -5.038  0.00  0.00    +0.001 C 
ATOM     30  C   UNL     1      -3.583  -4.807  -6.377  0.00  0.00    +0.000 C 
ATOM     31  C   UNL     1      -3.373  -3.447  -7.046  0.00  0.00    +0.001 C 
ATOM     32  C   UNL     1      -1.879  -3.221  -7.284  0.00  0.00    +0.010 C 
ENDBRANCH  26  27
ENDBRANCH  20  21
ENDBRANCH  17  20
ENDBRANCH   1  17
TORSDOF 7
