REMARK  Name = ZINC12202677
REMARK  10 active torsions:
REMARK  status: ('A' for Active; 'I' for Inactive)
REMARK    1  A    between atoms: C_1  and  N_2
REMARK    2  A    between atoms: N_2  and  C_3
REMARK    3  A    between atoms: N_2  and  C_4
REMARK    4  A    between atoms: C_5  and  C_16
REMARK    5  A    between atoms: C_16  and  N_17
REMARK    6  A    between atoms: N_17  and  C_18
REMARK    7  A    between atoms: C_18  and  C_19
REMARK    8  A    between atoms: C_25  and  C_27
REMARK    9  A    between atoms: C_27  and  C_28
REMARK   10  A    between atoms: C_27  and  C_34
REMARK                            x       y       z     vdW  Elec       q    Type
REMARK                         _______ _______ _______ _____ _____    ______ ____
ROOT
ATOM      1  N   UNL     1      -5.075   1.250  -1.066  0.00  0.00    -0.294 N 
ATOM      2  C   UNL     1      -5.211   0.675   0.145  0.00  0.00    +0.228 C 
ATOM      3  O   UNL     1      -4.372  -0.104   0.545  0.00  0.00    -0.275 OA
ENDROOT
BRANCH   1   4
ATOM      4  C   UNL     1      -6.021   2.282  -1.498  0.00  0.00    +0.146 C 
BRANCH   4   6
ATOM      5  C   UNL     1      -8.290   2.408  -2.588  0.00  0.00    +0.103 A 
ATOM      6  C   UNL     1      -7.198   1.631  -2.179  0.00  0.00    +0.008 A 
ATOM      7  C   UNL     1      -7.199   0.287  -2.403  0.00  0.00    +0.018 A 
ATOM      8  C   UNL     1      -8.319  -0.284  -3.039  0.00  0.00    +0.002 A 
ATOM      9  C   UNL     1      -8.386  -1.663  -3.295  0.00  0.00    +0.059 A 
ATOM     10  C   UNL     1      -9.481  -2.185  -3.920  0.00  0.00    +0.167 A 
ATOM     11  C   UNL     1     -10.545  -1.354  -4.311  0.00  0.00    +0.168 A 
ATOM     12  C   UNL     1     -10.505  -0.010  -4.073  0.00  0.00    +0.075 A 
ATOM     13  C   UNL     1      -9.391   0.555  -3.431  0.00  0.00    +0.051 A 
ATOM     14  O   UNL     1     -11.498  -2.129  -4.909  0.00  0.00    -0.453 OA
ATOM     15  C   UNL     1     -10.837  -3.360  -5.250  0.00  0.00    +0.466 C 
ATOM     16  O   UNL     1      -9.782  -3.469  -4.277  0.00  0.00    -0.453 OA
ATOM     17  N   UNL     1      -9.390   1.915  -3.209  0.00  0.00    -0.343 N 
ATOM     18  H   UNL     1     -10.172   2.517  -3.495  0.00  0.00    +0.167 HD
BRANCH   5  20
ATOM     19  C   UNL     1      -8.427   4.524  -3.613  0.00  0.00    +0.130 C 
ATOM     20  N   UNL     1      -8.272   3.777  -2.358  0.00  0.00    -0.322 N 
ATOM     21  C   UNL     1      -9.305   4.160  -1.386  0.00  0.00    +0.130 C 
ENDBRANCH   5  20
ENDBRANCH   4   6
ENDBRANCH   1   4
BRANCH   1  22
ATOM     22  C   UNL     1      -3.981   0.843  -1.951  0.00  0.00    +0.139 C 
BRANCH  22  23
ATOM     23  C   UNL     1      -2.785   1.776  -1.746  0.00  0.00    +0.136 C 
ATOM     24  C   UNL     1      -1.675   1.436  -2.759  0.00  0.00    +0.035 C 
ATOM     25  C   UNL     1      -0.450   1.092  -1.878  0.00  0.00    +0.031 C 
ATOM     26  C   UNL     1      -0.809   1.781  -0.537  0.00  0.00    +0.160 C 
ATOM     27  O   UNL     1      -2.237   1.586  -0.431  0.00  0.00    -0.375 OA
ENDBRANCH  22  23
ENDBRANCH   1  22
BRANCH   2  28
ATOM     28  C   UNL     1      -6.407   1.001   1.004  0.00  0.00    +0.135 C 
BRANCH  28  29
ATOM     29  C   UNL     1      -6.422   0.095   2.208  0.00  0.00    -0.031 A 
ATOM     30  C   UNL     1      -5.423   0.191   3.159  0.00  0.00    +0.005 A 
ATOM     31  C   UNL     1      -5.440  -0.637   4.265  0.00  0.00    +0.000 A 
ATOM     32  C   UNL     1      -6.450  -1.569   4.416  0.00  0.00    +0.000 A 
ATOM     33  C   UNL     1      -7.446  -1.669   3.463  0.00  0.00    +0.000 A 
ATOM     34  C   UNL     1      -7.432  -0.837   2.359  0.00  0.00    +0.005 A 
ENDBRANCH  28  29
BRANCH  28  35
ATOM     35  C   UNL     1      -6.324   2.436   1.457  0.00  0.00    -0.031 A 
ATOM     36  C   UNL     1      -5.105   2.977   1.820  0.00  0.00    +0.005 A 
ATOM     37  C   UNL     1      -5.028   4.294   2.231  0.00  0.00    +0.000 A 
ATOM     38  C   UNL     1      -6.172   5.068   2.287  0.00  0.00    +0.000 A 
ATOM     39  C   UNL     1      -7.392   4.526   1.929  0.00  0.00    +0.000 A 
ATOM     40  C   UNL     1      -7.468   3.210   1.514  0.00  0.00    +0.005 A 
ENDBRANCH  28  35
ENDBRANCH   2  28
TORSDOF 8
