REMARK  Name = ZINC37575624
REMARK  3 active torsions:
REMARK  status: ('A' for Active; 'I' for Inactive)
REMARK    1  A    between atoms: C_3  and  N_9
REMARK    2  A    between atoms: N_9  and  S_10
REMARK    3  A    between atoms: S_10  and  C_13
REMARK                            x       y       z     vdW  Elec       q    Type
REMARK                         _______ _______ _______ _____ _____    ______ ____
ROOT
ATOM      1  S   UNL     1       5.027   1.322   0.086  0.00  0.00    +0.093 S 
ATOM      2  O   UNL     1       5.018   0.636   1.330  0.00  0.00    -0.148 OA
ATOM      3  O   UNL     1       5.210   0.651  -1.153  0.00  0.00    -0.148 OA
ENDROOT
BRANCH   1   4
ATOM      4  C   UNL     1       6.296   2.540   0.192  0.00  0.00    +0.124 A 
ATOM      5  C   UNL     1       7.062   2.641   1.338  0.00  0.00    +0.033 A 
ATOM      6  C   UNL     1       8.058   3.595   1.423  0.00  0.00    +0.040 A 
ATOM      7  C   UNL     1       8.289   4.451   0.358  0.00  0.00    +0.125 A 
ATOM      8  C   UNL     1       7.521   4.350  -0.789  0.00  0.00    +0.055 A 
ATOM      9  C   UNL     1       6.528   3.390  -0.874  0.00  0.00    +0.047 A 
ATOM     10 BR   UNL     1       5.484   3.246  -2.444  0.00  0.00    -0.048 Br
ATOM     11  F   UNL     1       9.262   5.385   0.441  0.00  0.00    -0.205 F 
ENDBRANCH   1   4
BRANCH   1  12
ATOM     12  N   UNL     1       3.583   2.127  -0.021  0.00  0.00    -0.096 NA
BRANCH  12  15
ATOM     13  C   UNL     1       1.212  -0.682  -0.089  0.00  0.00    +0.040 A 
ATOM     14  C   UNL     1       2.400   0.024  -0.082  0.00  0.00    +0.031 A 
ATOM     15  C   UNL     1       2.382   1.411  -0.029  0.00  0.00    +0.093 A 
ATOM     16  C   UNL     1       1.168   2.087   0.017  0.00  0.00    +0.068 A 
ATOM     17  C   UNL     1      -0.017   1.376   0.009  0.00  0.00    +0.060 A 
ATOM     18  C   UNL     1       0.004  -0.007  -0.044  0.00  0.00    +0.125 A 
ATOM     19  F   UNL     1      -1.156  -0.700  -0.051  0.00  0.00    -0.205 F 
ATOM     20 CL   UNL     1       1.141   3.821   0.084  0.00  0.00    -0.081 Cl
ENDBRANCH  12  15
ENDBRANCH   1  12
TORSDOF 3
