REMARK  Name = ZINC62040208
REMARK  9 active torsions:
REMARK  status: ('A' for Active; 'I' for Inactive)
REMARK    1  A    between atoms: C_1  and  C_2
REMARK    2  A    between atoms: C_2  and  O_3
REMARK    3  A    between atoms: O_3  and  C_4
REMARK    4  A    between atoms: C_7  and  C_10
REMARK    5  A    between atoms: C_11  and  C_32
REMARK    6  A    between atoms: C_15  and  N_20
REMARK    7  A    between atoms: C_17  and  C_19
REMARK    8  A    between atoms: N_20  and  C_21
REMARK    9  A    between atoms: C_30  and  O_31
REMARK                            x       y       z     vdW  Elec       q    Type
REMARK                         _______ _______ _______ _____ _____    ______ ____
ROOT
ATOM      1  C   UNL     1       1.387  -6.077  -2.191  0.00  0.00    +0.005 A 
ATOM      2  C   UNL     1       2.234  -6.815  -1.437  0.00  0.00    -0.003 A 
ATOM      3  S   UNL     1       1.395  -8.380  -1.281  0.00  0.00    -0.073 S 
ATOM      4  C   UNL     1      -0.062  -8.014  -2.222  0.00  0.00    +0.114 A 
ATOM      5  C   UNL     1       0.134  -6.678  -2.633  0.00  0.00    +0.056 A 
ATOM      6  C   UNL     1      -0.912  -6.122  -3.416  0.00  0.00    +0.135 A 
ATOM      7  N   UNL     1      -1.972  -6.863  -3.699  0.00  0.00    -0.217 NA
ATOM      8  C   UNL     1      -2.092  -8.108  -3.276  0.00  0.00    +0.129 A 
ATOM      9  N   UNL     1      -1.149  -8.682  -2.554  0.00  0.00    -0.225 NA
ATOM     10  C   UNL     1      -3.326  -8.894  -3.636  0.00  0.00    +0.088 C 
ATOM     11  C   UNL     1       3.569  -6.411  -0.866  0.00  0.00    +0.052 C 
ENDROOT
BRANCH   1  15
ATOM     12  C   UNL     1       2.354  -2.069  -3.237  0.00  0.00    +0.121 A 
ATOM     13  C   UNL     1       2.028  -2.383  -1.925  0.00  0.00    +0.046 A 
ATOM     14  C   UNL     1       1.714  -3.681  -1.583  0.00  0.00    +0.012 A 
ATOM     15  C   UNL     1       1.724  -4.680  -2.556  0.00  0.00    -0.016 A 
ATOM     16  C   UNL     1       2.052  -4.361  -3.873  0.00  0.00    +0.012 A 
ATOM     17  C   UNL     1       2.360  -3.060  -4.210  0.00  0.00    +0.046 A 
BRANCH  12  18
ATOM     18  O   UNL     1       2.664  -0.789  -3.572  0.00  0.00    -0.492 OA
BRANCH  18  20
ATOM     19  C   UNL     1       3.012   1.553  -3.085  0.00  0.00    +0.048 C 
ATOM     20  C   UNL     1       2.639   0.180  -2.522  0.00  0.00    +0.225 C 
ENDBRANCH  18  20
ENDBRANCH  12  18
ENDBRANCH   1  15
BRANCH   6  21
ATOM     21  N   UNL     1      -0.825  -4.820  -3.878  0.00  0.00    -0.298 N 
ATOM     22  H   UNL     1      -0.091  -4.252  -3.593  0.00  0.00    +0.154 HD
BRANCH  21  23
ATOM     23  C   UNL     1      -1.792  -4.324  -4.753  0.00  0.00    +0.040 A 
ATOM     24  C   UNL     1      -2.554  -5.188  -5.509  0.00  0.00    +0.024 A 
ATOM     25  C   UNL     1      -3.521  -4.702  -6.384  0.00  0.00    +0.003 A 
ATOM     26  C   UNL     1      -3.741  -3.365  -6.518  0.00  0.00    +0.012 A 
ATOM     27  C   UNL     1      -2.985  -2.451  -5.765  0.00  0.00    +0.025 A 
ATOM     28  C   UNL     1      -2.002  -2.933  -4.867  0.00  0.00    +0.007 A 
ATOM     29  C   UNL     1      -1.250  -2.018  -4.111  0.00  0.00    +0.010 A 
ATOM     30  C   UNL     1      -1.478  -0.682  -4.245  0.00  0.00    +0.004 A 
ATOM     31  C   UNL     1      -2.447  -0.204  -5.122  0.00  0.00    +0.046 A 
ATOM     32  C   UNL     1      -3.190  -1.061  -5.883  0.00  0.00    +0.125 A 
BRANCH  32  33
ATOM     33  O   UNL     1      -4.131  -0.579  -6.736  0.00  0.00    -0.506 OA
ATOM     34  H   UNL     1      -5.006  -0.473  -6.337  0.00  0.00    +0.292 HD
ENDBRANCH  32  33
ENDBRANCH  21  23
ENDBRANCH   6  21
TORSDOF 6
