REMARK  Name = ZINC12207743
REMARK  9 active torsions:
REMARK  status: ('A' for Active; 'I' for Inactive)
REMARK    1  A    between atoms: C_1  and  C_2
REMARK    2  A    between atoms: C_4  and  N_24
REMARK    3  A    between atoms: C_7  and  S_8
REMARK    4  A    between atoms: S_8  and  N_11
REMARK    5  A    between atoms: N_11  and  C_12
REMARK    6  A    between atoms: C_12  and  C_13
REMARK    7  A    between atoms: C_13  and  C_14
REMARK    8  A    between atoms: C_17  and  S_20
REMARK    9  A    between atoms: S_20  and  N_23
REMARK                            x       y       z     vdW  Elec       q    Type
REMARK                         _______ _______ _______ _____ _____    ______ ____
ROOT
ATOM      1  S   UNL     1      -1.795   2.074   0.475  0.00  0.00    +0.059 S 
ATOM      2  O   UNL     1      -2.834   1.147   0.191  0.00  0.00    -0.153 OA
ATOM      3  O   UNL     1      -1.757   2.832   1.677  0.00  0.00    -0.153 OA
ENDROOT
BRANCH   1  10
ATOM      4  C   UNL     1       0.932   3.300   0.916  0.00  0.00    +0.046 C 
ATOM      5  C   UNL     1       0.919   1.824   0.613  0.00  0.00    -0.022 A 
ATOM      6  C   UNL     1       2.107   1.122   0.549  0.00  0.00    +0.030 A 
ATOM      7  C   UNL     1       2.094  -0.238   0.269  0.00  0.00    +0.051 A 
ATOM      8  C   UNL     1       0.885  -0.888   0.055  0.00  0.00    +0.026 A 
ATOM      9  C   UNL     1      -0.299  -0.181   0.121  0.00  0.00    +0.030 A 
ATOM     10  C   UNL     1      -0.282   1.174   0.399  0.00  0.00    +0.108 A 
BRANCH   7  11
ATOM     11  N   UNL     1       3.293  -0.951   0.204  0.00  0.00    -0.207 N 
ATOM     12  C   UNL     1       4.352  -0.569  -0.742  0.00  0.00    +0.131 C 
ATOM     13  C   UNL     1       5.644  -0.289   0.024  0.00  0.00    +0.022 C 
ATOM     14  C   UNL     1       6.155  -1.558   0.702  0.00  0.00    +0.026 C 
ATOM     15  C   UNL     1       5.229  -1.933   1.866  0.00  0.00    +0.189 C 
ATOM     16  S   UNL     1       3.572  -2.255   1.200  0.00  0.00    +0.045 S 
ATOM     17  O   UNL     1       2.597  -2.150   2.228  0.00  0.00    -0.155 OA
ATOM     18  O   UNL     1       3.600  -3.382   0.333  0.00  0.00    -0.155 OA
ENDBRANCH   7  11
ENDBRANCH   1  10
BRANCH   1  19
ATOM     19  N   UNL     1      -1.778   3.164  -0.772  0.00  0.00    -0.190 NA
ATOM     20  H   UNL     1      -1.773   4.116  -0.584  0.00  0.00    +0.148 HD
BRANCH  19  21
ATOM     21  C   UNL     1      -1.773   2.691  -2.158  0.00  0.00    +0.110 C 
BRANCH  21  22
ATOM     22  C   UNL     1      -2.161   3.840  -3.091  0.00  0.00    +0.052 C 
BRANCH  22  23
ATOM     23  C   UNL     1      -2.155   3.353  -4.517  0.00  0.00    -0.046 A 
ATOM     24  C   UNL     1      -1.002   3.443  -5.274  0.00  0.00    +0.005 A 
ATOM     25  C   UNL     1      -0.995   2.992  -6.580  0.00  0.00    +0.029 A 
ATOM     26  C   UNL     1      -2.145   2.460  -7.134  0.00  0.00    +0.105 A 
ATOM     27  C   UNL     1      -3.300   2.375  -6.379  0.00  0.00    +0.029 A 
ATOM     28  C   UNL     1      -3.305   2.822  -5.071  0.00  0.00    +0.005 A 
BRANCH  26  29
ATOM     29  S   UNL     1      -2.138   1.890  -8.801  0.00  0.00    +0.056 S 
ATOM     30  O   UNL     1      -0.788   1.578  -9.118  0.00  0.00    -0.153 OA
ATOM     31  O   UNL     1      -3.185   0.936  -8.908  0.00  0.00    -0.153 OA
BRANCH  29  32
ATOM     32  N   UNL     1      -2.565   3.172  -9.759  0.00  0.00    -0.204 NA
ATOM     33  H   UNL     1      -2.761   4.033  -9.358  0.00  0.00    +0.144 HD
ATOM     34  H   UNL     1      -2.619   3.061 -10.721  0.00  0.00    +0.144 HD
ENDBRANCH  29  32
ENDBRANCH  26  29
ENDBRANCH  22  23
ENDBRANCH  21  22
ENDBRANCH  19  21
ENDBRANCH   1  19
TORSDOF 8
