REMARK  Name = ZINC05541490
REMARK  16 active torsions:
REMARK  status: ('A' for Active; 'I' for Inactive)
REMARK    1  A    between atoms: C_1  and  C_2
REMARK    2  A    between atoms: C_4  and  C_30
REMARK    3  A    between atoms: C_6  and  S_8
REMARK    4  A    between atoms: S_8  and  C_9
REMARK    5  A    between atoms: C_9  and  C_10
REMARK    6  A    between atoms: N_12  and  N_13
REMARK    7  A    between atoms: C_14  and  C_15
REMARK    8  A    between atoms: C_17  and  C_26
REMARK    9  A    between atoms: C_18  and  O_25
REMARK   10  A    between atoms: C_19  and  C_21
REMARK   11  A    between atoms: C_21  and  C_22
REMARK   12  A    between atoms: C_21  and  C_23
REMARK   13  A    between atoms: C_21  and  C_24
REMARK   14  A    between atoms: C_26  and  C_27
REMARK   15  A    between atoms: C_26  and  C_28
REMARK   16  A    between atoms: C_26  and  C_29
REMARK                            x       y       z     vdW  Elec       q    Type
REMARK                         _______ _______ _______ _____ _____    ______ ____
ROOT
ATOM      1  N   UNL     1       0.002  -0.004   0.002  0.00  0.00    -0.188 NA
ATOM      2  C   UNL     1      -1.113  -0.668   0.009  0.00  0.00    +0.138 C 
ENDROOT
BRANCH   2   3
ATOM      3  C   UNL     1      -1.093  -2.142   0.001  0.00  0.00    -0.005 A 
ATOM      4  C   UNL     1       0.125  -2.826  -0.020  0.00  0.00    +0.017 A 
ATOM      5  C   UNL     1       0.139  -4.205  -0.023  0.00  0.00    +0.000 A 
ATOM      6  C   UNL     1      -1.055  -4.913  -0.016  0.00  0.00    +0.124 A 
ATOM      7  C   UNL     1      -2.269  -4.237   0.001  0.00  0.00    +0.000 A 
ATOM      8  C   UNL     1      -2.292  -2.860   0.009  0.00  0.00    +0.017 A 
BRANCH   7   9
ATOM      9  C   UNL     1      -3.561  -5.012   0.009  0.00  0.00    -0.009 C 
ATOM     10  C   UNL     1      -4.740  -4.037   0.026  0.00  0.00    +0.015 C 
ATOM     11  C   UNL     1      -3.640  -5.886  -1.245  0.00  0.00    +0.015 C 
ATOM     12  C   UNL     1      -3.616  -5.900   1.253  0.00  0.00    +0.015 C 
ENDBRANCH   7   9
BRANCH   5  13
ATOM     13  C   UNL     1       1.452  -4.944  -0.041  0.00  0.00    -0.009 C 
ATOM     14  C   UNL     1       2.604  -3.937  -0.047  0.00  0.00    +0.015 C 
ATOM     15  C   UNL     1       1.556  -5.830   1.201  0.00  0.00    +0.015 C 
ATOM     16  C   UNL     1       1.530  -5.814  -1.297  0.00  0.00    +0.015 C 
ENDBRANCH   5  13
BRANCH   6  17
ATOM     17  O   UNL     1      -1.037  -6.271  -0.025  0.00  0.00    -0.506 OA
ATOM     18  H   UNL     1      -1.040  -6.659  -0.910  0.00  0.00    +0.292 HD
ENDBRANCH   6  17
ENDBRANCH   2   3
BRANCH   1  21
ATOM     19  C   UNL     1       1.141   2.087   0.002  0.00  0.00    +0.242 C 
ATOM     20  O   UNL     1       2.200   1.494  -0.011  0.00  0.00    -0.273 OA
ATOM     21  N   UNL     1      -0.017   1.397   0.010  0.00  0.00    -0.206 N 
ATOM     22  H   UNL     1      -0.864   1.870   0.016  0.00  0.00    +0.177 HD
BRANCH  19  23
ATOM     23  C   UNL     1       1.121   3.593   0.011  0.00  0.00    +0.174 C 
BRANCH  23  24
ATOM     24  S   UNL     1       2.819   4.220  -0.002  0.00  0.00    -0.077 S 
BRANCH  24  30
ATOM     25  C   UNL     1      -0.446   8.161   0.050  0.00  0.00    +0.066 C 
ATOM     26  C   UNL     1       0.982   7.679   0.034  0.00  0.00    +0.043 A 
ATOM     27  C   UNL     1       2.029   8.588   0.029  0.00  0.00    +0.046 A 
ATOM     28  C   UNL     1       3.328   8.104   0.014  0.00  0.00    +0.043 A 
ATOM     29  N   UNL     1       3.528   6.796   0.005  0.00  0.00    -0.227 NA
ATOM     30  C   UNL     1       2.505   5.954   0.010  0.00  0.00    +0.189 A 
ATOM     31  N   UNL     1       1.252   6.385   0.019  0.00  0.00    -0.227 NA
ATOM     32  C   UNL     1       4.496   9.055   0.008  0.00  0.00    +0.066 C 
ENDBRANCH  24  30
ENDBRANCH  23  24
ENDBRANCH  19  23
ENDBRANCH   1  21
TORSDOF 8
