REMARK  Name = ZINC19202149
REMARK  11 active torsions:
REMARK  status: ('A' for Active; 'I' for Inactive)
REMARK    1  A    between atoms: C_1  and  C_2
REMARK    2  A    between atoms: C_2  and  C_3
REMARK    3  A    between atoms: C_3  and  C_4
REMARK    4  A    between atoms: C_4  and  N_5
REMARK    5  A    between atoms: C_6  and  N_35
REMARK    6  A    between atoms: C_7  and  N_14
REMARK    7  A    between atoms: N_14  and  C_15
REMARK    8  A    between atoms: C_15  and  C_16
REMARK    9  A    between atoms: C_22  and  C_24
REMARK   10  A    between atoms: C_24  and  C_25
REMARK   11  A    between atoms: C_28  and  C_30
REMARK                            x       y       z     vdW  Elec       q    Type
REMARK                         _______ _______ _______ _____ _____    ______ ____
ROOT
ATOM      1  N   UNL     1      -3.393  -0.824   1.303  0.00  0.00    -0.260 N 
ATOM      2  C   UNL     1      -2.111  -0.510   1.581  0.00  0.00    +0.226 C 
ATOM      3  O   UNL     1      -1.837   0.068   2.611  0.00  0.00    -0.275 OA
ENDROOT
BRANCH   1   6
ATOM      4  N   UNL     1      -6.163  -0.855   3.718  0.00  0.00    -0.280 N 
ATOM      5  C   UNL     1      -5.162  -1.306   2.889  0.00  0.00    +0.127 A 
ATOM      6  C   UNL     1      -4.427  -0.393   2.162  0.00  0.00    +0.140 A 
ATOM      7  C   UNL     1      -4.721   0.977   2.295  0.00  0.00    +0.277 A 
ATOM      8  O   UNL     1      -4.084   1.806   1.668  0.00  0.00    -0.266 OA
ATOM      9  N   UNL     1      -5.715   1.366   3.117  0.00  0.00    -0.273 N 
ATOM     10  H   UNL     1      -5.958   2.434   3.221  0.00  0.00    +0.173 HD
ATOM     11  C   UNL     1      -6.422   0.462   3.819  0.00  0.00    +0.331 A 
ATOM     12  O   UNL     1      -7.311   0.841   4.557  0.00  0.00    -0.246 OA
BRANCH   5  13
ATOM     13  N   UNL     1      -4.898  -2.651   2.787  0.00  0.00    -0.343 N 
ATOM     14  H   UNL     1      -4.096  -3.005   2.122  0.00  0.00    +0.144 HD
ATOM     15  H   UNL     1      -5.488  -3.373   3.369  0.00  0.00    +0.144 HD
ENDBRANCH   5  13
BRANCH   4  16
ATOM     16  C   UNL     1      -6.951  -1.813   4.497  0.00  0.00    +0.128 C 
BRANCH  16  17
ATOM     17  C   UNL     1      -6.280  -2.043   5.853  0.00  0.00    +0.021 C 
BRANCH  17  19
ATOM     18  C   UNL     1      -6.432  -3.274   8.021  0.00  0.00    +0.004 C 
ATOM     19  C   UNL     1      -7.103  -3.044   6.665  0.00  0.00    -0.002 C 
ENDBRANCH  17  19
ENDBRANCH  16  17
ENDBRANCH   4  16
ENDBRANCH   1   6
BRANCH   1  20
ATOM     20  C   UNL     1      -3.713  -1.613   0.111  0.00  0.00    +0.149 C 
BRANCH  20  21
ATOM     21  C   UNL     1      -4.090  -0.687  -1.017  0.00  0.00    -0.030 A 
ATOM     22  C   UNL     1      -5.392  -0.239  -1.138  0.00  0.00    +0.005 A 
ATOM     23  C   UNL     1      -5.736   0.615  -2.170  0.00  0.00    +0.000 A 
ATOM     24  C   UNL     1      -4.781   1.010  -3.087  0.00  0.00    +0.000 A 
ATOM     25  C   UNL     1      -3.480   0.557  -2.970  0.00  0.00    +0.000 A 
ATOM     26  C   UNL     1      -3.135  -0.292  -1.935  0.00  0.00    +0.005 A 
ENDBRANCH  20  21
ENDBRANCH   1  20
BRANCH   2  27
ATOM     27  C   UNL     1      -1.018  -0.878   0.610  0.00  0.00    +0.152 C 
BRANCH  27  28
ATOM     28  C   UNL     1       0.313  -0.439   1.163  0.00  0.00    +0.058 A 
ATOM     29  C   UNL     1       1.322  -1.338   1.299  0.00  0.00    +0.071 A 
ATOM     30  S   UNL     1       2.607  -0.293   1.974  0.00  0.00    -0.075 S 
ATOM     31  C   UNL     1       1.663   1.225   2.001  0.00  0.00    +0.109 A 
ATOM     32  N   UNL     1       0.500   0.814   1.512  0.00  0.00    -0.243 NA
BRANCH  31  33
ATOM     33  C   UNL     1       2.068   2.574   2.447  0.00  0.00    +0.014 A 
ATOM     34  C   UNL     1       3.352   2.808   2.936  0.00  0.00    +0.018 A 
ATOM     35  C   UNL     1       3.684   4.056   3.334  0.00  0.00    +0.046 A 
ATOM     36  S   UNL     1       2.179   4.966   3.031  0.00  0.00    -0.104 S 
ATOM     37  C   UNL     1       1.193   3.626   2.385  0.00  0.00    +0.055 A 
ENDBRANCH  31  33
ENDBRANCH  27  28
ENDBRANCH   2  27
TORSDOF 10
