REMARK  Name = ZINC20719888
REMARK  8 active torsions:
REMARK  status: ('A' for Active; 'I' for Inactive)
REMARK    1  A    between atoms: C_1  and  C_2
REMARK    2  A    between atoms: C_2  and  C_3
REMARK    3  A    between atoms: C_2  and  C_4
REMARK    4  A    between atoms: C_4  and  C_6
REMARK    5  A    between atoms: C_4  and  N_10
REMARK    6  A    between atoms: C_6  and  O_8
REMARK    7  A    between atoms: O_8  and  C_9
REMARK    8  A    between atoms: C_22  and  C_24
REMARK                            x       y       z     vdW  Elec       q    Type
REMARK                         _______ _______ _______ _____ _____    ______ ____
ROOT
ATOM      1  N   UNL     1       1.498   1.754   2.146  0.00  0.00    -0.286 N 
ATOM      2  C   UNL     1       2.558   1.115   1.613  0.00  0.00    +0.304 C 
ATOM      3  O   UNL     1       2.435  -0.017   1.188  0.00  0.00    -0.253 OA
ATOM      4  N   UNL     1       3.756   1.731   1.552  0.00  0.00    -0.273 N 
ATOM      5  C   UNL     1       4.894   1.098   0.870  0.00  0.00    +0.116 C 
ATOM      6  C   UNL     1       5.291   1.952  -0.341  0.00  0.00    +0.074 C 
ATOM      7  C   UNL     1       5.321   3.400   0.074  0.00  0.00    +0.040 A 
ATOM      8  C   UNL     1       4.729   3.897   1.181  0.00  0.00    +0.062 A 
ATOM      9  N   UNL     1       4.961   5.211   1.221  0.00  0.00    -0.348 N 
ATOM     10  C   UNL     1       5.679   5.551   0.182  0.00  0.00    +0.171 A 
ATOM     11  N   UNL     1       5.925   4.445  -0.557  0.00  0.00    -0.349 N 
ATOM     12  H   UNL     1       6.435   4.404  -1.382  0.00  0.00    +0.166 HD
ATOM     13  C   UNL     1       3.954   3.058   2.163  0.00  0.00    +0.159 C 
ATOM     14  H   UNL     1       1.612   2.628   2.551  0.00  0.00    +0.151 HD
ATOM     15  H   UNL     1       4.648   5.817   1.911  0.00  0.00    +0.167 HD
ENDROOT
BRANCH  13  16
ATOM     16  C   UNL     1       4.736   2.922   3.443  0.00  0.00    +0.014 A 
ATOM     17  C   UNL     1       5.791   3.776   3.703  0.00  0.00    +0.011 A 
ATOM     18  C   UNL     1       6.508   3.653   4.877  0.00  0.00    +0.039 A 
ATOM     19  C   UNL     1       6.171   2.673   5.796  0.00  0.00    +0.126 A 
ATOM     20  C   UNL     1       5.115   1.817   5.537  0.00  0.00    +0.077 A 
ATOM     21  C   UNL     1       4.393   1.945   4.363  0.00  0.00    +0.131 A 
ATOM     22  F   UNL     1       3.358   1.114   4.112  0.00  0.00    -0.205 F 
ATOM     23  F   UNL     1       6.874   2.552   6.943  0.00  0.00    -0.205 F 
ENDBRANCH  13  16
BRANCH   1  24
ATOM     24  C   UNL     1       0.173   1.129   2.112  0.00  0.00    +0.186 C 
BRANCH  24  26
ATOM     25  C   UNL     1       1.100  -0.895   3.246  0.00  0.00    +0.009 C 
ATOM     26  C   UNL     1       0.023   0.190   3.310  0.00  0.00    +0.014 C 
ATOM     27  C   UNL     1       0.178   0.987   4.607  0.00  0.00    +0.009 C 
ENDBRANCH  24  26
BRANCH  24  28
ATOM     28  C   UNL     1      -0.888   2.197   2.175  0.00  0.00    +0.328 C 
ATOM     29  O   UNL     1      -0.571   3.361   2.241  0.00  0.00    -0.249 OA
BRANCH  28  30
ATOM     30  O   UNL     1      -2.186   1.856   2.158  0.00  0.00    -0.467 OA
ATOM     31  C   UNL     1      -3.138   2.920   2.220  0.00  0.00    +0.280 C 
ENDBRANCH  28  30
ENDBRANCH  24  28
ENDBRANCH   1  24
TORSDOF 5
