REMARK  Name = ZINC64838635
REMARK  8 active torsions:
REMARK  status: ('A' for Active; 'I' for Inactive)
REMARK    1  A    between atoms: C_1  and  C_2
REMARK    2  A    between atoms: C_5  and  N_8
REMARK    3  A    between atoms: C_9  and  C_11
REMARK    4  A    between atoms: C_11  and  N_12
REMARK    5  A    between atoms: C_13  and  C_30
REMARK    6  A    between atoms: C_15  and  C_29
REMARK    7  A    between atoms: C_16  and  S_19
REMARK    8  A    between atoms: S_19  and  C_22
REMARK                            x       y       z     vdW  Elec       q    Type
REMARK                         _______ _______ _______ _____ _____    ______ ____
ROOT
ATOM      1  N   UNL     1      -0.205  -6.847   2.501  0.00  0.00    -0.302 N 
ATOM      2  C   UNL     1       0.920  -6.922   3.256  0.00  0.00    +0.020 A 
ATOM      3  C   UNL     1       0.869  -7.378   4.530  0.00  0.00    +0.026 A 
ATOM      4  C   UNL     1      -0.357  -7.778   5.081  0.00  0.00    -0.018 A 
ATOM      5  C   UNL     1      -1.486  -7.702   4.321  0.00  0.00    +0.161 A 
ATOM      6  C   UNL     1      -1.398  -7.219   3.004  0.00  0.00    +0.278 A 
ATOM      7  O   UNL     1      -2.402  -7.141   2.314  0.00  0.00    -0.266 OA
ATOM      8  C   UNL     1      -0.425  -8.287   6.497  0.00  0.00    +0.046 C 
ATOM      9  C   UNL     1       2.241  -6.493   2.671  0.00  0.00    +0.063 C 
ENDROOT
BRANCH   5  10
ATOM     10  S   UNL     1      -3.042  -8.197   4.984  0.00  0.00    +0.030 S 
ATOM     11  O   UNL     1      -3.636  -9.062   4.026  0.00  0.00    -0.164 OA
ATOM     12  O   UNL     1      -2.801  -8.599   6.326  0.00  0.00    -0.164 OA
BRANCH  10  13
ATOM     13  C   UNL     1      -4.056  -6.759   5.064  0.00  0.00    +0.094 A 
ATOM     14  C   UNL     1      -4.049  -5.970   6.198  0.00  0.00    +0.029 A 
ATOM     15  C   UNL     1      -4.845  -4.841   6.261  0.00  0.00    +0.022 A 
ATOM     16  C   UNL     1      -5.649  -4.502   5.187  0.00  0.00    +0.041 A 
ATOM     17  C   UNL     1      -5.656  -5.293   4.052  0.00  0.00    +0.022 A 
ATOM     18  C   UNL     1      -4.856  -6.418   3.989  0.00  0.00    +0.029 A 
ATOM     19 CL   UNL     1      -6.649  -3.086   5.266  0.00  0.00    -0.084 Cl
ENDBRANCH  10  13
ENDBRANCH   5  10
BRANCH   1  20
ATOM     20  C   UNL     1      -0.123  -6.351   1.125  0.00  0.00    +0.221 C 
BRANCH  20  22
ATOM     21  N   UNL     1       0.096  -7.298  -1.149  0.00  0.00    -0.284 N 
ATOM     22  C   UNL     1       0.004  -7.515   0.177  0.00  0.00    +0.237 C 
ATOM     23  O   UNL     1       0.022  -8.649   0.609  0.00  0.00    -0.274 OA
ATOM     24  H   UNL     1       0.147  -6.391  -1.490  0.00  0.00    +0.155 HD
BRANCH  21  29
ATOM     25  C   UNL     1       0.179 -11.686  -4.744  0.00  0.00    +0.044 C 
ATOM     26  C   UNL     1       0.157 -10.520  -3.789  0.00  0.00    -0.050 A 
ATOM     27  C   UNL     1       0.766 -10.630  -2.553  0.00  0.00    +0.005 A 
ATOM     28  C   UNL     1       0.747  -9.563  -1.675  0.00  0.00    +0.023 A 
ATOM     29  C   UNL     1       0.117  -8.380  -2.036  0.00  0.00    +0.033 A 
ATOM     30  C   UNL     1      -0.494  -8.273  -3.279  0.00  0.00    +0.023 A 
ATOM     31  C   UNL     1      -0.468  -9.341  -4.154  0.00  0.00    +0.005 A 
ENDBRANCH  21  29
ENDBRANCH  20  22
ENDBRANCH   1  20
TORSDOF 5
