REMARK  Name = ZINC22319393
REMARK  15 active torsions:
REMARK  status: ('A' for Active; 'I' for Inactive)
REMARK    1  A    between atoms: C_1  and  C_2
REMARK    2  A    between atoms: C_2  and  C_3
REMARK    3  A    between atoms: N_9  and  C_10
REMARK    4  A    between atoms: C_10  and  C_11
REMARK    5  A    between atoms: C_11  and  C_12
REMARK    6  A    between atoms: C_12  and  N_13
REMARK    7  A    between atoms: C_14  and  C_16
REMARK    8  A    between atoms: C_16  and  N_17
REMARK    9  A    between atoms: N_17  and  C_18
REMARK   10  A    between atoms: N_17  and  S_27
REMARK   11  A    between atoms: C_21  and  C_24
REMARK   12  A    between atoms: C_24  and  C_25
REMARK   13  A    between atoms: C_24  and  C_26
REMARK   14  A    between atoms: S_27  and  C_30
REMARK   15  A    between atoms: C_33  and  C_36
REMARK                            x       y       z     vdW  Elec       q    Type
REMARK                         _______ _______ _______ _____ _____    ______ ____
ROOT
ATOM      1  N   UNL     1       0.247  -0.059   0.515  0.00  0.00    -0.194 N 
ENDROOT
BRANCH   1   2
ATOM      2  C   UNL     1      -0.843  -0.923   0.390  0.00  0.00    +0.052 A 
ATOM      3  C   UNL     1      -2.138  -0.431   0.497  0.00  0.00    +0.025 A 
ATOM      4  C   UNL     1      -3.213  -1.288   0.368  0.00  0.00    +0.006 A 
ATOM      5  C   UNL     1      -3.002  -2.636   0.143  0.00  0.00    -0.045 A 
ATOM      6  C   UNL     1      -1.714  -3.130   0.042  0.00  0.00    +0.006 A 
ATOM      7  C   UNL     1      -0.634  -2.278   0.164  0.00  0.00    +0.025 A 
BRANCH   5   8
ATOM      8  C   UNL     1      -4.178  -3.569   0.009  0.00  0.00    +0.013 C 
ATOM      9  C   UNL     1      -5.007  -3.533   1.294  0.00  0.00    +0.012 C 
ATOM     10  C   UNL     1      -5.046  -3.127  -1.171  0.00  0.00    +0.012 C 
ENDBRANCH   5   8
ENDBRANCH   1   2
BRANCH   1  11
ATOM     11  S   UNL     1       0.264   1.377  -0.310  0.00  0.00    +0.075 S 
ATOM     12  O   UNL     1       1.609   1.600  -0.710  0.00  0.00    -0.150 OA
ATOM     13  O   UNL     1      -0.808   1.323  -1.241  0.00  0.00    -0.150 OA
BRANCH  11  14
ATOM     14  C   UNL     1      -0.135   2.647   0.844  0.00  0.00    +0.109 A 
ATOM     15  C   UNL     1      -1.430   3.123   0.928  0.00  0.00    +0.029 A 
ATOM     16  C   UNL     1      -1.744   4.116   1.837  0.00  0.00    +0.005 A 
ATOM     17  C   UNL     1      -0.761   4.640   2.655  0.00  0.00    -0.050 A 
ATOM     18  C   UNL     1       0.535   4.167   2.568  0.00  0.00    +0.005 A 
ATOM     19  C   UNL     1       0.848   3.171   1.663  0.00  0.00    +0.029 A 
ATOM     20  C   UNL     1      -1.103   5.726   3.643  0.00  0.00    +0.044 C 
ENDBRANCH  11  14
ENDBRANCH   1  11
BRANCH   1  21
ATOM     21  C   UNL     1       1.375  -0.421   1.377  0.00  0.00    +0.227 C 
BRANCH  21  23
ATOM     22  N   UNL     1       1.975  -0.251   3.771  0.00  0.00    -0.314 N 
ATOM     23  C   UNL     1       1.074  -0.015   2.796  0.00  0.00    +0.232 C 
ATOM     24  O   UNL     1       0.021   0.525   3.062  0.00  0.00    -0.274 OA
ATOM     25  H   UNL     1       2.930  -0.741   3.530  0.00  0.00    +0.149 HD
BRANCH  22  26
ATOM     26  C   UNL     1       1.682   0.144   5.151  0.00  0.00    +0.102 C 
BRANCH  26  27
ATOM     27  C   UNL     1       2.860  -0.235   6.050  0.00  0.00    +0.000 C 
BRANCH  27  28
ATOM     28  C   UNL     1       2.554   0.178   7.492  0.00  0.00    -0.077 C 
BRANCH  28  34
ATOM     29  C   UNL     1       3.581   0.472   9.664  0.00  0.00    -0.069 C 
ATOM     30  C   UNL     1       4.843   0.188  10.481  0.00  0.00    -0.015 C 
ATOM     31  C   UNL     1       5.000  -1.325  10.661  0.00  0.00    -0.003 C 
ATOM     32  C   UNL     1       5.057  -1.991   9.284  0.00  0.00    -0.019 C 
ATOM     33  C   UNL     1       3.789  -1.644   8.501  0.00  0.00    -0.078 C 
ATOM     34  N   UNL     1       3.685  -0.186   8.355  0.00  0.00    +0.382 N 
ATOM     35  H   UNL     1       4.608   0.169   7.874  0.00  0.00    -0.081 HD
BRANCH  29  37
ATOM     36  C   UNL     1       4.601   2.503   8.628  0.00  0.00    +0.002 C 
ATOM     37  C   UNL     1       3.432   1.982   9.465  0.00  0.00    -0.019 C 
ENDBRANCH  29  37
ENDBRANCH  28  34
ENDBRANCH  27  28
ENDBRANCH  26  27
ENDBRANCH  22  26
ENDBRANCH  21  23
ENDBRANCH   1  21
TORSDOF 11
