REMARK  Name = ZINC07724683
REMARK  11 active torsions:
REMARK  status: ('A' for Active; 'I' for Inactive)
REMARK    1  A    between atoms: C_1  and  C_2
REMARK    2  A    between atoms: C_2  and  C_3
REMARK    3  A    between atoms: C_3  and  C_4
REMARK    4  A    between atoms: C_4  and  N_5
REMARK    5  A    between atoms: N_5  and  C_6
REMARK    6  A    between atoms: C_7  and  N_19
REMARK    7  A    between atoms: N_8  and  C_15
REMARK    8  A    between atoms: C_15  and  C_16
REMARK    9  A    between atoms: C_16  and  C_17
REMARK   10  A    between atoms: C_16  and  C_18
REMARK   11  A    between atoms: C_20  and  C_22
REMARK                            x       y       z     vdW  Elec       q    Type
REMARK                         _______ _______ _______ _____ _____    ______ ____
ROOT
ATOM      1  N   UNL     1      -2.483   1.237   0.077  0.00  0.00    -0.261 N 
ATOM      2  C   UNL     1      -3.650   1.911   0.013  0.00  0.00    +0.264 C 
ATOM      3  O   UNL     1      -4.701   1.318   0.140  0.00  0.00    -0.271 OA
ENDROOT
BRANCH   2   4
ATOM      4  C   UNL     1      -3.648   3.401  -0.214  0.00  0.00    +0.296 C 
ATOM      5  C   UNL     1      -3.222   3.703  -1.657  0.00  0.00    +0.283 C 
ATOM      6  O   UNL     1      -3.244   5.123  -1.843  0.00  0.00    -0.484 OA
ATOM      7  C   UNL     1      -4.342   5.783  -1.383  0.00  0.00    +0.162 A 
ATOM      8  C   UNL     1      -4.601   7.069  -1.833  0.00  0.00    +0.049 A 
ATOM      9  C   UNL     1      -5.711   7.752  -1.373  0.00  0.00    +0.004 A 
ATOM     10  C   UNL     1      -6.564   7.157  -0.463  0.00  0.00    +0.004 A 
ATOM     11  C   UNL     1      -6.311   5.876  -0.011  0.00  0.00    +0.049 A 
ATOM     12  C   UNL     1      -5.201   5.184  -0.469  0.00  0.00    +0.163 A 
ATOM     13  O   UNL     1      -4.967   3.921  -0.018  0.00  0.00    -0.472 OA
ENDBRANCH   2   4
BRANCH   1  14
ATOM     14  C   UNL     1      -1.260   1.940   0.051  0.00  0.00    +0.140 A 
ATOM     15  C   UNL     1      -0.392   1.799  -1.012  0.00  0.00    +0.127 A 
ATOM     16  N   UNL     1       0.796   2.492  -1.005  0.00  0.00    -0.280 N 
ATOM     17  C   UNL     1       1.106   3.303   0.023  0.00  0.00    +0.331 A 
ATOM     18  O   UNL     1       2.161   3.908   0.010  0.00  0.00    -0.246 OA
ATOM     19  N   UNL     1       0.269   3.457   1.065  0.00  0.00    -0.273 N 
ATOM     20  H   UNL     1       0.523   4.066   1.817  0.00  0.00    +0.173 HD
ATOM     21  C   UNL     1      -0.906   2.800   1.107  0.00  0.00    +0.277 A 
ATOM     22  O   UNL     1      -1.657   2.947   2.057  0.00  0.00    -0.266 OA
BRANCH  15  23
ATOM     23  N   UNL     1      -0.708   0.971  -2.063  0.00  0.00    -0.343 N 
ATOM     24  H   UNL     1      -0.126   0.927  -2.837  0.00  0.00    +0.144 HD
ATOM     25  H   UNL     1      -1.512   0.431  -2.029  0.00  0.00    +0.144 HD
ENDBRANCH  15  23
BRANCH  16  26
ATOM     26  C   UNL     1       1.730   2.347  -2.125  0.00  0.00    +0.131 C 
BRANCH  26  27
ATOM     27  C   UNL     1       2.695   1.195  -1.838  0.00  0.00    +0.003 C 
ATOM     28  C   UNL     1       3.589   0.962  -3.057  0.00  0.00    +0.009 C 
ATOM     29  C   UNL     1       3.564   1.546  -0.628  0.00  0.00    +0.009 C 
ENDBRANCH  26  27
ENDBRANCH  16  26
ENDBRANCH   1  14
BRANCH   1  30
ATOM     30  C   UNL     1      -2.486  -0.225   0.172  0.00  0.00    +0.114 C 
BRANCH  30  31
ATOM     31  C   UNL     1      -2.387  -0.640   1.641  0.00  0.00    +0.019 C 
BRANCH  31  33
ATOM     32  C   UNL     1      -2.167  -2.578   3.203  0.00  0.00    +0.004 C 
ATOM     33  C   UNL     1      -2.265  -2.163   1.734  0.00  0.00    -0.002 C 
ENDBRANCH  31  33
ENDBRANCH  30  31
ENDBRANCH   1  30
TORSDOF 8
