REMARK  Name = ZINC20894276
REMARK  7 active torsions:
REMARK  status: ('A' for Active; 'I' for Inactive)
REMARK    1  A    between atoms: C_1  and  C_2
REMARK    2  A    between atoms: C_2  and  C_4
REMARK    3  A    between atoms: C_2  and  O_10
REMARK    4  A    between atoms: O_10  and  C_11
REMARK    5  A    between atoms: C_11  and  C_13
REMARK    6  A    between atoms: C_15  and  S_20
REMARK    7  A    between atoms: S_20  and  N_23
REMARK                            x       y       z     vdW  Elec       q    Type
REMARK                         _______ _______ _______ _____ _____    ______ ____
ROOT
ATOM      1  C   UNL     1       1.240   3.558   0.008  0.00  0.00    +0.079 A 
ATOM      2  C   UNL     1       0.058   4.303   0.018  0.00  0.00    +0.045 A 
ATOM      3  C   UNL     1       0.115   5.680   0.032  0.00  0.00    +0.110 A 
ATOM      4  C   UNL     1       1.339   6.326   0.024  0.00  0.00    +0.030 A 
ATOM      5  C   UNL     1       2.514   5.596   0.009  0.00  0.00    +0.023 A 
ATOM      6  C   UNL     1       2.472   4.216   0.001  0.00  0.00    +0.055 A 
ATOM      7 CL   UNL     1       3.947   3.301  -0.017  0.00  0.00    -0.083 Cl
ENDROOT
BRANCH   3   8
ATOM      8  S   UNL     1      -1.374   6.621   0.051  0.00  0.00    +0.075 S 
ATOM      9  O   UNL     1      -2.378   5.782   0.607  0.00  0.00    -0.150 OA
ATOM     10  O   UNL     1      -1.047   7.888   0.607  0.00  0.00    -0.150 OA
BRANCH   8  11
ATOM     11  N   UNL     1      -1.803   6.892  -1.525  0.00  0.00    -0.203 N 
ATOM     12  C   UNL     1      -1.415   8.138  -2.201  0.00  0.00    +0.132 C 
ATOM     13  C   UNL     1      -2.630   8.657  -2.972  0.00  0.00    +0.025 C 
ATOM     14  C   UNL     1      -3.010   7.637  -4.045  0.00  0.00    +0.038 C 
ATOM     15  C   UNL     1      -3.143   6.263  -3.443  0.00  0.00    -0.025 A 
ATOM     16  C   UNL     1      -2.547   5.942  -2.233  0.00  0.00    +0.054 A 
ATOM     17  C   UNL     1      -2.685   4.662  -1.708  0.00  0.00    +0.025 A 
ATOM     18  C   UNL     1      -3.417   3.710  -2.390  0.00  0.00    +0.002 A 
ATOM     19  C   UNL     1      -4.013   4.032  -3.595  0.00  0.00    +0.000 A 
ATOM     20  C   UNL     1      -3.877   5.303  -4.119  0.00  0.00    +0.005 A 
ENDBRANCH   8  11
ENDBRANCH   3   8
BRANCH   1  21
ATOM     21  C   UNL     1       1.186   2.082  -0.000  0.00  0.00    +0.341 C 
ATOM     22  O   UNL     1       2.215   1.437  -0.013  0.00  0.00    -0.245 OA
BRANCH  21  23
ATOM     23  O   UNL     1      -0.004   1.451   0.007  0.00  0.00    -0.449 OA
BRANCH  23  25
ATOM     24  C   UNL     1       0.041  -0.519   1.437  0.00  0.00    +0.062 C 
ATOM     25  C   UNL     1       0.019  -0.001  -0.002  0.00  0.00    +0.259 C 
BRANCH  25  26
ATOM     26  C   UNL     1      -1.209  -0.518  -0.704  0.00  0.00    +0.261 C 
ATOM     27  O   UNL     1      -2.024   0.259  -1.153  0.00  0.00    -0.271 OA
ATOM     28  N   UNL     1      -1.402  -1.846  -0.834  0.00  0.00    -0.237 N 
ATOM     29  C   UNL     1      -2.501  -2.309  -1.462  0.00  0.00    +0.303 C 
ATOM     30  O   UNL     1      -3.318  -1.530  -1.912  0.00  0.00    -0.253 OA
ATOM     31  N   UNL     1      -2.694  -3.637  -1.591  0.00  0.00    -0.313 N 
ATOM     32  H   UNL     1      -0.663  -2.551  -0.427  0.00  0.00    +0.159 HD
ATOM     33  H   UNL     1      -3.591  -4.015  -2.104  0.00  0.00    +0.146 HD
ATOM     34  H   UNL     1      -1.955  -4.342  -1.184  0.00  0.00    +0.146 HD
ENDBRANCH  25  26
ENDBRANCH  23  25
ENDBRANCH  21  23
ENDBRANCH   1  21
TORSDOF 6
