REMARK  Name = ZINC09776898
REMARK  6 active torsions:
REMARK  status: ('A' for Active; 'I' for Inactive)
REMARK    1  A    between atoms: C_12  and  C_22
REMARK    2  A    between atoms: N_24  and  C_25
REMARK    3  A    between atoms: C_25  and  C_26
REMARK    4  A    between atoms: C_26  and  C_27
REMARK    5  A    between atoms: C_27  and  N_71
REMARK    6  A    between atoms: N_30  and  C_33
REMARK                            x       y       z     vdW  Elec       q    Type
REMARK                         _______ _______ _______ _____ _____    ______ ____
ROOT
ATOM      1  C   UNL     1       3.476   3.554  -0.574  0.00  0.00    +0.223 C 
ATOM      2  O   UNL     1       4.177   3.923  -1.492  0.00  0.00    -0.275 OA
ATOM      3  N   UNL     1       2.518   4.368  -0.087  0.00  0.00    -0.315 N 
ATOM      4  H   UNL     1       2.007   4.103   0.693  0.00  0.00    +0.149 HD
ENDROOT
BRANCH   1  15
ATOM      5  C   UNL     1       5.531   4.988   3.672  0.00  0.00    +0.000 A 
ATOM      6  C   UNL     1       5.157   5.362   2.394  0.00  0.00    +0.000 A 
ATOM      7  C   UNL     1       5.022   4.404   1.411  0.00  0.00    +0.006 A 
ATOM      8  C   UNL     1       5.257   3.063   1.694  0.00  0.00    -0.023 A 
ATOM      9  C   UNL     1       5.623   2.692   2.967  0.00  0.00    -0.041 A 
ATOM     10  C   UNL     1       5.763   3.658   3.955  0.00  0.00    +0.004 A 
ATOM     11  C   UNL     1       5.871   1.259   3.339  0.00  0.00    +0.054 C 
ATOM     12  C   UNL     1       6.238   0.413   2.138  0.00  0.00    +0.113 C 
ATOM     13  N   UNL     1       5.411   0.712   0.972  0.00  0.00    -0.289 N 
ATOM     14  C   UNL     1       5.098   2.073   0.574  0.00  0.00    +0.123 C 
ATOM     15  C   UNL     1       3.675   2.184   0.023  0.00  0.00    +0.130 C 
ATOM     16  C   UNL     1       3.444   1.141  -1.036  0.00  0.00    -0.021 A 
ATOM     17  C   UNL     1       2.613   1.388  -2.107  0.00  0.00    +0.005 A 
ATOM     18  C   UNL     1       2.384   0.399  -3.047  0.00  0.00    +0.000 A 
ATOM     19  C   UNL     1       2.985  -0.841  -2.919  0.00  0.00    +0.001 A 
ATOM     20  C   UNL     1       3.827  -1.098  -1.855  0.00  0.00    +0.013 A 
ATOM     21  C   UNL     1       4.068  -0.103  -0.911  0.00  0.00    +0.041 A 
ATOM     22  C   UNL     1       4.964  -0.336   0.237  0.00  0.00    +0.247 C 
ATOM     23  O   UNL     1       5.302  -1.468   0.524  0.00  0.00    -0.270 OA
ENDBRANCH   1  15
BRANCH   3  24
ATOM     24  C   UNL     1       2.251   5.654  -0.736  0.00  0.00    +0.102 C 
BRANCH  24  25
ATOM     25  C   UNL     1       1.127   6.377   0.008  0.00  0.00    +0.000 C 
BRANCH  25  26
ATOM     26  C   UNL     1       0.847   7.720  -0.670  0.00  0.00    -0.077 C 
BRANCH  26  32
ATOM     27  C   UNL     1      -1.503   7.688  -0.087  0.00  0.00    -0.060 C 
ATOM     28  C   UNL     1      -2.581   8.398   0.735  0.00  0.00    +0.086 C 
ATOM     29  N   UNL     1      -2.718   9.784   0.265  0.00  0.00    -0.333 N 
ATOM     30  C   UNL     1      -1.447  10.510   0.397  0.00  0.00    +0.086 C 
ATOM     31  C   UNL     1      -0.369   9.799  -0.425  0.00  0.00    -0.060 C 
ATOM     32  N   UNL     1      -0.226   8.415   0.072  0.00  0.00    +0.382 N 
ATOM     33  H   UNL     1       0.021   8.442   1.069  0.00  0.00    -0.082 HD
BRANCH  29  34
ATOM     34  C   UNL     1      -3.745  10.445   0.945  0.00  0.00    +0.030 A 
ATOM     35  C   UNL     1      -3.481  11.624   1.629  0.00  0.00    +0.026 A 
ATOM     36  C   UNL     1      -4.498  12.278   2.296  0.00  0.00    +0.040 A 
ATOM     37  C   UNL     1      -5.779  11.752   2.293  0.00  0.00    +0.124 A 
ATOM     38  C   UNL     1      -6.044  10.573   1.617  0.00  0.00    +0.040 A 
ATOM     39  C   UNL     1      -5.031   9.919   0.944  0.00  0.00    +0.026 A 
ATOM     40  F   UNL     1      -6.772  12.390   2.950  0.00  0.00    -0.205 F 
ENDBRANCH  29  34
ENDBRANCH  26  32
ENDBRANCH  25  26
ENDBRANCH  24  25
ENDBRANCH   3  24
TORSDOF 6
