REMARK  Name = ZINC20566478
REMARK  7 active torsions:
REMARK  status: ('A' for Active; 'I' for Inactive)
REMARK    1  A    between atoms: C_1  and  C_2
REMARK    2  A    between atoms: C_2  and  C_3
REMARK    3  A    between atoms: C_2  and  C_4
REMARK    4  A    between atoms: N_12  and  C_15
REMARK    5  A    between atoms: C_15  and  C_16
REMARK    6  A    between atoms: C_16  and  O_17
REMARK    7  A    between atoms: O_17  and  C_18
REMARK                            x       y       z     vdW  Elec       q    Type
REMARK                         _______ _______ _______ _____ _____    ______ ____
ROOT
ATOM      1  C   UNL     1       0.784   0.263   1.290  0.00  0.00    +0.070 C 
ATOM      2  C   UNL     1       1.509  -0.995   1.761  0.00  0.00    +0.107 C 
ATOM      3  C   UNL     1       0.241  -1.800   2.228  0.00  0.00    +0.122 C 
ATOM      4  C   UNL     1       0.759  -3.142   2.336  0.00  0.00    +0.228 C 
ATOM      5  O   UNL     1       0.422  -4.003   3.121  0.00  0.00    -0.275 OA
ATOM      6  N   UNL     1       1.717  -3.232   1.355  0.00  0.00    -0.239 N 
ATOM      7  C   UNL     1       2.024  -2.009   0.789  0.00  0.00    +0.227 C 
ATOM      8  O   UNL     1       2.581  -1.796  -0.267  0.00  0.00    -0.275 OA
ATOM      9  C   UNL     1      -0.615  -0.833   2.907  0.00  0.00    +0.136 C 
ATOM     10  N   UNL     1      -0.148   0.519   2.445  0.00  0.00    -0.295 NA
ATOM     11  C   UNL     1      -2.085  -0.962   2.593  0.00  0.00    +0.005 A 
ATOM     12  C   UNL     1      -2.797  -0.978   1.415  0.00  0.00    +0.027 A 
ATOM     13  C   UNL     1      -4.175  -1.111   1.441  0.00  0.00    +0.041 A 
ATOM     14  C   UNL     1      -4.832  -1.229   2.654  0.00  0.00    +0.022 A 
ATOM     15  C   UNL     1      -4.121  -1.214   3.835  0.00  0.00    +0.025 A 
ATOM     16  C   UNL     1      -2.734  -1.081   3.817  0.00  0.00    +0.039 A 
ATOM     17  N   UNL     1      -1.808  -1.038   4.861  0.00  0.00    -0.283 N 
ATOM     18  C   UNL     1      -0.547  -0.894   4.416  0.00  0.00    +0.243 C 
ATOM     19  O   UNL     1       0.455  -0.828   5.096  0.00  0.00    -0.273 OA
ATOM     20 CL   UNL     1      -5.076  -1.130  -0.043  0.00  0.00    -0.084 Cl
ATOM     21  H   UNL     1       0.327   1.005   3.191  0.00  0.00    +0.124 HD
ATOM     22  H   UNL     1      -2.046  -1.104   5.798  0.00  0.00    +0.155 HD
ENDROOT
BRANCH   1  24
ATOM     23  C   UNL     1      -0.966   1.152  -0.256  0.00  0.00    +0.009 C 
ATOM     24  C   UNL     1       0.002  -0.004   0.002  0.00  0.00    +0.001 C 
ATOM     25  C   UNL     1       0.977  -0.124  -1.171  0.00  0.00    +0.009 C 
ENDBRANCH   1  24
BRANCH   6  26
ATOM     26  C   UNL     1       2.359  -4.488   0.959  0.00  0.00    +0.144 C 
BRANCH  26  27
ATOM     27  C   UNL     1       1.552  -5.139  -0.166  0.00  0.00    +0.179 C 
BRANCH  27  28
ATOM     28  O   UNL     1       1.597  -4.308  -1.328  0.00  0.00    -0.381 OA
ATOM     29  C   UNL     1       0.871  -4.829  -2.443  0.00  0.00    +0.194 C 
ENDBRANCH  27  28
ENDBRANCH  26  27
ENDBRANCH   6  26
TORSDOF 4
