REMARK  Name = ZINC00754243
REMARK  7 active torsions:
REMARK  status: ('A' for Active; 'I' for Inactive)
REMARK    1  A    between atoms: C_1  and  C_2
REMARK    2  A    between atoms: C_4  and  O_26
REMARK    3  A    between atoms: C_5  and  C_9
REMARK    4  A    between atoms: C_14  and  C_17
REMARK    5  A    between atoms: C_20  and  O_25
REMARK    6  A    between atoms: C_21  and  O_23
REMARK    7  A    between atoms: O_23  and  C_24
REMARK                            x       y       z     vdW  Elec       q    Type
REMARK                         _______ _______ _______ _____ _____    ______ ____
ROOT
ATOM      1  C   UNL     1       1.317   5.459  -1.649  0.00  0.00    +0.055 C 
ATOM      2  N   UNL     1       0.840   6.381  -0.918  0.00  0.00    -0.286 NA
ATOM      3  C   UNL     1       0.644   6.340   0.522  0.00  0.00    +0.152 C 
ATOM      4  C   UNL     1       1.958   6.021   1.245  0.00  0.00    +0.093 C 
ATOM      5  S   UNL     1       2.031   4.218   1.478  0.00  0.00    -0.150 S 
ATOM      6  C   UNL     1       1.149   3.596   0.010  0.00  0.00    +0.082 C 
ATOM      7  C   UNL     1       1.868   4.133  -1.233  0.00  0.00    +0.074 C 
ENDROOT
BRANCH   1  12
ATOM      8  C   UNL     1       1.436   6.549  -7.269  0.00  0.00    +0.086 C 
ATOM      9  C   UNL     1       1.389   6.255  -5.792  0.00  0.00    +0.110 A 
ATOM     10  C   UNL     1       0.298   5.656  -5.275  0.00  0.00    +0.087 A 
ATOM     11  C   UNL     1       0.238   5.370  -3.897  0.00  0.00    +0.136 A 
ATOM     12  C   UNL     1       1.328   5.730  -3.091  0.00  0.00    +0.122 A 
ATOM     13  C   UNL     1       2.442   6.356  -3.702  0.00  0.00    +0.349 A 
ATOM     14  O   UNL     1       3.406   6.677  -3.030  0.00  0.00    -0.244 OA
ATOM     15  O   UNL     1       2.433   6.596  -5.025  0.00  0.00    -0.427 OA
BRANCH  11  16
ATOM     16  O   UNL     1      -0.846   4.765  -3.364  0.00  0.00    -0.506 OA
ATOM     17  H   UNL     1      -1.530   5.378  -3.062  0.00  0.00    +0.292 HD
ENDBRANCH  11  16
ENDBRANCH   1  12
BRANCH   6  18
ATOM     18  C   UNL     1       1.171   2.089   0.002  0.00  0.00    -0.030 A 
ATOM     19  C   UNL     1       2.379   1.417  -0.013  0.00  0.00    +0.008 A 
ATOM     20  C   UNL     1       2.405   0.035  -0.021  0.00  0.00    +0.049 A 
ATOM     21  C   UNL     1       1.218  -0.680  -0.013  0.00  0.00    +0.158 A 
ATOM     22  C   UNL     1       0.002  -0.004   0.002  0.00  0.00    +0.162 A 
ATOM     23  C   UNL     1      -0.017   1.381   0.010  0.00  0.00    +0.054 A 
BRANCH  22  24
ATOM     24  O   UNL     1      -1.165  -0.702   0.009  0.00  0.00    -0.491 OA
ATOM     25  C   UNL     1      -2.375   0.059   0.024  0.00  0.00    +0.277 C 
ENDBRANCH  22  24
BRANCH  21  26
ATOM     26  O   UNL     1       1.242  -2.040  -0.021  0.00  0.00    -0.503 OA
ATOM     27  H   UNL     1       1.240  -2.428  -0.907  0.00  0.00    +0.292 HD
ENDBRANCH  21  26
ENDBRANCH   6  18
TORSDOF 5
