REMARK  Name = ZINC13367693
REMARK  7 active torsions:
REMARK  status: ('A' for Active; 'I' for Inactive)
REMARK    1  A    between atoms: C_1  and  C_2
REMARK    2  A    between atoms: C_2  and  C_3
REMARK    3  A    between atoms: C_9  and  C_13
REMARK    4  A    between atoms: C_13  and  O_14
REMARK    5  A    between atoms: O_14  and  C_15
REMARK    6  A    between atoms: C_17  and  C_23
REMARK    7  A    between atoms: C_19  and  C_21
REMARK                            x       y       z     vdW  Elec       q    Type
REMARK                         _______ _______ _______ _____ _____    ______ ____
ROOT
ATOM      1  C   UNL     1       2.582  -2.565  -0.035  0.00  0.00    +0.102 A 
ATOM      2  N   UNL     1       1.391  -2.046  -0.022  0.00  0.00    -0.159 NA
ATOM      3  N   UNL     1       1.195  -0.668  -0.013  0.00  0.00    -0.171 N 
ATOM      4  C   UNL     1       0.002  -0.004   0.002  0.00  0.00    +0.275 A 
ATOM      5  O   UNL     1      -1.046  -0.630   0.008  0.00  0.00    -0.266 OA
ATOM      6  C   UNL     1      -0.017   1.391   0.010  0.00  0.00    +0.099 A 
ATOM      7  C   UNL     1       1.171   2.091   0.002  0.00  0.00    +0.087 A 
ATOM      8  N   UNL     1       2.315   1.413  -0.013  0.00  0.00    -0.223 NA
ATOM      9  C   UNL     1       2.324   0.104  -0.020  0.00  0.00    +0.199 A 
ATOM     10  S   UNL     1       3.622  -1.113  -0.038  0.00  0.00    -0.033 S 
ENDROOT
BRANCH   1  12
ATOM     11  C   UNL     1       1.727  -4.892  -0.038  0.00  0.00    +0.011 C 
ATOM     12  C   UNL     1       2.982  -4.018  -0.046  0.00  0.00    +0.061 C 
ENDBRANCH   1  12
BRANCH   7  13
ATOM     13  C   UNL     1       1.173   3.598   0.010  0.00  0.00    +0.284 C 
BRANCH  13  14
ATOM     14  O   UNL     1       1.754   4.068   1.228  0.00  0.00    -0.486 OA
BRANCH  14  15
ATOM     15  C   UNL     1       1.832   5.414   1.395  0.00  0.00    +0.122 A 
ATOM     16  C   UNL     1       1.365   6.266   0.405  0.00  0.00    +0.050 A 
ATOM     17  C   UNL     1       1.441   7.634   0.579  0.00  0.00    -0.028 A 
ATOM     18  C   UNL     1       1.993   8.155   1.736  0.00  0.00    +0.047 A 
ATOM     19  C   UNL     1       2.465   7.308   2.722  0.00  0.00    -0.028 A 
ATOM     20  C   UNL     1       2.385   5.939   2.554  0.00  0.00    +0.050 A 
ATOM     21  C   UNL     1       3.066   7.878   3.981  0.00  0.00    +0.045 C 
ATOM     22 CL   UNL     1       2.093   9.875   1.950  0.00  0.00    -0.083 Cl
ATOM     23  C   UNL     1       0.928   8.559  -0.494  0.00  0.00    +0.045 C 
ENDBRANCH  14  15
ENDBRANCH  13  14
ENDBRANCH   7  13
TORSDOF 4
