REMARK  Name = ZINC06264308
REMARK  8 active torsions:
REMARK  status: ('A' for Active; 'I' for Inactive)
REMARK    1  A    between atoms: C_1  and  C_2
REMARK    2  A    between atoms: C_2  and  C_3
REMARK    3  A    between atoms: C_3  and  C_4
REMARK    4  A    between atoms: C_4  and  N_5
REMARK    5  A    between atoms: C_6  and  C_8
REMARK    6  A    between atoms: C_8  and  N_60
REMARK    7  A    between atoms: C_11  and  O_29
REMARK    8  A    between atoms: C_18  and  C_20
REMARK                            x       y       z     vdW  Elec       q    Type
REMARK                         _______ _______ _______ _____ _____    ______ ____
ROOT
ATOM      1  C   UNL     1       2.176   5.574  -0.943  0.00  0.00    -0.075 C 
ATOM      2  C   UNL     1       2.455   6.144   0.450  0.00  0.00    +0.016 C 
ATOM      3  C   UNL     1       1.391   5.635   1.425  0.00  0.00    +0.066 C 
ATOM      4  C   UNL     1       1.682   6.162   2.829  0.00  0.00    +0.035 C 
ATOM      5  C   UNL     1       3.054   5.665   3.290  0.00  0.00    +0.003 C 
ATOM      6  C   UNL     1       3.060   4.135   3.307  0.00  0.00    +0.000 C 
ATOM      7  C   UNL     1       2.778   3.610   1.899  0.00  0.00    +0.005 C 
ATOM      8  C   UNL     1       1.407   4.104   1.432  0.00  0.00    +0.011 C 
ATOM      9  C   UNL     1       1.147   3.596   0.010  0.00  0.00    -0.031 C 
ATOM     10  N   UNL     1       2.219   4.097  -0.877  0.00  0.00    +0.390 N 
ATOM     11  H   UNL     1       3.128   3.808  -0.497  0.00  0.00    -0.080 HD
ENDROOT
BRANCH   9  12
ATOM     12  C   UNL     1       1.171   2.089   0.002  0.00  0.00    -0.057 A 
ATOM     13  C   UNL     1       2.379   1.418  -0.014  0.00  0.00    +0.006 A 
ATOM     14  C   UNL     1       2.405   0.036  -0.021  0.00  0.00    +0.050 A 
ATOM     15  C   UNL     1       1.220  -0.680  -0.013  0.00  0.00    +0.166 A 
ATOM     16  C   UNL     1       0.002  -0.004   0.002  0.00  0.00    +0.166 A 
ATOM     17  C   UNL     1      -0.017   1.381   0.010  0.00  0.00    +0.051 A 
ATOM     18  O   UNL     1      -1.007  -0.923   0.007  0.00  0.00    -0.453 OA
ATOM     19  C   UNL     1      -0.404  -2.159  -0.418  0.00  0.00    +0.466 C 
ATOM     20  O   UNL     1       0.973  -2.023  -0.018  0.00  0.00    -0.453 OA
ENDBRANCH   9  12
BRANCH   3  21
ATOM     21  O   UNL     1       0.104   6.095   1.006  0.00  0.00    -0.388 OA
ATOM     22  H   UNL     1       0.023   7.058   0.971  0.00  0.00    +0.210 HD
ENDBRANCH   3  21
BRANCH  10  23
ATOM     23  C   UNL     1       2.061   3.528  -2.231  0.00  0.00    +0.019 C 
BRANCH  23  25
ATOM     24  N   UNL     1       3.379   3.449  -4.323  0.00  0.00    -0.317 N 
ATOM     25  C   UNL     1       3.278   3.876  -3.049  0.00  0.00    +0.196 C 
ATOM     26  O   UNL     1       4.167   4.542  -2.560  0.00  0.00    -0.278 OA
ATOM     27  H   UNL     1       2.668   2.916  -4.713  0.00  0.00    +0.149 HD
BRANCH  24  28
ATOM     28  C   UNL     1       4.562   3.788  -5.118  0.00  0.00    +0.104 C 
BRANCH  28  29
ATOM     29  C   UNL     1       4.426   3.184  -6.517  0.00  0.00    +0.018 C 
BRANCH  29  31
ATOM     30  C   UNL     1       5.525   2.935  -8.747  0.00  0.00    +0.004 C 
ATOM     31  C   UNL     1       5.661   3.538  -7.348  0.00  0.00    -0.002 C 
ENDBRANCH  29  31
ENDBRANCH  28  29
ENDBRANCH  24  28
ENDBRANCH  23  25
ENDBRANCH  10  23
TORSDOF 7
