REMARK  Name = ZINC37606243
REMARK  2 active torsions:
REMARK  status: ('A' for Active; 'I' for Inactive)
REMARK    1  A    between atoms: C_3  and  C_11
REMARK    2  A    between atoms: C_13  and  C_16
REMARK                            x       y       z     vdW  Elec       q    Type
REMARK                         _______ _______ _______ _____ _____    ______ ____
ROOT
ATOM      1  C   UNL     1      -0.017   1.377   0.010  0.00  0.00    +0.003 A 
ATOM      2  C   UNL     1       1.168   2.085   0.002  0.00  0.00    +0.013 A 
ATOM      3  C   UNL     1       2.386   1.406  -0.015  0.00  0.00    +0.044 A 
ATOM      4  C   UNL     1       2.407   0.008  -0.023  0.00  0.00    -0.014 A 
ATOM      5  C   UNL     1       1.213  -0.691  -0.013  0.00  0.00    +0.031 A 
ATOM      6  C   UNL     1       0.002  -0.004   0.002  0.00  0.00    +0.023 A 
ATOM      7  N   UNL     1       1.201  -2.091  -0.012  0.00  0.00    -0.344 N 
ATOM      8  C   UNL     1       2.442  -2.812  -0.325  0.00  0.00    +0.102 C 
ATOM      9  C   UNL     1       3.583  -2.139   0.449  0.00  0.00    +0.023 C 
ATOM     10  C   UNL     1       3.735  -0.701  -0.047  0.00  0.00    +0.039 C 
ATOM     11  H   UNL     1       0.387  -2.576   0.193  0.00  0.00    +0.146 HD
ENDROOT
BRANCH   3  12
ATOM     12  C   UNL     1       3.655   2.164  -0.025  0.00  0.00    +0.259 A 
ATOM     13  N   UNL     1       3.771   3.472  -0.013  0.00  0.00    -0.184 NA
ATOM     14  C   UNL     1       5.067   3.817  -0.027  0.00  0.00    +0.240 A 
ATOM     15  N   UNL     1       5.795   2.728  -0.047  0.00  0.00    -0.052 NA
ATOM     16  O   UNL     1       4.890   1.633  -0.040  0.00  0.00    -0.332 OA
BRANCH  14  17
ATOM     17  C   UNL     1       5.592   5.207  -0.020  0.00  0.00    +0.201 A 
ATOM     18  N   UNL     1       4.738   6.220   0.006  0.00  0.00    -0.233 NA
ATOM     19  C   UNL     1       5.171   7.469   0.012  0.00  0.00    +0.115 A 
ATOM     20  C   UNL     1       6.537   7.711  -0.009  0.00  0.00    +0.039 A 
ATOM     21  C   UNL     1       7.402   6.627  -0.036  0.00  0.00    +0.115 A 
ATOM     22  N   UNL     1       6.902   5.403  -0.035  0.00  0.00    -0.233 NA
ENDBRANCH  14  17
ENDBRANCH   3  12
TORSDOF 2
