REMARK  Name = ZINC02124524
REMARK  10 active torsions:
REMARK  status: ('A' for Active; 'I' for Inactive)
REMARK    1  A    between atoms: C_1  and  C_2
REMARK    2  A    between atoms: C_2  and  C_3
REMARK    3  A    between atoms: C_8  and  O_9
REMARK    4  A    between atoms: O_9  and  C_10
REMARK    5  A    between atoms: C_12  and  O_25
REMARK    6  A    between atoms: C_14  and  O_24
REMARK    7  A    between atoms: C_16  and  O_23
REMARK    8  A    between atoms: C_18  and  C_21
REMARK    9  A    between atoms: C_21  and  O_22
REMARK   10  A    between atoms: C_28  and  C_31
REMARK                            x       y       z     vdW  Elec       q    Type
REMARK                         _______ _______ _______ _____ _____    ______ ____
ROOT
ATOM      1  C   UNL     1      -1.412  -0.526   0.013  0.00  0.00    -0.005 A 
ATOM      2  C   UNL     1      -2.005  -0.859   1.198  0.00  0.00    +0.022 A 
ATOM      3  C   UNL     1      -3.313  -1.342   1.203  0.00  0.00    +0.065 A 
ATOM      4  C   UNL     1      -4.024  -1.494  -0.001  0.00  0.00    +0.142 A 
ATOM      5  C   UNL     1      -3.407  -1.147  -1.195  0.00  0.00    +0.093 A 
ATOM      6  C   UNL     1      -2.110  -0.660  -1.185  0.00  0.00    +0.131 A 
ATOM      7  O   UNL     1      -5.281  -1.976   0.008  0.00  0.00    -0.462 OA
ATOM      8  C   UNL     1      -6.002  -2.041   1.129  0.00  0.00    +0.208 A 
ATOM      9  C   UNL     1      -5.449  -1.927   2.366  0.00  0.00    +0.064 A 
ATOM     10  C   UNL     1      -3.994  -1.706   2.460  0.00  0.00    +0.200 A 
ATOM     11  O   UNL     1      -3.390  -1.818   3.514  0.00  0.00    -0.286 OA
ENDROOT
BRANCH   9  12
ATOM     12  C   UNL     1      -6.287  -2.021   3.586  0.00  0.00    -0.008 A 
ATOM     13  C   UNL     1      -6.433  -0.914   4.420  0.00  0.00    +0.012 A 
ATOM     14  C   UNL     1      -7.213  -1.003   5.555  0.00  0.00    +0.050 A 
ATOM     15  C   UNL     1      -7.853  -2.192   5.870  0.00  0.00    +0.166 A 
ATOM     16  C   UNL     1      -7.709  -3.303   5.040  0.00  0.00    +0.167 A 
ATOM     17  C   UNL     1      -6.933  -3.216   3.898  0.00  0.00    +0.058 A 
ATOM     18  O   UNL     1      -8.430  -4.336   5.566  0.00  0.00    -0.453 OA
ATOM     19  C   UNL     1      -8.683  -3.971   6.936  0.00  0.00    +0.466 C 
ATOM     20  O   UNL     1      -8.663  -2.531   6.916  0.00  0.00    -0.453 OA
ENDBRANCH   9  12
BRANCH   1  22
ATOM     21  C   UNL     1      -0.019   1.526   0.010  0.00  0.00    +0.009 C 
ATOM     22  C   UNL     1       0.002  -0.004   0.002  0.00  0.00    +0.035 C 
ENDBRANCH   1  22
BRANCH   6  23
ATOM     23  O   UNL     1      -1.512  -0.317  -2.354  0.00  0.00    -0.460 OA
BRANCH  23  24
ATOM     24  C   UNL     1      -2.281  -0.478  -3.548  0.00  0.00    +0.339 C 
ATOM     25  C   UNL     1      -1.493   0.072  -4.740  0.00  0.00    +0.214 C 
ATOM     26  C   UNL     1      -0.202  -0.736  -4.906  0.00  0.00    +0.180 C 
ATOM     27  C   UNL     1      -0.557  -2.216  -5.077  0.00  0.00    +0.177 C 
ATOM     28  C   UNL     1      -1.381  -2.678  -3.872  0.00  0.00    +0.179 C 
ATOM     29  O   UNL     1      -2.551  -1.866  -3.757  0.00  0.00    -0.331 OA
BRANCH  27  30
ATOM     30  O   UNL     1       0.642  -2.988  -5.161  0.00  0.00    -0.386 OA
ATOM     31  H   UNL     1       1.215  -2.745  -5.902  0.00  0.00    +0.210 HD
ENDBRANCH  27  30
BRANCH  26  32
ATOM     32  O   UNL     1       0.505  -0.276  -6.059  0.00  0.00    -0.386 OA
ATOM     33  H   UNL     1       0.755   0.658  -6.021  0.00  0.00    +0.210 HD
ENDBRANCH  26  32
BRANCH  25  34
ATOM     34  O   UNL     1      -2.283  -0.039  -5.926  0.00  0.00    -0.383 OA
ATOM     35  H   UNL     1      -3.119   0.446  -5.889  0.00  0.00    +0.210 HD
ENDBRANCH  25  34
BRANCH  28  36
ATOM     36  C   UNL     1      -1.790  -4.139  -4.063  0.00  0.00    +0.190 C 
BRANCH  36  37
ATOM     37  O   UNL     1      -2.458  -4.605  -2.889  0.00  0.00    -0.392 OA
ATOM     38  H   UNL     1      -2.747  -5.526  -2.940  0.00  0.00    +0.210 HD
ENDBRANCH  36  37
ENDBRANCH  28  36
ENDBRANCH  23  24
ENDBRANCH   6  23
TORSDOF 9
