REMARK  Name = ZINC02131552
REMARK  8 active torsions:
REMARK  status: ('A' for Active; 'I' for Inactive)
REMARK    1  A    between atoms: C_1  and  C_2
REMARK    2  A    between atoms: C_13  and  C_31
REMARK    3  A    between atoms: N_20  and  C_23
REMARK    4  A    between atoms: C_23  and  C_24
REMARK    5  A    between atoms: C_35  and  O_39
REMARK    6  A    between atoms: C_36  and  O_37
REMARK    7  A    between atoms: O_37  and  C_38
REMARK    8  A    between atoms: O_39  and  C_40
REMARK                            x       y       z     vdW  Elec       q    Type
REMARK                         _______ _______ _______ _____ _____    ______ ____
ROOT
ATOM      1  C   UNL     1       2.801   6.934  -1.385  0.00  0.00    +0.048 C 
ATOM      2  C   UNL     1       2.221   6.688   0.010  0.00  0.00    +0.151 C 
ATOM      3  C   UNL     1       1.512   5.355   0.015  0.00  0.00    +0.054 A 
ATOM      4  C   UNL     1       0.166   5.233   0.029  0.00  0.00    -0.008 A 
ATOM      5  C   UNL     1      -0.130   3.815   0.023  0.00  0.00    +0.004 A 
ATOM      6  C   UNL     1      -1.330   3.098   0.031  0.00  0.00    +0.010 A 
ATOM      7  C   UNL     1      -1.235   1.728   0.017  0.00  0.00    +0.001 A 
ATOM      8  C   UNL     1      -0.013   1.076   0.008  0.00  0.00    +0.002 A 
ATOM      9  C   UNL     1       1.190   1.760   0.000  0.00  0.00    +0.026 A 
ATOM     10  C   UNL     1       1.124   3.152   0.008  0.00  0.00    +0.047 A 
ATOM     11  N   UNL     1       2.092   4.115   0.004  0.00  0.00    -0.356 N 
ATOM     12  H   UNL     1       3.048   3.946  -0.004  0.00  0.00    +0.166 HD
ATOM     13  C   UNL     1      -0.799   6.391   0.052  0.00  0.00    +0.072 C 
ATOM     14  C   UNL     1      -0.066   7.663  -0.391  0.00  0.00    +0.122 C 
ATOM     15  N   UNL     1       1.235   7.728   0.301  0.00  0.00    -0.280 N 
ATOM     16  C   UNL     1       1.460   8.712   1.175  0.00  0.00    +0.234 C 
ATOM     17  O   UNL     1       0.643   9.606   1.248  0.00  0.00    -0.274 OA
ATOM     18  C   UNL     1       2.655   8.784   2.071  0.00  0.00    +0.204 C 
ATOM     19  N   UNL     1       3.530   7.635   1.911  0.00  0.00    -0.286 N 
ATOM     20  C   UNL     1       3.346   6.688   0.991  0.00  0.00    +0.246 C 
ATOM     21  O   UNL     1       4.139   5.771   0.949  0.00  0.00    -0.273 OA
ENDROOT
BRANCH  13  22
ATOM     22  C   UNL     1      -1.941   6.113  -0.891  0.00  0.00    +0.007 A 
ATOM     23  C   UNL     1      -1.694   5.912  -2.236  0.00  0.00    +0.008 A 
ATOM     24  C   UNL     1      -2.740   5.656  -3.103  0.00  0.00    +0.004 A 
ATOM     25  C   UNL     1      -4.037   5.601  -2.629  0.00  0.00    +0.049 A 
ATOM     26  C   UNL     1      -4.292   5.802  -1.282  0.00  0.00    +0.162 A 
ATOM     27  C   UNL     1      -3.238   6.054  -0.408  0.00  0.00    +0.165 A 
BRANCH  27  28
ATOM     28  O   UNL     1      -3.482   6.246   0.916  0.00  0.00    -0.491 OA
ATOM     29  C   UNL     1      -3.733   7.588   1.341  0.00  0.00    +0.277 C 
ENDBRANCH  27  28
BRANCH  26  30
ATOM     30  O   UNL     1      -5.568   5.748  -0.814  0.00  0.00    -0.491 OA
ATOM     31  C   UNL     1      -6.598   5.479  -1.768  0.00  0.00    +0.277 C 
ENDBRANCH  26  30
ENDBRANCH  13  22
BRANCH  19  32
ATOM     32  C   UNL     1       4.679   7.510   2.811  0.00  0.00    +0.143 C 
BRANCH  32  33
ATOM     33  C   UNL     1       4.275   6.732   4.037  0.00  0.00    -0.030 A 
ATOM     34  C   UNL     1       3.780   7.395   5.144  0.00  0.00    +0.008 A 
ATOM     35  C   UNL     1       3.404   6.682   6.266  0.00  0.00    +0.038 A 
ATOM     36  C   UNL     1       3.534   5.304   6.286  0.00  0.00    +0.123 A 
ATOM     37  C   UNL     1       4.035   4.641   5.179  0.00  0.00    +0.038 A 
ATOM     38  C   UNL     1       4.405   5.356   4.055  0.00  0.00    +0.008 A 
ATOM     39  F   UNL     1       3.172   4.607   7.385  0.00  0.00    -0.205 F 
ENDBRANCH  32  33
ENDBRANCH  19  32
TORSDOF 5
