REMARK  Name = ZINC63808485
REMARK  2 active torsions:
REMARK  status: ('A' for Active; 'I' for Inactive)
REMARK    1  A    between atoms: C_5  and  C_7
REMARK    2  A    between atoms: C_13  and  C_16
REMARK                            x       y       z     vdW  Elec       q    Type
REMARK                         _______ _______ _______ _____ _____    ______ ____
ROOT
ATOM      1  C   UNL     1       1.249  -2.161  -0.022  0.00  0.00    +0.185 A 
ATOM      2  N   UNL     1       2.321  -2.913  -0.032  0.00  0.00    -0.127 NA
ATOM      3  N   UNL     1       1.985  -4.155  -0.049  0.00  0.00    -0.120 NA
ATOM      4  C   UNL     1       0.691  -4.258  -0.069  0.00  0.00    +0.211 A 
ATOM      5  N   UNL     1       0.140  -3.002  -0.016  0.00  0.00    -0.220 N 
ATOM      6  N   UNL     1      -1.215  -2.872   0.044  0.00  0.00    -0.265 N 
ATOM      7  C   UNL     1      -1.981  -4.049  -0.446  0.00  0.00    +0.182 C 
ATOM      8  S   UNL     1      -0.713  -5.351  -0.134  0.00  0.00    -0.058 S 
ATOM      9  H   UNL     1      -1.513  -2.607   0.971  0.00  0.00    +0.168 HD
ENDROOT
BRANCH   1  14
ATOM     10  C   UNL     1      -0.017   1.375   0.010  0.00  0.00    +0.001 A 
ATOM     11  C   UNL     1       1.170   2.087   0.002  0.00  0.00    +0.003 A 
ATOM     12  C   UNL     1       2.383   1.423  -0.013  0.00  0.00    +0.039 A 
ATOM     13  C   UNL     1       2.417   0.042  -0.022  0.00  0.00    +0.134 A 
ATOM     14  C   UNL     1       1.222  -0.683  -0.014  0.00  0.00    +0.056 A 
ATOM     15  C   UNL     1       0.002  -0.004   0.002  0.00  0.00    +0.014 A 
ATOM     16  F   UNL     1       3.602  -0.607  -0.038  0.00  0.00    -0.205 F 
ENDBRANCH   1  14
BRANCH   7  17
ATOM     17  C   UNL     1      -3.249  -4.279   0.380  0.00  0.00    +0.184 C 
ATOM     18  C   UNL     1      -3.984  -5.519  -0.099  0.00  0.00    +0.025 C 
ATOM     19  C   UNL     1      -3.977  -6.326   0.964  0.00  0.00    +0.132 C 
ATOM     20  N   UNL     1      -3.344  -5.743   2.006  0.00  0.00    -0.162 NA
ATOM     21  N   UNL     1      -2.910  -4.608   1.774  0.00  0.00    -0.177 NA
ENDBRANCH   7  17
TORSDOF 2
