REMARK  Name = ZINC15404344
REMARK  3 active torsions:
REMARK  status: ('A' for Active; 'I' for Inactive)
REMARK    1  A    between atoms: C_1  and  C_2
REMARK    2  A    between atoms: C_3  and  N_9
REMARK    3  A    between atoms: C_13  and  C_16
REMARK                            x       y       z     vdW  Elec       q    Type
REMARK                         _______ _______ _______ _____ _____    ______ ____
ROOT
ATOM      1  N   UNL     1       1.840   7.679   0.416  0.00  0.00    -0.292 N 
ATOM      2  C   UNL     1       1.561   6.333   0.452  0.00  0.00    +0.180 C 
ATOM      3  N   UNL     1       2.444   5.465   0.017  0.00  0.00    -0.127 NA
ATOM      4  N   UNL     1       2.279   4.205  -0.006  0.00  0.00    -0.151 NA
ATOM      5  C   UNL     1       1.160   3.563   0.019  0.00  0.00    +0.081 C 
ATOM      6  C   UNL     1      -0.170   4.277   0.051  0.00  0.00    +0.135 C 
ATOM      7  S   UNL     1       0.013   5.763   1.082  0.00  0.00    -0.082 S 
ATOM      8  H   UNL     1       1.155   8.322   0.655  0.00  0.00    +0.154 HD
ENDROOT
BRANCH   5   9
ATOM      9  C   UNL     1       1.180   2.092   0.011  0.00  0.00    +0.001 A 
ATOM     10  C   UNL     1      -0.020   1.374   0.038  0.00  0.00    +0.013 A 
ATOM     11  C   UNL     1      -0.000  -0.005   0.029  0.00  0.00    +0.048 A 
ATOM     12  C   UNL     1       1.208  -0.683  -0.006  0.00  0.00    +0.142 A 
ATOM     13  C   UNL     1       2.410   0.026  -0.033  0.00  0.00    +0.076 A 
ATOM     14  C   UNL     1       2.400   1.408  -0.025  0.00  0.00    +0.036 A 
ATOM     15  N   UNL     1       3.622  -0.679  -0.067  0.00  0.00    -0.280 N 
ATOM     16  C   UNL     1       3.607  -1.990  -0.391  0.00  0.00    +0.255 C 
ATOM     17  O   UNL     1       4.639  -2.627  -0.399  0.00  0.00    -0.272 OA
ATOM     18  C   UNL     1       2.303  -2.658  -0.744  0.00  0.00    +0.325 C 
ATOM     19  O   UNL     1       1.236  -2.043  -0.017  0.00  0.00    -0.481 OA
ATOM     20  H   UNL     1       4.458  -0.232   0.139  0.00  0.00    +0.155 HD
ENDBRANCH   5   9
BRANCH   1  23
ATOM     21  C   UNL     1       2.082  10.296  -0.674  0.00  0.00    +0.047 C 
ATOM     22  C   UNL     1       3.274   9.391  -0.502  0.00  0.00    -0.011 A 
ATOM     23  C   UNL     1       3.110   8.120   0.035  0.00  0.00    +0.037 A 
ATOM     24  C   UNL     1       4.211   7.286   0.186  0.00  0.00    +0.023 A 
ATOM     25  C   UNL     1       5.465   7.724  -0.191  0.00  0.00    +0.003 A 
ATOM     26  C   UNL     1       5.627   8.992  -0.719  0.00  0.00    +0.020 A 
ATOM     27  C   UNL     1       4.532   9.825  -0.872  0.00  0.00    +0.046 A 
ATOM     28 CL   UNL     1       4.740  11.416  -1.536  0.00  0.00    -0.083 Cl
ENDBRANCH   1  23
TORSDOF 2
