REMARK  Name = ZINC15978456
REMARK  10 active torsions:
REMARK  status: ('A' for Active; 'I' for Inactive)
REMARK    1  A    between atoms: C_1  and  C_2
REMARK    2  A    between atoms: C_5  and  S_8
REMARK    3  A    between atoms: S_8  and  N_11
REMARK    4  A    between atoms: C_15  and  C_18
REMARK    5  A    between atoms: N_20  and  N_21
REMARK    6  A    between atoms: N_21  and  C_22
REMARK    7  A    between atoms: C_22  and  C_24
REMARK    8  A    between atoms: C_22  and  C_25
REMARK    9  A    between atoms: N_27  and  C_28
REMARK   10  A    between atoms: C_31  and  N_35
REMARK                            x       y       z     vdW  Elec       q    Type
REMARK                         _______ _______ _______ _____ _____    ______ ____
ROOT
ATOM      1  C   UNL     1      -1.845   5.190   2.855  0.00  0.00    +0.231 C 
ATOM      2  O   UNL     1      -0.745   5.526   3.239  0.00  0.00    -0.274 OA
ATOM      3  N   UNL     1      -2.910   5.984   3.083  0.00  0.00    -0.250 N 
ATOM      4  H   UNL     1      -3.790   5.715   2.775  0.00  0.00    +0.169 HD
ENDROOT
BRANCH   1   9
ATOM      5  N   UNL     1      -0.875   1.853   1.406  0.00  0.00    -0.176 NA
ATOM      6  C   UNL     1      -1.853   0.947   2.022  0.00  0.00    +0.109 C 
ATOM      7  C   UNL     1      -3.194   1.677   2.143  0.00  0.00    +0.018 C 
ATOM      8  C   UNL     1      -2.989   2.990   2.902  0.00  0.00    +0.015 C 
ATOM      9  C   UNL     1      -2.021   3.884   2.124  0.00  0.00    +0.092 C 
ATOM     10  C   UNL     1      -0.662   3.177   2.006  0.00  0.00    +0.122 C 
BRANCH   5  11
ATOM     11  S   UNL     1      -0.024   1.389   0.063  0.00  0.00    +0.061 S 
ATOM     12  O   UNL     1      -0.004  -0.032   0.066  0.00  0.00    -0.153 OA
ATOM     13  O   UNL     1       1.165   2.167   0.047  0.00  0.00    -0.153 OA
BRANCH  11  18
ATOM     14  C   UNL     1      -3.246   3.058  -4.757  0.00  0.00    +0.044 C 
ATOM     15  C   UNL     1      -2.441   2.641  -3.554  0.00  0.00    -0.050 A 
ATOM     16  C   UNL     1      -1.510   3.507  -3.010  0.00  0.00    +0.005 A 
ATOM     17  C   UNL     1      -0.772   3.125  -1.906  0.00  0.00    +0.029 A 
ATOM     18  C   UNL     1      -0.965   1.876  -1.345  0.00  0.00    +0.105 A 
ATOM     19  C   UNL     1      -1.891   1.008  -1.891  0.00  0.00    +0.029 A 
ATOM     20  C   UNL     1      -2.633   1.392  -2.993  0.00  0.00    +0.005 A 
ENDBRANCH  11  18
ENDBRANCH   5  11
ENDBRANCH   1   9
BRANCH   3  21
ATOM     21  N   UNL     1      -2.750   7.168   3.745  0.00  0.00    -0.229 NA
ATOM     22  H   UNL     1      -2.318   7.023   4.646  0.00  0.00    +0.145 HD
BRANCH  21  23
ATOM     23  C   UNL     1      -4.032   7.871   3.884  0.00  0.00    +0.155 C 
ATOM     24  C   UNL     1      -4.711   7.444   5.187  0.00  0.00    +0.035 C 
BRANCH  23  25
ATOM     25  C   UNL     1      -3.790   9.358   3.908  0.00  0.00    +0.236 C 
ATOM     26  O   UNL     1      -2.660   9.790   3.818  0.00  0.00    -0.274 OA
ATOM     27  N   UNL     1      -4.829  10.209   4.028  0.00  0.00    -0.283 N 
ATOM     28  H   UNL     1      -5.737   9.869   4.019  0.00  0.00    +0.155 HD
BRANCH  27  29
ATOM     29  C   UNL     1      -4.596  11.582   4.167  0.00  0.00    +0.052 A 
ATOM     30  C   UNL     1      -3.391  12.035   4.687  0.00  0.00    +0.027 A 
ATOM     31  C   UNL     1      -3.165  13.390   4.823  0.00  0.00    +0.034 A 
ATOM     32  C   UNL     1      -4.137  14.297   4.442  0.00  0.00    +0.128 A 
ATOM     33  C   UNL     1      -5.338  13.851   3.924  0.00  0.00    +0.054 A 
ATOM     34  C   UNL     1      -5.569  12.495   3.779  0.00  0.00    +0.064 A 
ATOM     35 CL   UNL     1      -7.075  11.935   3.122  0.00  0.00    -0.082 Cl
BRANCH  32  36
ATOM     36  N   UNL     1      -3.890  15.749   4.589  0.00  0.00    +0.056 N 
ATOM     37  O   UNL     1      -2.832  16.144   5.046  0.00  0.00    -0.126 OA
ATOM     38  O   UNL     1      -4.745  16.549   4.254  0.00  0.00    -0.126 OA
ENDBRANCH  32  36
ENDBRANCH  27  29
ENDBRANCH  23  25
ENDBRANCH  21  23
ENDBRANCH   3  21
TORSDOF 8
