REMARK  Name = ZINC62038899
REMARK  11 active torsions:
REMARK  status: ('A' for Active; 'I' for Inactive)
REMARK    1  A    between atoms: C_1  and  C_2
REMARK    2  A    between atoms: C_2  and  C_3
REMARK    3  A    between atoms: C_6  and  C_9
REMARK    4  A    between atoms: C_14  and  S_19
REMARK    5  A    between atoms: C_16  and  C_18
REMARK    6  A    between atoms: S_19  and  C_20
REMARK    7  A    between atoms: C_20  and  C_22
REMARK    8  A    between atoms: C_20  and  C_23
REMARK    9  A    between atoms: N_25  and  C_26
REMARK   10  A    between atoms: C_28  and  C_33
REMARK   11  A    between atoms: C_31  and  O_32
REMARK                            x       y       z     vdW  Elec       q    Type
REMARK                         _______ _______ _______ _____ _____    ______ ____
ROOT
ATOM      1  C   UNL     1       2.805  -1.943  -4.680  0.00  0.00    +0.001 A 
ATOM      2  C   UNL     1       2.417  -3.082  -5.301  0.00  0.00    +0.056 A 
ATOM      3  S   UNL     1       3.527  -3.197  -6.691  0.00  0.00    -0.076 S 
ATOM      4  C   UNL     1       4.481  -1.728  -6.412  0.00  0.00    +0.113 A 
ATOM      5  C   UNL     1       3.910  -1.177  -5.246  0.00  0.00    +0.047 A 
ATOM      6  C   UNL     1       4.497   0.036  -4.795  0.00  0.00    +0.110 A 
ATOM      7  N   UNL     1       5.505   0.559  -5.476  0.00  0.00    -0.225 NA
ATOM      8  C   UNL     1       5.987  -0.011  -6.565  0.00  0.00    +0.128 A 
ATOM      9  N   UNL     1       5.490  -1.142  -7.026  0.00  0.00    -0.225 NA
ATOM     10  C   UNL     1       7.136   0.640  -7.291  0.00  0.00    +0.088 C 
ENDROOT
BRANCH   1  14
ATOM     11  C   UNL     1       0.833  -0.617  -1.156  0.00  0.00    -0.048 A 
ATOM     12  C   UNL     1       1.433  -1.863  -1.182  0.00  0.00    +0.004 A 
ATOM     13  C   UNL     1       2.075  -2.299  -2.323  0.00  0.00    +0.009 A 
ATOM     14  C   UNL     1       2.117  -1.481  -3.451  0.00  0.00    -0.017 A 
ATOM     15  C   UNL     1       1.510  -0.226  -3.419  0.00  0.00    +0.009 A 
ATOM     16  C   UNL     1       0.867   0.197  -2.274  0.00  0.00    +0.004 A 
BRANCH  11  18
ATOM     17  C   UNL     1      -1.335  -0.578   0.049  0.00  0.00    +0.009 C 
ATOM     18  C   UNL     1       0.133  -0.147   0.094  0.00  0.00    +0.032 C 
ENDBRANCH  11  18
ENDBRANCH   1  14
BRANCH   6  19
ATOM     19  S   UNL     1       3.890   0.836  -3.346  0.00  0.00    -0.093 S 
BRANCH  19  20
ATOM     20  C   UNL     1       4.937   2.308  -3.186  0.00  0.00    +0.136 C 
ATOM     21  C   UNL     1       4.691   3.241  -4.374  0.00  0.00    +0.029 C 
BRANCH  20  22
ATOM     22  C   UNL     1       4.601   3.027  -1.905  0.00  0.00    +0.230 C 
ATOM     23  O   UNL     1       3.536   2.827  -1.359  0.00  0.00    -0.274 OA
ATOM     24  N   UNL     1       5.483   3.892  -1.366  0.00  0.00    -0.282 N 
ATOM     25  H   UNL     1       6.304   4.104  -1.837  0.00  0.00    +0.155 HD
BRANCH  24  26
ATOM     26  C   UNL     1       5.214   4.484  -0.125  0.00  0.00    +0.076 A 
ATOM     27  C   UNL     1       4.518   3.782   0.840  0.00  0.00    +0.038 A 
ATOM     28  C   UNL     1       4.251   4.378   2.079  0.00  0.00    +0.016 A 
ATOM     29  C   UNL     1       4.691   5.683   2.332  0.00  0.00    +0.015 A 
ATOM     30  C   UNL     1       5.384   6.376   1.365  0.00  0.00    +0.048 A 
ATOM     31  C   UNL     1       5.654   5.783   0.139  0.00  0.00    +0.138 A 
BRANCH  31  32
ATOM     32  O   UNL     1       6.342   6.470  -0.808  0.00  0.00    -0.505 OA
ATOM     33  H   UNL     1       5.783   6.990  -1.401  0.00  0.00    +0.292 HD
ENDBRANCH  31  32
BRANCH  28  34
ATOM     34  C   UNL     1       3.512   3.637   3.109  0.00  0.00    +0.258 C 
ATOM     35  O   UNL     1       3.282   4.155   4.181  0.00  0.00    -0.296 OA
ENDBRANCH  28  34
ENDBRANCH  24  26
ENDBRANCH  20  22
ENDBRANCH  19  20
ENDBRANCH   6  19
TORSDOF 8
