REMARK  Name = ZINC41661427
REMARK  3 active torsions:
REMARK  status: ('A' for Active; 'I' for Inactive)
REMARK    1  A    between atoms: C_3  and  C_6
REMARK    2  A    between atoms: C_6  and  N_7
REMARK    3  A    between atoms: C_17  and  C_18
REMARK                            x       y       z     vdW  Elec       q    Type
REMARK                         _______ _______ _______ _____ _____    ______ ____
ROOT
ATOM      1  N   UNL     1       4.287   0.804   1.809  0.00  0.00    -0.261 NA
ATOM      2  C   UNL     1       5.651   1.349   1.747  0.00  0.00    +0.130 C 
ATOM      3  C   UNL     1       6.095   1.756   3.129  0.00  0.00    +0.051 A 
ATOM      4  C   UNL     1       5.175   1.935   4.148  0.00  0.00    +0.130 A 
ATOM      5  C   UNL     1       5.597   2.314   5.421  0.00  0.00    +0.047 A 
ATOM      6  C   UNL     1       6.924   2.512   5.678  0.00  0.00    +0.019 A 
ATOM      7  C   UNL     1       7.862   2.333   4.661  0.00  0.00    +0.068 A 
ATOM      8  C   UNL     1       7.450   1.952   3.374  0.00  0.00    +0.147 A 
ATOM      9  O   UNL     1       8.526   1.843   2.565  0.00  0.00    -0.451 OA
ATOM     10  C   UNL     1       9.678   2.129   3.218  0.00  0.00    +0.176 C 
ATOM     11  C   UNL     1      10.927   2.110   2.687  0.00  0.00    +0.061 C 
ATOM     12  C   UNL     1       9.329   2.462   4.607  0.00  0.00    +0.231 C 
ATOM     13  O   UNL     1      10.084   2.774   5.511  0.00  0.00    -0.283 OA
ATOM     14  O   UNL     1       3.848   1.740   3.926  0.00  0.00    -0.476 OA
ATOM     15  C   UNL     1       3.411   1.713   2.566  0.00  0.00    +0.319 C 
ENDROOT
BRANCH  11  16
ATOM     16  C   UNL     1      11.138   1.606   1.325  0.00  0.00    +0.022 A 
ATOM     17  C   UNL     1      10.056   1.478   0.446  0.00  0.00    +0.027 A 
ATOM     18  C   UNL     1      10.263   1.002  -0.830  0.00  0.00    +0.019 A 
ATOM     19  C   UNL     1      11.537   0.648  -1.247  0.00  0.00    +0.024 A 
ATOM     20  C   UNL     1      12.615   0.770  -0.390  0.00  0.00    +0.022 A 
ATOM     21  C   UNL     1      12.428   1.254   0.894  0.00  0.00    +0.136 A 
ATOM     22  O   UNL     1      13.480   1.393   1.740  0.00  0.00    -0.465 OA
ATOM     23  C   UNL     1      14.683   0.699   1.397  0.00  0.00    +0.395 C 
ATOM     24  O   UNL     1      14.972   0.942   0.015  0.00  0.00    -0.339 OA
ATOM     25  C   UNL     1      13.991   0.375  -0.864  0.00  0.00    +0.202 C 
ATOM     26 BR   UNL     1       8.802   0.829  -2.019  0.00  0.00    -0.050 Br
ENDBRANCH  11  16
BRANCH   1  27
ATOM     27  C   UNL     1       3.756   0.561   0.461  0.00  0.00    +0.130 C 
BRANCH  27  30
ATOM     28  C   UNL     1       0.140  -0.602   0.743  0.00  0.00    +0.008 A 
ATOM     29  C   UNL     1       1.194   0.288   0.662  0.00  0.00    +0.012 A 
ATOM     30  C   UNL     1       2.456  -0.195   0.562  0.00  0.00    +0.004 A 
ATOM     31  S   UNL     1       2.180  -1.958   0.579  0.00  0.00    -0.100 S 
ATOM     32  C   UNL     1       0.400  -1.933   0.719  0.00  0.00    +0.045 A 
ENDBRANCH  27  30
ENDBRANCH   1  27
TORSDOF 3
