REMARK  Name = ZINC39710807
REMARK  10 active torsions:
REMARK  status: ('A' for Active; 'I' for Inactive)
REMARK    1  A    between atoms: C_1  and  C_2
REMARK    2  A    between atoms: C_8  and  C_14
REMARK    3  A    between atoms: C_14  and  C_16
REMARK    4  A    between atoms: C_14  and  N_26
REMARK    5  A    between atoms: N_21  and  C_22
REMARK    6  A    between atoms: C_22  and  C_23
REMARK    7  A    between atoms: C_22  and  C_24
REMARK    8  A    between atoms: C_22  and  C_25
REMARK    9  A    between atoms: N_29  and  C_32
REMARK   10  A    between atoms: C_35  and  N_38
REMARK                            x       y       z     vdW  Elec       q    Type
REMARK                         _______ _______ _______ _____ _____    ______ ____
ROOT
ATOM      1  C   UNL     1       1.320  -2.624   4.457  0.00  0.00    -0.009 C 
ENDROOT
BRANCH   1   9
ATOM      2  C   UNL     1      -1.899  -5.905   0.389  0.00  0.00    +0.045 C 
ATOM      3  C   UNL     1      -2.329  -5.127   1.606  0.00  0.00    -0.029 A 
ATOM      4  C   UNL     1      -3.564  -5.330   2.135  0.00  0.00    +0.005 A 
ATOM      5  C   UNL     1      -4.023  -4.644   3.260  0.00  0.00    +0.001 A 
ATOM      6  C   UNL     1      -3.249  -3.725   3.893  0.00  0.00    +0.009 A 
ATOM      7  C   UNL     1      -1.907  -3.457   3.375  0.00  0.00    -0.007 A 
ATOM      8  C   UNL     1      -1.094  -2.542   3.978  0.00  0.00    -0.006 C 
ATOM      9  C   UNL     1       0.280  -2.329   3.374  0.00  0.00    +0.088 C 
ATOM     10  C   UNL     1       0.637  -3.146   2.153  0.00  0.00    +0.223 C 
ATOM     11  O   UNL     1       1.727  -3.015   1.628  0.00  0.00    -0.275 OA
ATOM     12  N   UNL     1      -0.239  -4.005   1.659  0.00  0.00    -0.284 N 
ATOM     13  C   UNL     1      -1.446  -4.200   2.189  0.00  0.00    +0.043 A 
ATOM     14  H   UNL     1       0.010  -4.519   0.875  0.00  0.00    +0.155 HD
ENDBRANCH   1   9
BRANCH   1  15
ATOM     15  N   UNL     1       1.075  -1.760   5.619  0.00  0.00    +0.387 N 
ATOM     16  C   UNL     1       0.948  -0.367   5.173  0.00  0.00    -0.059 C 
ATOM     17  C   UNL     1       0.580   0.519   6.367  0.00  0.00    +0.086 C 
ATOM     18  N   UNL     1       1.577   0.311   7.428  0.00  0.00    -0.333 N 
ATOM     19  C   UNL     1       1.888  -1.071   7.825  0.00  0.00    +0.086 C 
ATOM     20  C   UNL     1       2.195  -1.882   6.562  0.00  0.00    -0.059 C 
ATOM     21  H   UNL     1       0.221  -2.044   6.074  0.00  0.00    -0.081 HD
BRANCH  18  22
ATOM     22  C   UNL     1       2.211   1.394   8.040  0.00  0.00    +0.030 A 
ATOM     23  C   UNL     1       1.812   2.692   7.746  0.00  0.00    +0.025 A 
ATOM     24  C   UNL     1       2.441   3.761   8.354  0.00  0.00    +0.034 A 
ATOM     25  C   UNL     1       3.467   3.540   9.255  0.00  0.00    +0.126 A 
ATOM     26  C   UNL     1       3.866   2.250   9.550  0.00  0.00    +0.034 A 
ATOM     27  C   UNL     1       3.239   1.176   8.950  0.00  0.00    +0.025 A 
BRANCH  25  28
ATOM     28  N   UNL     1       4.138   4.688   9.904  0.00  0.00    +0.056 N 
ATOM     29  O   UNL     1       3.790   5.817   9.647  0.00  0.00    -0.126 OA
ATOM     30  O   UNL     1       5.035   4.497  10.692  0.00  0.00    -0.126 OA
ENDBRANCH  25  28
ENDBRANCH  18  22
ENDBRANCH   1  15
BRANCH   1  31
ATOM     31  C   UNL     1       1.213  -4.091   4.880  0.00  0.00    +0.205 C 
ATOM     32  N   UNL     1      -0.003  -4.307   5.676  0.00  0.00    -0.152 NA
ATOM     33  N   UNL     1       0.320  -4.700   6.799  0.00  0.00    -0.070 NA
ATOM     34  N   UNL     1       1.701  -4.814   6.957  0.00  0.00    -0.179 N 
ATOM     35  N   UNL     1       2.322  -4.448   5.789  0.00  0.00    -0.183 NA
ATOM     36  H   UNL     1       2.152  -5.106   7.765  0.00  0.00    +0.191 HD
BRANCH  35  37
ATOM     37  C   UNL     1       3.115  -5.556   5.241  0.00  0.00    +0.035 C 
ATOM     38  C   UNL     1       3.694  -5.149   3.885  0.00  0.00    +0.029 C 
ATOM     39  C   UNL     1       4.257  -5.891   6.203  0.00  0.00    +0.029 C 
ATOM     40  C   UNL     1       2.220  -6.785   5.065  0.00  0.00    +0.029 C 
ENDBRANCH  35  37
ENDBRANCH   1  31
TORSDOF 6
