REMARK  Name = ZINC45901916
REMARK  12 active torsions:
REMARK  status: ('A' for Active; 'I' for Inactive)
REMARK    1  A    between atoms: C_1  and  C_2
REMARK    2  A    between atoms: C_2  and  C_3
REMARK    3  A    between atoms: C_2  and  C_4
REMARK    4  A    between atoms: C_7  and  C_10
REMARK    5  A    between atoms: C_10  and  C_12
REMARK    6  A    between atoms: C_10  and  N_17
REMARK    7  A    between atoms: C_18  and  C_20
REMARK    8  A    between atoms: C_20  and  N_21
REMARK    9  A    between atoms: C_27  and  C_30
REMARK   10  A    between atoms: C_30  and  C_31
REMARK   11  A    between atoms: C_30  and  C_32
REMARK   12  A    between atoms: C_30  and  C_33
REMARK                            x       y       z     vdW  Elec       q    Type
REMARK                         _______ _______ _______ _____ _____    ______ ____
ROOT
ATOM      1  N   UNL     1      -5.972  -1.947  -1.312  0.00  0.00    -0.303 N 
ATOM      2  C   UNL     1      -7.305  -1.869  -1.494  0.00  0.00    +0.232 C 
ATOM      3  O   UNL     1      -8.047  -1.846  -0.535  0.00  0.00    -0.274 OA
ATOM      4  H   UNL     1      -5.378  -1.965  -2.079  0.00  0.00    +0.150 HD
ENDROOT
BRANCH   1   5
ATOM      5  C   UNL     1      -5.419  -2.005   0.043  0.00  0.00    +0.140 C 
BRANCH   5   9
ATOM      6  C   UNL     1      -1.412  -0.526   0.013  0.00  0.00    -0.045 A 
ATOM      7  C   UNL     1      -2.259  -0.204   1.056  0.00  0.00    +0.004 A 
ATOM      8  C   UNL     1      -3.556  -0.683   1.066  0.00  0.00    +0.006 A 
ATOM      9  C   UNL     1      -4.006  -1.482   0.032  0.00  0.00    -0.022 A 
ATOM     10  C   UNL     1      -3.159  -1.803  -1.012  0.00  0.00    +0.006 A 
ATOM     11  C   UNL     1      -1.863  -1.321  -1.024  0.00  0.00    +0.004 A 
BRANCH   6  13
ATOM     12  C   UNL     1      -0.019   1.526   0.010  0.00  0.00    +0.012 C 
ATOM     13  C   UNL     1       0.002  -0.004   0.002  0.00  0.00    +0.013 C 
ATOM     14  C   UNL     1       0.742  -0.511   1.242  0.00  0.00    +0.012 C 
ENDBRANCH   6  13
ENDBRANCH   5   9
BRANCH   5  15
ATOM     15  C   UNL     1      -5.423  -3.432   0.527  0.00  0.00    +0.014 A 
ATOM     16  C   UNL     1      -5.728  -3.916   1.756  0.00  0.00    +0.013 A 
ATOM     17  C   UNL     1      -5.663  -5.279   1.975  0.00  0.00    +0.008 A 
ATOM     18  C   UNL     1      -5.298  -6.092   0.954  0.00  0.00    +0.045 A 
ATOM     19  S   UNL     1      -5.037  -4.925  -0.372  0.00  0.00    -0.099 S 
ENDBRANCH   5  15
ENDBRANCH   1   5
BRANCH   2  20
ATOM     20  C   UNL     1      -7.874  -1.809  -2.888  0.00  0.00    +0.213 C 
BRANCH  20  21
ATOM     21  N   UNL     1      -9.335  -1.729  -2.817  0.00  0.00    -0.215 N 
ATOM     22  C   UNL     1     -10.153  -2.801  -2.796  0.00  0.00    +0.247 C 
ATOM     23  O   UNL     1      -9.832  -3.970  -2.832  0.00  0.00    -0.273 OA
ATOM     24  C   UNL     1     -11.554  -2.238  -2.719  0.00  0.00    +0.113 C 
ATOM     25  C   UNL     1     -12.241  -2.698  -1.437  0.00  0.00    +0.035 C 
ATOM     26  C   UNL     1     -12.401  -4.220  -1.461  0.00  0.00    +0.006 C 
ATOM     27  C   UNL     1     -13.233  -4.625  -2.680  0.00  0.00    -0.005 C 
ATOM     28  C   UNL     1     -12.522  -4.176  -3.958  0.00  0.00    +0.006 C 
ATOM     29  C   UNL     1     -12.362  -2.654  -3.943  0.00  0.00    +0.035 C 
ATOM     30  N   UNL     1     -11.353  -0.784  -2.702  0.00  0.00    -0.285 N 
ATOM     31  C   UNL     1     -10.023  -0.582  -2.758  0.00  0.00    +0.310 C 
ATOM     32  O   UNL     1      -9.505   0.518  -2.758  0.00  0.00    -0.252 OA
ATOM     33  H   UNL     1     -12.043  -0.103  -2.657  0.00  0.00    +0.151 HD
BRANCH  27  34
ATOM     34  C   UNL     1     -13.402  -6.146  -2.699  0.00  0.00    -0.035 C 
ATOM     35  C   UNL     1     -14.116  -6.595  -1.422  0.00  0.00    +0.011 C 
ATOM     36  C   UNL     1     -14.234  -6.551  -3.917  0.00  0.00    +0.011 C 
ATOM     37  C   UNL     1     -12.027  -6.811  -2.776  0.00  0.00    +0.011 C 
ENDBRANCH  27  34
ENDBRANCH  20  21
ENDBRANCH   2  20
TORSDOF 7
