REMARK  Name = ZINC37222321
REMARK  4 active torsions:
REMARK  status: ('A' for Active; 'I' for Inactive)
REMARK    1  A    between atoms: C_1  and  C_2
REMARK    2  A    between atoms: C_2  and  C_4
REMARK    3  A    between atoms: C_4  and  C_6
REMARK    4  A    between atoms: C_14  and  N_16
REMARK                            x       y       z     vdW  Elec       q    Type
REMARK                         _______ _______ _______ _____ _____    ______ ____
ROOT
ATOM      1  C   UNL     1       2.131  -0.720   1.173  0.00  0.00    +0.043 A 
ATOM      2  C   UNL     1       2.977  -0.428   0.124  0.00  0.00    +0.095 A 
ATOM      3  N   UNL     1       4.236  -0.776   0.449  0.00  0.00    -0.360 N 
ATOM      4  H   UNL     1       5.006  -0.665  -0.131  0.00  0.00    +0.165 HD
ATOM      5  C   UNL     1       4.282  -1.313   1.720  0.00  0.00    +0.049 A 
ATOM      6  C   UNL     1       2.977  -1.299   2.235  0.00  0.00    +0.010 A 
ATOM      7  C   UNL     1       2.725  -1.781   3.516  0.00  0.00    +0.013 A 
ATOM      8  C   UNL     1       3.765  -2.269   4.277  0.00  0.00    +0.033 A 
ATOM      9  C   UNL     1       5.057  -2.281   3.772  0.00  0.00    +0.128 A 
ATOM     10  C   UNL     1       5.318  -1.815   2.501  0.00  0.00    +0.059 A 
ENDROOT
BRANCH   9  11
ATOM     11  N   UNL     1       6.164  -2.808   4.601  0.00  0.00    +0.056 N 
ATOM     12  O   UNL     1       5.940  -3.226   5.713  0.00  0.00    -0.126 OA
ATOM     13  O   UNL     1       7.292  -2.821   4.166  0.00  0.00    -0.126 OA
ENDBRANCH   9  11
BRANCH   1  14
ATOM     14  C   UNL     1       0.731  -0.503   1.223  0.00  0.00    +0.178 C 
ATOM     15  O   UNL     1       0.122  -0.707   2.253  0.00  0.00    -0.291 OA
BRANCH  14  17
ATOM     16  C   UNL     1       0.255   1.477  -0.192  0.00  0.00    +0.028 C 
ATOM     17  C   UNL     1      -0.001  -0.020  -0.003  0.00  0.00    +0.124 C 
ATOM     18 BR   UNL     1       0.644  -1.000  -1.580  0.00  0.00    -0.080 Br
ENDBRANCH  14  17
ENDBRANCH   1  14
TORSDOF 3
