REMARK  Name = ZINC42452285
REMARK  5 active torsions:
REMARK  status: ('A' for Active; 'I' for Inactive)
REMARK    1  A    between atoms: C_1  and  C_2
REMARK    2  A    between atoms: C_2  and  C_3
REMARK    3  A    between atoms: C_7  and  C_19
REMARK    4  A    between atoms: C_14  and  C_16
REMARK    5  A    between atoms: C_16  and  C_17
REMARK                            x       y       z     vdW  Elec       q    Type
REMARK                         _______ _______ _______ _____ _____    ______ ____
ROOT
ATOM      1  C   UNL     1       0.717  -0.493  -1.253  0.00  0.00    +0.103 C 
ATOM      2  C   UNL     1       0.639  -2.022  -1.324  0.00  0.00    +0.182 C 
ATOM      3  O   UNL     1       1.418  -2.583  -0.264  0.00  0.00    -0.373 OA
ATOM      4  C   UNL     1       2.812  -2.275  -0.337  0.00  0.00    +0.133 C 
ATOM      5  C   UNL     1       3.001  -0.759  -0.215  0.00  0.00    +0.141 C 
ATOM      6  N   UNL     1       2.135  -0.102  -1.207  0.00  0.00    -0.278 N 
ATOM      7  C   UNL     1       2.624   0.830  -2.049  0.00  0.00    +0.309 C 
ATOM      8  O   UNL     1       1.917   1.291  -2.923  0.00  0.00    -0.252 OA
ATOM      9  N   UNL     1       3.899   1.250  -1.922  0.00  0.00    -0.240 N 
ATOM     10  C   UNL     1       4.358   2.253  -2.696  0.00  0.00    +0.221 C 
ATOM     11  O   UNL     1       3.625   2.777  -3.507  0.00  0.00    -0.275 OA
ATOM     12  C   UNL     1       3.550  -2.977   0.805  0.00  0.00    +0.039 C 
ATOM     13  H   UNL     1       4.485   0.831  -1.273  0.00  0.00    +0.159 HD
ENDROOT
BRANCH   1  15
ATOM     14  C   UNL     1      -0.012   1.531   0.017  0.00  0.00    +0.006 C 
ATOM     15  C   UNL     1       0.005   0.002   0.008  0.00  0.00    +0.021 C 
ENDBRANCH   1  15
BRANCH  10  16
ATOM     16  C   UNL     1       5.783   2.723  -2.553  0.00  0.00    +0.112 C 
BRANCH  16  17
ATOM     17  C   UNL     1       6.046   3.862  -3.541  0.00  0.00    +0.118 C 
ATOM     18 CL   UNL     1       7.750   4.424  -3.370  0.00  0.00    -0.125 Cl
ENDBRANCH  16  17
ENDBRANCH  10  16
TORSDOF 3
