REMARK  Name = ZINC26808323
REMARK  5 active torsions:
REMARK  status: ('A' for Active; 'I' for Inactive)
REMARK    1  A    between atoms: C_1  and  C_2
REMARK    2  A    between atoms: C_2  and  C_4
REMARK    3  A    between atoms: C_2  and  N_14
REMARK    4  A    between atoms: C_6  and  C_9
REMARK    5  A    between atoms: N_17  and  C_20
REMARK                            x       y       z     vdW  Elec       q    Type
REMARK                         _______ _______ _______ _____ _____    ______ ____
ROOT
ATOM      1  C   UNL     1       0.768  -0.349  -1.259  0.00  0.00    +0.034 C 
ATOM      2  C   UNL     1       0.063   0.078   0.031  0.00  0.00    +0.143 C 
ENDROOT
BRANCH   2   3
ATOM      3  N   UNL     1      -1.307  -0.452   0.039  0.00  0.00    -0.289 NA
ATOM      4  C   UNL     1      -2.011  -0.111  -1.204  0.00  0.00    +0.104 C 
ATOM      5  C   UNL     1      -3.363  -0.830  -1.236  0.00  0.00    +0.120 C 
ATOM      6  N   UNL     1      -4.092  -0.507   0.001  0.00  0.00    -0.327 N 
ATOM      7  C   UNL     1      -3.401  -0.694   1.285  0.00  0.00    +0.120 C 
ATOM      8  C   UNL     1      -2.046   0.020   1.217  0.00  0.00    +0.104 C 
BRANCH   6   9
ATOM      9  C   UNL     1      -5.407  -0.036  -0.044  0.00  0.00    +0.030 A 
ATOM     10  C   UNL     1      -6.088   0.011  -1.254  0.00  0.00    +0.023 A 
ATOM     11  C   UNL     1      -7.388   0.477  -1.294  0.00  0.00    +0.002 A 
ATOM     12  C   UNL     1      -8.010   0.897  -0.133  0.00  0.00    +0.000 A 
ATOM     13  C   UNL     1      -7.334   0.851   1.073  0.00  0.00    +0.002 A 
ATOM     14  C   UNL     1      -6.037   0.380   1.122  0.00  0.00    +0.023 A 
ENDBRANCH   6   9
ENDBRANCH   2   3
BRANCH   2  15
ATOM     15  C   UNL     1       0.818  -0.463   1.218  0.00  0.00    +0.245 A 
ATOM     16  N   UNL     1       1.644   0.212   1.965  0.00  0.00    -0.190 NA
ATOM     17  C   UNL     1       2.140  -0.580   2.935  0.00  0.00    +0.209 A 
ATOM     18  N   UNL     1       1.621  -1.779   2.802  0.00  0.00    -0.055 NA
ATOM     19  O   UNL     1       0.748  -1.716   1.684  0.00  0.00    -0.336 OA
BRANCH  17  20
ATOM     20  C   UNL     1       3.106  -0.169   3.974  0.00  0.00    +0.060 A 
ATOM     21  C   UNL     1       3.657  -0.913   4.984  0.00  0.00    +0.019 A 
ATOM     22  C   UNL     1       4.546  -0.308   5.843  0.00  0.00    +0.008 A 
ATOM     23  C   UNL     1       4.850   1.004   5.665  0.00  0.00    +0.046 A 
ATOM     24  S   UNL     1       3.865   1.426   4.237  0.00  0.00    -0.093 S 
ENDBRANCH  17  20
ENDBRANCH   2  15
TORSDOF 4
