REMARK  Name = ZINC20718329
REMARK  8 active torsions:
REMARK  status: ('A' for Active; 'I' for Inactive)
REMARK    1  A    between atoms: C_1  and  O_2
REMARK    2  A    between atoms: O_2  and  C_3
REMARK    3  A    between atoms: C_6  and  N_9
REMARK    4  A    between atoms: N_9  and  S_10
REMARK    5  A    between atoms: S_10  and  C_13
REMARK    6  A    between atoms: C_26  and  C_29
REMARK    7  A    between atoms: C_38  and  O_39
REMARK    8  A    between atoms: O_39  and  C_40
REMARK                            x       y       z     vdW  Elec       q    Type
REMARK                         _______ _______ _______ _____ _____    ______ ____
ROOT
ATOM      1  C   UNL     1      -3.803   4.885  -1.098  0.00  0.00    +0.109 A 
ATOM      2  C   UNL     1      -2.977   5.949  -1.409  0.00  0.00    +0.030 A 
ATOM      3  C   UNL     1      -1.643   5.918  -1.055  0.00  0.00    +0.025 A 
ATOM      4  C   UNL     1      -1.120   4.817  -0.387  0.00  0.00    +0.031 A 
ATOM      5  C   UNL     1      -1.965   3.749  -0.067  0.00  0.00    -0.018 A 
ATOM      6  C   UNL     1      -3.295   3.788  -0.427  0.00  0.00    +0.034 A 
ATOM      7  C   UNL     1      -1.374   2.606   0.662  0.00  0.00    +0.049 C 
ATOM      8  C   UNL     1      -1.946   1.240   0.539  0.00  0.00    -0.023 C 
ATOM      9  C   UNL     1      -0.965   0.355   0.662  0.00  0.00    -0.030 C 
ATOM     10  C   UNL     1       0.372   1.079   0.837  0.00  0.00    +0.033 C 
ATOM     11  C   UNL     1       0.088   2.422   0.153  0.00  0.00    +0.029 C 
ATOM     12  C   UNL     1       0.848   3.635   0.658  0.00  0.00    +0.109 C 
ATOM     13  N   UNL     1       0.243   4.794  -0.069  0.00  0.00    -0.336 N 
ATOM     14  H   UNL     1       0.872   5.647  -0.363  0.00  0.00    +0.147 HD
ENDROOT
BRANCH  12  15
ATOM     15  C   UNL     1       2.310   3.513   0.315  0.00  0.00    +0.022 A 
ATOM     16  C   UNL     1       3.246   3.192   1.312  0.00  0.00    -0.009 A 
ATOM     17  C   UNL     1       2.848   2.977   2.643  0.00  0.00    +0.009 A 
ATOM     18  C   UNL     1       3.781   2.668   3.584  0.00  0.00    +0.001 A 
ATOM     19  C   UNL     1       5.130   2.560   3.248  0.00  0.00    +0.001 A 
ATOM     20  C   UNL     1       5.550   2.750   1.967  0.00  0.00    +0.008 A 
ATOM     21  C   UNL     1       4.616   3.077   0.969  0.00  0.00    -0.017 A 
ATOM     22  C   UNL     1       5.017   3.297  -0.360  0.00  0.00    +0.012 A 
ATOM     23  C   UNL     1       4.088   3.612  -1.301  0.00  0.00    +0.046 A 
ATOM     24  C   UNL     1       2.734   3.720  -0.967  0.00  0.00    +0.126 A 
BRANCH  24  25
ATOM     25  O   UNL     1       1.829   4.036  -1.930  0.00  0.00    -0.495 OA
ATOM     26  C   UNL     1       2.332   4.241  -3.251  0.00  0.00    +0.277 C 
ENDBRANCH  24  25
ENDBRANCH  12  15
BRANCH   1  27
ATOM     27  S   UNL     1      -5.504   4.927  -1.556  0.00  0.00    +0.072 S 
ATOM     28  O   UNL     1      -6.165   3.958  -0.754  0.00  0.00    -0.150 OA
ATOM     29  O   UNL     1      -5.888   6.295  -1.568  0.00  0.00    -0.150 OA
BRANCH  27  30
ATOM     30  N   UNL     1      -5.603   4.394  -3.120  0.00  0.00    -0.216 N 
ATOM     31  H   UNL     1      -5.964   5.069  -3.910  0.00  0.00    +0.174 HD
BRANCH  30  35
ATOM     32  C   UNL     1      -4.484   0.491  -4.067  0.00  0.00    +0.120 A 
ATOM     33  C   UNL     1      -5.679   0.728  -3.404  0.00  0.00    +0.047 A 
ATOM     34  C   UNL     1      -6.051   2.021  -3.091  0.00  0.00    +0.028 A 
ATOM     35  C   UNL     1      -5.227   3.083  -3.438  0.00  0.00    +0.048 A 
ATOM     36  C   UNL     1      -4.034   2.846  -4.106  0.00  0.00    +0.028 A 
ATOM     37  C   UNL     1      -3.661   1.552  -4.414  0.00  0.00    +0.047 A 
BRANCH  32  39
ATOM     38  C   UNL     1      -2.876  -0.953  -5.059  0.00  0.00    +0.277 C 
ATOM     39  O   UNL     1      -4.120  -0.782  -4.376  0.00  0.00    -0.495 OA
ENDBRANCH  32  39
ENDBRANCH  30  35
ENDBRANCH  27  30
ENDBRANCH   1  27
TORSDOF 6
