REMARK  Name = ZINC11118995
REMARK  5 active torsions:
REMARK  status: ('A' for Active; 'I' for Inactive)
REMARK    1  A    between atoms: C_1  and  C_2
REMARK    2  A    between atoms: C_2  and  C_3
REMARK    3  A    between atoms: N_18  and  C_19
REMARK    4  A    between atoms: C_19  and  C_20
REMARK    5  A    between atoms: N_22  and  C_23
REMARK                            x       y       z     vdW  Elec       q    Type
REMARK                         _______ _______ _______ _____ _____    ______ ____
ROOT
ATOM      1  C   UNL     1       4.892   1.787   0.307  0.00  0.00    -0.047 A 
ATOM      2  C   UNL     1       4.984   0.449  -0.036  0.00  0.00    +0.005 A 
ATOM      3  C   UNL     1       3.848  -0.259  -0.369  0.00  0.00    +0.025 A 
ATOM      4  C   UNL     1       2.605   0.365  -0.363  0.00  0.00    +0.060 A 
ATOM      5  C   UNL     1       2.506   1.714  -0.020  0.00  0.00    +0.007 A 
ATOM      6  C   UNL     1       3.667   2.418   0.317  0.00  0.00    +0.014 A 
ATOM      7  C   UNL     1       1.217   2.446   0.001  0.00  0.00    +0.011 A 
ATOM      8  C   UNL     1       1.212   3.842   0.004  0.00  0.00    +0.010 A 
ATOM      9  C   UNL     1       0.013   4.524   0.027  0.00  0.00    +0.001 A 
ATOM     10  C   UNL     1      -1.186   3.836   0.046  0.00  0.00    +0.002 A 
ATOM     11  C   UNL     1      -1.191   2.450   0.036  0.00  0.00    +0.029 A 
ATOM     12  C   UNL     1       0.001   1.764   0.019  0.00  0.00    +0.116 A 
ATOM     13  S   UNL     1       0.029  -0.002   0.011  0.00  0.00    +0.076 S 
ATOM     14  O   UNL     1       0.106  -0.423   1.366  0.00  0.00    -0.150 OA
ATOM     15  O   UNL     1      -1.000  -0.431  -0.872  0.00  0.00    -0.150 OA
ATOM     16  N   UNL     1       1.480  -0.394  -0.705  0.00  0.00    -0.194 N 
ENDROOT
BRANCH   1  18
ATOM     17  C   UNL     1       6.378   2.450   2.178  0.00  0.00    +0.009 C 
ATOM     18  C   UNL     1       6.135   2.556   0.671  0.00  0.00    +0.032 C 
ENDBRANCH   1  18
BRANCH  16  19
ATOM     19  C   UNL     1       1.576  -1.498  -1.663  0.00  0.00    +0.227 C 
BRANCH  19  20
ATOM     20  C   UNL     1       1.449  -0.960  -3.065  0.00  0.00    +0.236 C 
ATOM     21  O   UNL     1       1.292   0.229  -3.246  0.00  0.00    -0.274 OA
ATOM     22  N   UNL     1       1.508  -1.800  -4.117  0.00  0.00    -0.283 N 
ATOM     23  H   UNL     1       1.698  -2.741  -3.977  0.00  0.00    +0.155 HD
BRANCH  22  24
ATOM     24  C   UNL     1       1.296  -1.315  -5.413  0.00  0.00    +0.047 A 
ATOM     25  C   UNL     1       1.723  -0.039  -5.757  0.00  0.00    +0.024 A 
ATOM     26  C   UNL     1       1.516   0.436  -7.037  0.00  0.00    +0.002 A 
ATOM     27  C   UNL     1       0.875  -0.354  -7.974  0.00  0.00    +0.001 A 
ATOM     28  C   UNL     1       0.444  -1.623  -7.634  0.00  0.00    +0.017 A 
ATOM     29  C   UNL     1       0.652  -2.106  -6.356  0.00  0.00    +0.039 A 
ATOM     30 BR   UNL     1       0.061  -3.841  -5.891  0.00  0.00    -0.048 Br
ENDBRANCH  22  24
ENDBRANCH  19  20
ENDBRANCH  16  19
TORSDOF 4
