REMARK  Name = ZINC39935526
REMARK  9 active torsions:
REMARK  status: ('A' for Active; 'I' for Inactive)
REMARK    1  A    between atoms: C_1  and  C_2
REMARK    2  A    between atoms: N_16  and  N_17
REMARK    3  A    between atoms: C_18  and  C_19
REMARK    4  A    between atoms: C_23  and  C_28
REMARK    5  A    between atoms: C_25  and  C_27
REMARK    6  A    between atoms: C_28  and  C_29
REMARK    7  A    between atoms: C_29  and  C_30
REMARK    8  A    between atoms: C_31  and  C_32
REMARK    9  A    between atoms: C_31  and  C_33
REMARK                            x       y       z     vdW  Elec       q    Type
REMARK                         _______ _______ _______ _____ _____    ______ ____
ROOT
ATOM      1  C   UNL     1       1.472  -2.396   2.182  0.00  0.00    +0.046 C 
ATOM      2  C   UNL     1       1.394  -3.843   2.594  0.00  0.00    -0.027 A 
ATOM      3  C   UNL     1       1.501  -4.824   1.670  0.00  0.00    +0.005 A 
ATOM      4  C   UNL     1       1.434  -6.179   2.022  0.00  0.00    +0.001 A 
ATOM      5  C   UNL     1       1.230  -6.589   3.295  0.00  0.00    +0.012 A 
ATOM      6  C   UNL     1       1.073  -5.647   4.336  0.00  0.00    +0.025 A 
ATOM      7  C   UNL     1       0.743  -5.740   5.664  0.00  0.00    +0.117 C 
ATOM      8  C   UNL     1       1.006  -4.355   6.243  0.00  0.00    +0.253 C 
ATOM      9  N   UNL     1       1.100  -3.472   5.088  0.00  0.00    -0.358 N 
ATOM     10  C   UNL     1       1.206  -4.204   4.005  0.00  0.00    +0.049 A 
ATOM     11  N   UNL     1      -0.121  -4.066   7.131  0.00  0.00    -0.219 NA
ATOM     12  C   UNL     1      -0.743  -5.074   7.688  0.00  0.00    +0.252 C 
ATOM     13  N   UNL     1      -0.440  -6.373   7.446  0.00  0.00    -0.111 NA
ATOM     14  N   UNL     1       0.273  -6.727   6.428  0.00  0.00    -0.146 NA
ATOM     15  N   UNL     1      -1.766  -4.799   8.574  0.00  0.00    -0.204 N 
ATOM     16  H   UNL     1      -2.246  -5.525   9.003  0.00  0.00    +0.177 HD
ATOM     17  H   UNL     1       1.089  -2.502   5.115  0.00  0.00    +0.162 HD
ENDROOT
BRANCH  15  18
ATOM     18  N   UNL     1      -2.112  -3.470   8.854  0.00  0.00    -0.192 NA
ATOM     19  C   UNL     1      -3.061  -3.215   9.675  0.00  0.00    +0.107 C 
BRANCH  19  20
ATOM     20  C   UNL     1      -3.432  -1.786   9.976  0.00  0.00    +0.039 C 
ATOM     21  C   UNL     1      -4.895  -1.544   9.597  0.00  0.00    +0.036 C 
ATOM     22  C   UNL     1      -5.355  -0.218  10.129  0.00  0.00    -0.027 C 
ATOM     23  C   UNL     1      -4.741   0.443  11.057  0.00  0.00    -0.073 C 
ATOM     24  C   UNL     1      -3.478  -0.019  11.724  0.00  0.00    +0.034 C 
ATOM     25  C   UNL     1      -3.264  -1.514  11.476  0.00  0.00    -0.001 C 
ATOM     26  C   UNL     1      -1.854  -1.915  11.916  0.00  0.00    +0.008 C 
BRANCH  23  27
ATOM     27  C   UNL     1      -5.331   1.758  11.496  0.00  0.00    +0.034 C 
BRANCH  27  28
ATOM     28  C   UNL     1      -6.214   1.537  12.726  0.00  0.00    +0.031 C 
BRANCH  28  29
ATOM     29  C   UNL     1      -6.803   2.853  13.164  0.00  0.00    -0.028 C 
ATOM     30  C   UNL     1      -8.104   3.000  13.224  0.00  0.00    -0.080 C 
ATOM     31  C   UNL     1      -9.010   1.902  12.730  0.00  0.00    +0.038 C 
ATOM     32  C   UNL     1      -8.693   4.268  13.787  0.00  0.00    +0.038 C 
ENDBRANCH  28  29
ENDBRANCH  27  28
ENDBRANCH  23  27
ENDBRANCH  19  20
ENDBRANCH  15  18
TORSDOF 5
