REMARK  Name = ZINC63141980
REMARK  9 active torsions:
REMARK  status: ('A' for Active; 'I' for Inactive)
REMARK    1  A    between atoms: C_1  and  C_2
REMARK    2  A    between atoms: C_2  and  O_3
REMARK    3  A    between atoms: O_3  and  C_4
REMARK    4  A    between atoms: C_7  and  C_12
REMARK    5  A    between atoms: C_9  and  O_10
REMARK    6  A    between atoms: O_10  and  C_11
REMARK    7  A    between atoms: N_31  and  C_34
REMARK    8  A    between atoms: C_34  and  C_35
REMARK    9  A    between atoms: C_35  and  C_36
REMARK                            x       y       z     vdW  Elec       q    Type
REMARK                         _______ _______ _______ _____ _____    ______ ____
ROOT
ATOM      1  C   UNL     1       1.107  -6.044  -1.844  0.00  0.00    +0.134 C 
ATOM      2  C   UNL     1      -0.249  -6.625  -2.253  0.00  0.00    +0.131 C 
ATOM      3  C   UNL     1      -1.160  -6.513  -1.037  0.00  0.00    -0.034 C 
ATOM      4  C   UNL     1      -2.231  -5.835  -1.431  0.00  0.00    -0.001 A 
ATOM      5  C   UNL     1      -3.475  -5.477  -0.732  0.00  0.00    +0.010 A 
ATOM      6  C   UNL     1      -4.376  -4.751  -1.446  0.00  0.00    +0.001 A 
ATOM      7  C   UNL     1      -4.165  -4.349  -2.768  0.00  0.00    +0.002 A 
ATOM      8  C   UNL     1      -3.054  -4.639  -3.490  0.00  0.00    +0.026 A 
ATOM      9  C   UNL     1      -2.035  -5.403  -2.849  0.00  0.00    +0.043 A 
ATOM     10  N   UNL     1      -0.882  -5.841  -3.316  0.00  0.00    -0.375 N 
ATOM     11  C   UNL     1      -0.764  -7.042   0.320  0.00  0.00    +0.065 C 
ATOM     12  C   UNL     1       0.646  -6.495   0.611  0.00  0.00    +0.167 C 
ATOM     13  N   UNL     1       1.498  -6.673  -0.562  0.00  0.00    -0.279 N 
ATOM     14  C   UNL     1       2.629  -7.388  -0.534  0.00  0.00    +0.234 C 
ATOM     15  O   UNL     1       3.255  -7.492  -1.567  0.00  0.00    -0.274 OA
ATOM     16  C   UNL     1       3.174  -8.066   0.679  0.00  0.00    +0.203 C 
ATOM     17  N   UNL     1       2.337  -7.858   1.848  0.00  0.00    -0.291 N 
ATOM     18  C   UNL     1       1.200  -7.157   1.829  0.00  0.00    +0.237 C 
ATOM     19  O   UNL     1       0.580  -7.048   2.866  0.00  0.00    -0.274 OA
ATOM     20  H   UNL     1      -0.510  -5.676  -4.197  0.00  0.00    +0.160 HD
ENDROOT
BRANCH   1  24
ATOM     21  C   UNL     1       0.775  -1.811  -1.337  0.00  0.00    +0.162 A 
ATOM     22  C   UNL     1      -0.011  -2.666  -0.581  0.00  0.00    +0.050 A 
ATOM     23  C   UNL     1       0.099  -4.034  -0.747  0.00  0.00    +0.009 A 
ATOM     24  C   UNL     1       0.992  -4.552  -1.667  0.00  0.00    -0.021 A 
ATOM     25  C   UNL     1       1.779  -3.705  -2.424  0.00  0.00    +0.055 A 
ATOM     26  C   UNL     1       1.670  -2.333  -2.267  0.00  0.00    +0.162 A 
BRANCH  26  27
ATOM     27  O   UNL     1       2.440  -1.498  -3.015  0.00  0.00    -0.491 OA
ATOM     28  C   UNL     1       3.335  -2.104  -3.949  0.00  0.00    +0.277 C 
ENDBRANCH  26  27
BRANCH  21  29
ATOM     29  O   UNL     1       0.669  -0.465  -1.175  0.00  0.00    -0.489 OA
BRANCH  29  31
ATOM     30  C   UNL     1      -0.249   1.528  -0.163  0.00  0.00    +0.048 C 
ATOM     31  C   UNL     1      -0.270  -0.001  -0.203  0.00  0.00    +0.226 C 
ENDBRANCH  29  31
ENDBRANCH  21  29
ENDBRANCH   1  24
BRANCH  17  32
ATOM     32  C   UNL     1       2.761  -8.452   3.119  0.00  0.00    +0.112 C 
BRANCH  32  33
ATOM     33  C   UNL     1       3.646  -7.459   3.875  0.00  0.00    +0.049 C 
BRANCH  33  34
ATOM     34  C   UNL     1       4.083  -8.070   5.182  0.00  0.00    -0.072 C 
ATOM     35  C   UNL     1       5.234  -8.662   5.221  0.00  0.00    -0.028 C 
ATOM     36  C   UNL     1       5.798  -9.324   6.443  0.00  0.00    +0.027 C 
ATOM     37  C   UNL     1       5.055  -8.845   7.692  0.00  0.00    +0.004 C 
ATOM     38  C   UNL     1       3.547  -8.966   7.437  0.00  0.00    +0.005 C 
ATOM     39  C   UNL     1       3.159  -7.950   6.358  0.00  0.00    +0.030 C 
ENDBRANCH  33  34
ENDBRANCH  32  33
ENDBRANCH  17  32
TORSDOF 7
