REMARK  Name = ZINC20058133
REMARK  5 active torsions:
REMARK  status: ('A' for Active; 'I' for Inactive)
REMARK    1  A    between atoms: C_1  and  C_2
REMARK    2  A    between atoms: C_7  and  N_12
REMARK    3  A    between atoms: C_9  and  C_11
REMARK    4  A    between atoms: C_13  and  N_23
REMARK    5  A    between atoms: N_23  and  C_24
REMARK                            x       y       z     vdW  Elec       q    Type
REMARK                         _______ _______ _______ _____ _____    ______ ____
ROOT
ATOM      1  N   UNL     1      -0.018   1.463   0.010  0.00  0.00    -0.304 N 
ATOM      2  C   UNL     1       0.004   0.001  -0.106  0.00  0.00    +0.051 C 
ATOM      3  C   UNL     1       1.457  -0.403  -0.077  0.00  0.00    -0.032 A 
ATOM      4  C   UNL     1       2.099  -1.618  -0.146  0.00  0.00    +0.004 A 
ATOM      5  C   UNL     1       3.482  -1.673  -0.092  0.00  0.00    +0.000 A 
ATOM      6  C   UNL     1       4.221  -0.510   0.032  0.00  0.00    +0.001 A 
ATOM      7  C   UNL     1       3.587   0.713   0.103  0.00  0.00    +0.013 A 
ATOM      8  C   UNL     1       2.193   0.777   0.049  0.00  0.00    +0.040 A 
ATOM      9  C   UNL     1       1.247   1.909   0.099  0.00  0.00    +0.246 C 
ATOM     10  O   UNL     1       1.567   3.077   0.206  0.00  0.00    -0.270 OA
ENDROOT
BRANCH   1  16
ATOM     11  C   UNL     1       0.117   5.141  -2.208  0.00  0.00    +0.008 C 
ATOM     12  C   UNL     1       0.069   4.164  -1.032  0.00  0.00    -0.009 C 
ATOM     13  C   UNL     1       0.005   4.949   0.280  0.00  0.00    +0.003 C 
ATOM     14  C   UNL     1      -0.044   3.972   1.457  0.00  0.00    +0.002 C 
ATOM     15  C   UNL     1      -1.284   3.085   1.333  0.00  0.00    +0.023 C 
ATOM     16  C   UNL     1      -1.220   2.300   0.021  0.00  0.00    +0.078 C 
ATOM     17  C   UNL     1      -1.172   3.277  -1.156  0.00  0.00    +0.009 C 
ATOM     18  C   UNL     1      -1.108   2.492  -2.468  0.00  0.00    +0.009 C 
ENDBRANCH   1  16
BRANCH   2  19
ATOM     19  N   UNL     1      -0.610  -0.415  -1.374  0.00  0.00    +0.396 N 
ATOM     20  H   UNL     1      -0.693   0.455  -2.043  0.00  0.00    -0.082 HD
ATOM     21  H   UNL     1       0.016  -1.185  -1.849  0.00  0.00    -0.082 HD
BRANCH  19  22
ATOM     22  C   UNL     1      -1.952  -0.969  -1.153  0.00  0.00    -0.069 C 
ATOM     23  C   UNL     1      -1.839  -2.452  -0.797  0.00  0.00    -0.016 C 
ATOM     24  C   UNL     1      -2.287  -2.665   0.650  0.00  0.00    -0.002 C 
ATOM     25  C   UNL     1      -3.365  -3.750   0.697  0.00  0.00    -0.000 C 
ATOM     26  C   UNL     1      -4.594  -3.216   1.435  0.00  0.00    -0.000 C 
ATOM     27  C   UNL     1      -5.836  -3.406   0.561  0.00  0.00    -0.000 C 
ATOM     28  C   UNL     1      -6.567  -2.070   0.416  0.00  0.00    -0.000 C 
ATOM     29  C   UNL     1      -6.782  -1.765  -1.068  0.00  0.00    -0.000 C 
ATOM     30  C   UNL     1      -6.232  -0.373  -1.387  0.00  0.00    -0.000 C 
ATOM     31  C   UNL     1      -5.256  -0.467  -2.562  0.00  0.00    -0.000 C 
ATOM     32  C   UNL     1      -3.925   0.178  -2.171  0.00  0.00    -0.002 C 
ATOM     33  C   UNL     1      -2.785  -0.811  -2.426  0.00  0.00    -0.016 C 
ENDBRANCH  19  22
ENDBRANCH   2  19
TORSDOF 3
