REMARK  Name = ZINC13272117
REMARK  10 active torsions:
REMARK  status: ('A' for Active; 'I' for Inactive)
REMARK    1  A    between atoms: C_1  and  C_2
REMARK    2  A    between atoms: C_2  and  C_4
REMARK    3  A    between atoms: C_2  and  S_17
REMARK    4  A    between atoms: S_17  and  C_18
REMARK    5  A    between atoms: C_21  and  C_31
REMARK    6  A    between atoms: N_22  and  C_23
REMARK    7  A    between atoms: C_23  and  C_25
REMARK    8  A    between atoms: C_23  and  C_28
REMARK    9  A    between atoms: C_25  and  C_26
REMARK   10  A    between atoms: C_25  and  C_27
REMARK                            x       y       z     vdW  Elec       q    Type
REMARK                         _______ _______ _______ _____ _____    ______ ____
ROOT
ATOM      1  S   UNL     1       0.879  -0.605   1.472  0.00  0.00    -0.073 S 
ENDROOT
BRANCH   1   2
ATOM      2  C   UNL     1       2.533  -0.042   1.241  0.00  0.00    +0.193 A 
ATOM      3  N   UNL     1       2.983   0.657   0.224  0.00  0.00    -0.122 NA
ATOM      4  N   UNL     1       4.236   0.898   0.372  0.00  0.00    -0.128 NA
ATOM      5  C   UNL     1       4.665   0.367   1.496  0.00  0.00    +0.172 A 
ATOM      6  N   UNL     1       3.585  -0.247   2.090  0.00  0.00    -0.287 N 
BRANCH   5   7
ATOM      7  C   UNL     1       6.039   0.424   2.023  0.00  0.00    +0.056 A 
ATOM      8  C   UNL     1       7.075   1.241   1.648  0.00  0.00    +0.019 A 
ATOM      9  C   UNL     1       8.285   1.111   2.292  0.00  0.00    +0.008 A 
ATOM     10  C   UNL     1       8.416   0.182   3.275  0.00  0.00    +0.046 A 
ATOM     11  S   UNL     1       6.787  -0.547   3.320  0.00  0.00    -0.094 S 
ENDBRANCH   5   7
BRANCH   6  12
ATOM     12  C   UNL     1       3.567  -0.970   3.364  0.00  0.00    +0.206 C 
BRANCH  12  13
ATOM     13  C   UNL     1       3.135  -2.418   3.122  0.00  0.00    +0.017 C 
ATOM     14  C   UNL     1       4.122  -3.092   2.166  0.00  0.00    +0.010 C 
ATOM     15  C   UNL     1       3.117  -3.174   4.452  0.00  0.00    +0.010 C 
ENDBRANCH  12  13
BRANCH  12  16
ATOM     16  C   UNL     1       2.595  -0.306   4.305  0.00  0.00    +0.379 C 
ATOM     17  O   UNL     1       1.975   0.680   3.945  0.00  0.00    -0.244 OA
ATOM     18  O   UNL     1       2.429  -0.755   5.426  0.00  0.00    -0.244 OA
ENDBRANCH  12  16
ENDBRANCH   6  12
ENDBRANCH   1   2
BRANCH   1  20
ATOM     19  C   UNL     1      -0.019   1.526   0.010  0.00  0.00    +0.029 C 
ATOM     20  C   UNL     1       0.002  -0.004   0.002  0.00  0.00    +0.137 C 
BRANCH  20  21
ATOM     21  C   UNL     1      -1.412  -0.526   0.013  0.00  0.00    +0.233 C 
ATOM     22  O   UNL     1      -1.939  -0.827   1.063  0.00  0.00    -0.274 OA
ATOM     23  N   UNL     1      -2.090  -0.657  -1.144  0.00  0.00    -0.260 N 
ATOM     24  C   UNL     1      -1.472  -0.305  -2.431  0.00  0.00    +0.209 C 
ATOM     25  C   UNL     1      -2.480   0.430  -3.276  0.00  0.00    +0.235 C 
ATOM     26  O   UNL     1      -2.100   1.245  -4.090  0.00  0.00    -0.274 OA
ATOM     27  N   UNL     1      -3.799   0.194  -3.139  0.00  0.00    -0.283 N 
ATOM     28  C   UNL     1      -4.268  -0.705  -2.174  0.00  0.00    +0.055 A 
ATOM     29  C   UNL     1      -3.408  -1.141  -1.160  0.00  0.00    +0.058 A 
ATOM     30  C   UNL     1      -3.855  -2.027  -0.198  0.00  0.00    +0.025 A 
ATOM     31  C   UNL     1      -5.159  -2.489  -0.243  0.00  0.00    +0.002 A 
ATOM     32  C   UNL     1      -6.012  -2.067  -1.246  0.00  0.00    +0.002 A 
ATOM     33  C   UNL     1      -5.572  -1.169  -2.212  0.00  0.00    +0.025 A 
ATOM     34  H   UNL     1      -4.431   0.651  -3.716  0.00  0.00    +0.155 HD
ENDBRANCH  20  21
ENDBRANCH   1  20
TORSDOF 7
