REMARK  Name = ZINC36301783
REMARK  12 active torsions:
REMARK  status: ('A' for Active; 'I' for Inactive)
REMARK    1  A    between atoms: C_1  and  C_2
REMARK    2  A    between atoms: C_3  and  C_21
REMARK    3  A    between atoms: C_4  and  O_14
REMARK    4  A    between atoms: N_5  and  C_7
REMARK    5  A    between atoms: O_14  and  C_15
REMARK    6  A    between atoms: C_21  and  N_22
REMARK    7  A    between atoms: N_22  and  C_23
REMARK    8  A    between atoms: N_22  and  C_34
REMARK    9  A    between atoms: C_23  and  C_24
REMARK   10  A    between atoms: C_24  and  C_26
REMARK   11  A    between atoms: C_24  and  O_33
REMARK   12  A    between atoms: C_26  and  C_27
REMARK                            x       y       z     vdW  Elec       q    Type
REMARK                         _______ _______ _______ _____ _____    ______ ____
ROOT
ATOM      1  C   UNL     1       0.808   1.430  -0.060  0.00  0.00    +0.068 C 
ATOM      2  C   UNL     1       0.424  -0.027  -0.060  0.00  0.00    +0.065 A 
ATOM      3  C   UNL     1      -0.036  -0.751  -1.164  0.00  0.00    +0.021 A 
ATOM      4  C   UNL     1      -0.274  -2.027  -0.757  0.00  0.00    +0.225 A 
ATOM      5  N   UNL     1       0.029  -2.096   0.567  0.00  0.00    -0.200 N 
ATOM      6  N   UNL     1       0.469  -0.830   0.973  0.00  0.00    -0.168 NA
ENDROOT
BRANCH   5   7
ATOM      7  C   UNL     1      -0.074  -3.234   1.380  0.00  0.00    +0.070 A 
ATOM      8  C   UNL     1      -1.187  -4.059   1.283  0.00  0.00    +0.028 A 
ATOM      9  C   UNL     1      -1.287  -5.179   2.084  0.00  0.00    +0.003 A 
ATOM     10  C   UNL     1      -0.280  -5.481   2.983  0.00  0.00    +0.020 A 
ATOM     11  C   UNL     1       0.831  -4.661   3.082  0.00  0.00    +0.043 A 
ATOM     12  C   UNL     1       0.939  -3.541   2.278  0.00  0.00    +0.048 A 
ATOM     13 CL   UNL     1       2.093  -5.043   4.211  0.00  0.00    -0.083 Cl
ENDBRANCH   5   7
BRANCH   4  14
ATOM     14  O   UNL     1      -0.731  -3.044  -1.530  0.00  0.00    -0.438 OA
BRANCH  14  15
ATOM     15  C   UNL     1      -2.075  -3.182  -1.675  0.00  0.00    +0.130 A 
ATOM     16  C   UNL     1      -2.933  -2.236  -1.131  0.00  0.00    +0.046 A 
ATOM     17  C   UNL     1      -4.298  -2.378  -1.281  0.00  0.00    +0.004 A 
ATOM     18  C   UNL     1      -4.811  -3.461  -1.971  0.00  0.00    +0.000 A 
ATOM     19  C   UNL     1      -3.958  -4.405  -2.513  0.00  0.00    +0.004 A 
ATOM     20  C   UNL     1      -2.591  -4.265  -2.372  0.00  0.00    +0.046 A 
ENDBRANCH  14  15
ENDBRANCH   4  14
BRANCH   3  21
ATOM     21  C   UNL     1      -0.233  -0.214  -2.558  0.00  0.00    -0.035 C 
BRANCH  21  22
ATOM     22  N   UNL     1       1.047  -0.236  -3.277  0.00  0.00    +0.386 N 
ATOM     23  H   UNL     1       1.743   0.259  -2.740  0.00  0.00    -0.081 HD
BRANCH  22  24
ATOM     24  C   UNL     1       0.885   0.413  -4.585  0.00  0.00    -0.068 C 
ATOM     25  C   UNL     1       1.831   1.567  -4.923  0.00  0.00    -0.017 C 
ATOM     26  C   UNL     1       0.363   1.851  -4.600  0.00  0.00    -0.017 C 
ENDBRANCH  22  24
BRANCH  22  27
ATOM     27  C   UNL     1       1.476  -1.628  -3.471  0.00  0.00    -0.046 C 
BRANCH  27  28
ATOM     28  C   UNL     1       2.867  -1.649  -4.108  0.00  0.00    +0.102 C 
BRANCH  28  29
ATOM     29  O   UNL     1       2.822  -0.984  -5.372  0.00  0.00    -0.393 OA
ATOM     30  H   UNL     1       2.211  -1.385  -6.006  0.00  0.00    +0.210 HD
ENDBRANCH  28  29
BRANCH  28  31
ATOM     31  C   UNL     1       3.313  -3.099  -4.309  0.00  0.00    +0.064 C 
BRANCH  31  32
ATOM     32  C   UNL     1       4.730  -3.121  -4.822  0.00  0.00    -0.045 A 
ATOM     33  C   UNL     1       4.973  -3.094  -6.183  0.00  0.00    +0.004 A 
ATOM     34  C   UNL     1       6.273  -3.115  -6.653  0.00  0.00    +0.000 A 
ATOM     35  C   UNL     1       7.329  -3.162  -5.763  0.00  0.00    +0.000 A 
ATOM     36  C   UNL     1       7.086  -3.187  -4.403  0.00  0.00    +0.000 A 
ATOM     37  C   UNL     1       5.787  -3.162  -3.932  0.00  0.00    +0.004 A 
ENDBRANCH  31  32
ENDBRANCH  28  31
ENDBRANCH  27  28
ENDBRANCH  22  27
ENDBRANCH  21  22
ENDBRANCH   3  21
TORSDOF 11
