REMARK  Name = ZINC15225440
REMARK  11 active torsions:
REMARK  status: ('A' for Active; 'I' for Inactive)
REMARK    1  A    between atoms: C_1  and  C_2
REMARK    2  A    between atoms: C_2  and  C_3
REMARK    3  A    between atoms: C_2  and  C_4
REMARK    4  A    between atoms: C_14  and  C_30
REMARK    5  A    between atoms: C_18  and  C_19
REMARK    6  A    between atoms: C_18  and  C_20
REMARK    7  A    between atoms: C_20  and  N_66
REMARK    8  A    between atoms: C_21  and  C_22
REMARK    9  A    between atoms: C_21  and  N_66
REMARK   10  A    between atoms: C_25  and  O_29
REMARK   11  A    between atoms: C_26  and  O_28
REMARK                            x       y       z     vdW  Elec       q    Type
REMARK                         _______ _______ _______ _____ _____    ______ ____
ROOT
ATOM      1  C   UNL     1      -0.096   1.369  -0.068  0.00  0.00    -0.045 A 
ATOM      2  C   UNL     1       1.089   2.081  -0.077  0.00  0.00    +0.004 A 
ATOM      3  C   UNL     1       2.292   1.407  -0.081  0.00  0.00    +0.005 A 
ATOM      4  C   UNL     1       2.321   0.019  -0.075  0.00  0.00    -0.038 A 
ATOM      5  C   UNL     1       1.143  -0.692  -0.070  0.00  0.00    -0.043 A 
ATOM      6  C   UNL     1      -0.068  -0.010  -0.065  0.00  0.00    +0.007 A 
ATOM      7  C   UNL     1       1.096  -2.198  -0.076  0.00  0.00    +0.036 C 
ATOM      8  C   UNL     1       2.453  -2.785   0.310  0.00  0.00    +0.009 C 
ATOM      9  C   UNL     1       3.528  -2.100  -0.536  0.00  0.00    +0.004 C 
ATOM     10  C   UNL     1       3.673  -0.656  -0.067  0.00  0.00    -0.004 C 
ATOM     11  C   UNL     1       4.222  -0.622   1.363  0.00  0.00    +0.011 C 
ATOM     12  C   UNL     1       5.568  -1.345   1.420  0.00  0.00    +0.001 C 
ATOM     13  C   UNL     1       5.371  -2.805   1.004  0.00  0.00    +0.005 C 
ATOM     14  C   UNL     1       4.851  -2.847  -0.434  0.00  0.00    -0.044 C 
ATOM     15  C   UNL     1       4.645  -4.303  -0.856  0.00  0.00    +0.009 C 
ATOM     16  C   UNL     1       4.628   0.092  -0.999  0.00  0.00    +0.016 C 
ENDROOT
BRANCH   1  18
ATOM     17  C   UNL     1      -1.511   2.977   1.182  0.00  0.00    +0.012 C 
ATOM     18  C   UNL     1      -1.416   2.097  -0.066  0.00  0.00    +0.013 C 
ATOM     19  C   UNL     1      -1.516   2.973  -1.317  0.00  0.00    +0.012 C 
ENDBRANCH   1  18
BRANCH  14  20
ATOM     20  C   UNL     1       5.876  -2.193  -1.363  0.00  0.00    -0.075 C 
BRANCH  20  21
ATOM     21  N   UNL     1       7.098  -3.018  -1.393  0.00  0.00    +0.382 N 
ATOM     22  H   UNL     1       6.864  -3.957  -1.737  0.00  0.00    -0.085 HD
ATOM     23  H   UNL     1       7.483  -3.088  -0.444  0.00  0.00    -0.085 HD
BRANCH  21  24
ATOM     24  C   UNL     1       8.105  -2.410  -2.283  0.00  0.00    -0.047 C 
BRANCH  24  25
ATOM     25  C   UNL     1       9.340  -3.273  -2.293  0.00  0.00    -0.061 A 
ATOM     26  C   UNL     1      10.350  -3.043  -1.377  0.00  0.00    +0.005 A 
ATOM     27  C   UNL     1      11.483  -3.836  -1.379  0.00  0.00    +0.049 A 
ATOM     28  C   UNL     1      11.613  -4.856  -2.307  0.00  0.00    +0.158 A 
ATOM     29  C   UNL     1      10.599  -5.084  -3.233  0.00  0.00    +0.158 A 
ATOM     30  C   UNL     1       9.464  -4.290  -3.222  0.00  0.00    +0.051 A 
BRANCH  29  31
ATOM     31  O   UNL     1      10.722  -6.084  -4.147  0.00  0.00    -0.503 OA
ATOM     32  H   UNL     1      11.146  -5.812  -4.973  0.00  0.00    +0.292 HD
ENDBRANCH  29  31
BRANCH  28  33
ATOM     33  O   UNL     1      12.729  -5.633  -2.314  0.00  0.00    -0.503 OA
ATOM     34  H   UNL     1      13.439  -5.297  -2.878  0.00  0.00    +0.292 HD
ENDBRANCH  28  33
ENDBRANCH  24  25
ENDBRANCH  21  24
ENDBRANCH  20  21
ENDBRANCH  14  20
TORSDOF 7
