REMARK  Name = ZINC24577880
REMARK  7 active torsions:
REMARK  status: ('A' for Active; 'I' for Inactive)
REMARK    1  A    between atoms: C_1  and  C_2
REMARK    2  A    between atoms: C_2  and  C_3
REMARK    3  A    between atoms: C_3  and  C_5
REMARK    4  A    between atoms: C_3  and  C_6
REMARK    5  A    between atoms: C_9  and  N_12
REMARK    6  A    between atoms: C_13  and  C_15
REMARK    7  A    between atoms: C_16  and  C_26
REMARK                            x       y       z     vdW  Elec       q    Type
REMARK                         _______ _______ _______ _____ _____    ______ ____
ROOT
ATOM      1  N   UNL     1      -4.959   3.248   5.697  0.00  0.00    -0.280 N 
ATOM      2  C   UNL     1      -4.580   2.941   6.954  0.00  0.00    +0.265 C 
ATOM      3  O   UNL     1      -3.585   2.267   7.142  0.00  0.00    -0.268 OA
ATOM      4  H   UNL     1      -5.807   3.928   5.529  0.00  0.00    +0.155 HD
ENDROOT
BRANCH   2   5
ATOM      5  C   UNL     1      -5.369   3.421   8.096  0.00  0.00    +0.106 A 
ATOM      6  C   UNL     1      -5.094   3.181   9.414  0.00  0.00    -0.010 A 
ATOM      7  C   UNL     1      -6.096   3.821  10.154  0.00  0.00    +0.042 A 
ATOM      8  C   UNL     1      -6.962   4.437   9.251  0.00  0.00    +0.027 A 
ATOM      9  N   UNL     1      -6.511   4.195   8.020  0.00  0.00    -0.354 N 
ATOM     10  H   UNL     1      -6.900   4.508   7.040  0.00  0.00    +0.166 HD
ATOM     11  C   UNL     1      -8.172   5.224   9.686  0.00  0.00    +0.054 C 
ATOM     12  C   UNL     1      -8.558   4.811  11.109  0.00  0.00    +0.014 C 
ATOM     13  C   UNL     1      -7.354   4.919  12.049  0.00  0.00    +0.080 C 
ATOM     14  C   UNL     1      -6.307   3.906  11.607  0.00  0.00    +0.165 C 
ATOM     15  O   UNL     1      -5.692   3.220  12.396  0.00  0.00    -0.292 OA
ATOM     16  C   UNL     1      -3.939   2.384   9.962  0.00  0.00    +0.047 C 
ENDBRANCH   2   5
BRANCH   1  20
ATOM     17  C   UNL     1      -2.917   1.620   2.452  0.00  0.00    -0.044 A 
ATOM     18  C   UNL     1      -3.064   0.885   3.614  0.00  0.00    +0.006 A 
ATOM     19  C   UNL     1      -3.735   1.424   4.694  0.00  0.00    +0.023 A 
ATOM     20  C   UNL     1      -4.274   2.701   4.608  0.00  0.00    +0.034 A 
ATOM     21  C   UNL     1      -4.129   3.435   3.437  0.00  0.00    +0.023 A 
ATOM     22  C   UNL     1      -3.451   2.893   2.363  0.00  0.00    +0.006 A 
BRANCH  17  23
ATOM     23  C   UNL     1      -2.179   1.031   1.278  0.00  0.00    +0.016 C 
ATOM     24  C   UNL     1      -2.881  -0.251   0.825  0.00  0.00    +0.012 C 
BRANCH  23  26
ATOM     25  C   UNL     1       0.043   0.227   0.467  0.00  0.00    +0.004 C 
ATOM     26  C   UNL     1      -0.741   0.708   1.689  0.00  0.00    +0.004 C 
ENDBRANCH  23  26
ENDBRANCH  17  23
ENDBRANCH   1  20
TORSDOF 4
