REMARK  Name = ZINC09353130
REMARK  8 active torsions:
REMARK  status: ('A' for Active; 'I' for Inactive)
REMARK    1  A    between atoms: C_1  and  N_2
REMARK    2  A    between atoms: N_2  and  C_3
REMARK    3  A    between atoms: N_2  and  C_4
REMARK    4  A    between atoms: C_4  and  C_5
REMARK    5  A    between atoms: C_5  and  N_6
REMARK    6  A    between atoms: C_13  and  C_26
REMARK    7  A    between atoms: C_29  and  O_32
REMARK    8  A    between atoms: O_32  and  C_33
REMARK                            x       y       z     vdW  Elec       q    Type
REMARK                         _______ _______ _______ _____ _____    ______ ____
ROOT
ATOM      1  N   UNL     1      -2.733  -2.544  -0.111  0.00  0.00    -0.320 N 
ATOM      2  C   UNL     1      -3.331  -2.877   1.060  0.00  0.00    +0.204 A 
ATOM      3  N   UNL     1      -4.551  -3.330   1.097  0.00  0.00    -0.202 NA
ATOM      4  C   UNL     1      -5.287  -3.493  -0.018  0.00  0.00    +0.229 A 
ATOM      5  C   UNL     1      -4.757  -3.179  -1.232  0.00  0.00    +0.066 A 
ATOM      6  C   UNL     1      -3.435  -2.681  -1.293  0.00  0.00    +0.115 A 
ATOM      7  N   UNL     1      -2.885  -2.361  -2.447  0.00  0.00    -0.384 N 
ATOM      8  C   UNL     1      -5.553  -3.346  -2.495  0.00  0.00    +0.091 C 
ATOM      9  C   UNL     1      -6.729  -4.257  -2.259  0.00  0.00    +0.008 A 
ATOM     10  C   UNL     1      -7.371  -4.830  -3.358  0.00  0.00    +0.009 A 
ATOM     11  C   UNL     1      -8.438  -5.659  -3.203  0.00  0.00    +0.009 A 
ATOM     12  C   UNL     1      -8.909  -5.952  -1.911  0.00  0.00    -0.014 A 
ATOM     13  C   UNL     1     -10.010  -6.802  -1.711  0.00  0.00    +0.008 A 
ATOM     14  C   UNL     1     -10.436  -7.064  -0.445  0.00  0.00    +0.001 A 
ATOM     15  C   UNL     1      -9.797  -6.499   0.658  0.00  0.00    +0.001 A 
ATOM     16  C   UNL     1      -8.729  -5.669   0.500  0.00  0.00    +0.012 A 
ATOM     17  C   UNL     1      -8.262  -5.377  -0.791  0.00  0.00    +0.025 A 
ATOM     18  C   UNL     1      -7.159  -4.518  -0.990  0.00  0.00    +0.142 A 
ATOM     19  O   UNL     1      -6.548  -3.966   0.084  0.00  0.00    -0.437 OA
ATOM     20  H   UNL     1      -1.976  -2.024  -2.474  0.00  0.00    +0.157 HD
ATOM     21  H   UNL     1      -3.389  -2.463  -3.269  0.00  0.00    +0.157 HD
ENDROOT
BRANCH   8  22
ATOM     22  C   UNL     1      -6.054  -2.000  -2.950  0.00  0.00    -0.035 A 
ATOM     23  C   UNL     1      -6.875  -1.254  -2.125  0.00  0.00    +0.008 A 
ATOM     24  C   UNL     1      -7.337  -0.020  -2.540  0.00  0.00    +0.046 A 
ATOM     25  C   UNL     1      -6.975   0.472  -3.786  0.00  0.00    +0.120 A 
ATOM     26  C   UNL     1      -6.150  -0.278  -4.612  0.00  0.00    +0.046 A 
ATOM     27  C   UNL     1      -5.687  -1.510  -4.190  0.00  0.00    +0.008 A 
BRANCH  25  28
ATOM     28  O   UNL     1      -7.428   1.685  -4.197  0.00  0.00    -0.495 OA
ATOM     29  C   UNL     1      -7.015   2.128  -5.491  0.00  0.00    +0.277 C 
ENDBRANCH  25  28
ENDBRANCH   8  22
BRANCH   1  30
ATOM     30  C   UNL     1      -1.358  -2.037  -0.122  0.00  0.00    +0.106 C 
BRANCH  30  31
ATOM     31  C   UNL     1      -1.376  -0.512   0.012  0.00  0.00    -0.058 C 
BRANCH  31  33
ATOM     32  C   UNL     1      -0.018   1.465   0.010  0.00  0.00    -0.097 C 
ATOM     33  N   UNL     1       0.002  -0.004   0.002  0.00  0.00    +0.377 N 
ATOM     34  C   UNL     1       0.713  -0.491   1.192  0.00  0.00    -0.097 C 
ATOM     35  H   UNL     1       0.474  -0.330  -0.828  0.00  0.00    -0.083 HD
ENDBRANCH  31  33
ENDBRANCH  30  31
ENDBRANCH   1  30
TORSDOF 5
