REMARK  Name = ZINC48545652
REMARK  8 active torsions:
REMARK  status: ('A' for Active; 'I' for Inactive)
REMARK    1  A    between atoms: C_1  and  C_2
REMARK    2  A    between atoms: C_2  and  O_3
REMARK    3  A    between atoms: O_3  and  C_4
REMARK    4  A    between atoms: C_4  and  C_6
REMARK    5  A    between atoms: C_7  and  C_30
REMARK    6  A    between atoms: C_11  and  C_13
REMARK    7  A    between atoms: C_26  and  C_28
REMARK    8  A    between atoms: C_26  and  C_29
REMARK                            x       y       z     vdW  Elec       q    Type
REMARK                         _______ _______ _______ _____ _____    ______ ____
ROOT
ATOM      1  C   UNL     1       1.418  -2.458  -2.623  0.00  0.00    +0.065 C 
ATOM      2  C   UNL     1       1.858  -3.724  -2.733  0.00  0.00    +0.016 C 
ATOM      3  N   UNL     1       2.583  -4.112  -3.824  0.00  0.00    -0.321 N 
ATOM      4  C   UNL     1       2.545  -3.384  -4.983  0.00  0.00    +0.016 C 
ATOM      5  C   UNL     1       2.135  -2.098  -4.970  0.00  0.00    +0.024 C 
ATOM      6  C   UNL     1       1.708  -1.438  -3.685  0.00  0.00    +0.097 C 
ATOM      7  C   UNL     1       2.094  -1.337  -6.152  0.00  0.00    +0.162 C 
ATOM      8  O   UNL     1       1.704  -0.187  -6.108  0.00  0.00    -0.292 OA
ATOM      9  C   UNL     1       2.524  -1.922  -7.470  0.00  0.00    +0.086 C 
ATOM     10  C   UNL     1       3.570  -3.011  -7.214  0.00  0.00    -0.023 C 
ATOM     11  C   UNL     1       2.966  -4.052  -6.268  0.00  0.00    +0.058 C 
ATOM     12  C   UNL     1       4.812  -2.391  -6.570  0.00  0.00    +0.011 C 
ATOM     13  C   UNL     1       3.951  -3.679  -8.537  0.00  0.00    +0.011 C 
ATOM     14  C   UNL     1       1.549  -4.720  -1.645  0.00  0.00    +0.061 C 
ATOM     15  H   UNL     1       3.131  -4.912  -3.777  0.00  0.00    +0.152 HD
ENDROOT
BRANCH   6  16
ATOM     16  C   UNL     1       2.813  -0.530  -3.210  0.00  0.00    +0.024 A 
ATOM     17  C   UNL     1       2.598   0.833  -3.121  0.00  0.00    +0.026 A 
ATOM     18  C   UNL     1       3.610   1.669  -2.686  0.00  0.00    +0.019 A 
ATOM     19  C   UNL     1       4.841   1.144  -2.337  0.00  0.00    +0.050 A 
ATOM     20  C   UNL     1       5.063  -0.220  -2.423  0.00  0.00    +0.167 A 
ATOM     21  C   UNL     1       4.042  -1.063  -2.856  0.00  0.00    +0.171 A 
ATOM     22  O   UNL     1       4.503  -2.348  -2.846  0.00  0.00    -0.452 OA
ATOM     23  C   UNL     1       5.938  -2.241  -2.788  0.00  0.00    +0.466 C 
ATOM     24  O   UNL     1       6.165  -0.977  -2.144  0.00  0.00    -0.453 OA
ATOM     25 BR   UNL     1       0.917   1.557  -3.598  0.00  0.00    -0.050 Br
ENDBRANCH   6  16
BRANCH   1  26
ATOM     26  C   UNL     1       0.662  -2.083  -1.488  0.00  0.00    +0.338 C 
ATOM     27  O   UNL     1       0.311  -2.926  -0.685  0.00  0.00    -0.245 OA
BRANCH  26  28
ATOM     28  O   UNL     1       0.330  -0.789  -1.297  0.00  0.00    -0.462 OA
BRANCH  28  30
ATOM     29  C   UNL     1      -0.713   1.023  -0.084  0.00  0.00    +0.048 C 
ATOM     30  C   UNL     1      -0.435  -0.481  -0.130  0.00  0.00    +0.229 C 
ENDBRANCH  28  30
ENDBRANCH  26  28
ENDBRANCH   1  26
TORSDOF 4
