REMARK  Name = ZINC63271582
REMARK  5 active torsions:
REMARK  status: ('A' for Active; 'I' for Inactive)
REMARK    1  A    between atoms: C_4  and  C_7
REMARK    2  A    between atoms: C_7  and  N_8
REMARK    3  A    between atoms: C_9  and  C_11
REMARK    4  A    between atoms: C_11  and  C_12
REMARK    5  A    between atoms: C_12  and  N_13
REMARK                            x       y       z     vdW  Elec       q    Type
REMARK                         _______ _______ _______ _____ _____    ______ ____
ROOT
ATOM      1  N   UNL     1       7.543  -2.840   4.341  0.00  0.00    -0.299 N 
ATOM      2  C   UNL     1       8.699  -3.493   4.572  0.00  0.00    +0.302 C 
ATOM      3  O   UNL     1       9.331  -3.958   3.643  0.00  0.00    -0.253 OA
ATOM      4  N   UNL     1       9.155  -3.630   5.833  0.00  0.00    -0.283 N 
ATOM      5  C   UNL     1       8.329  -3.175   6.957  0.00  0.00    +0.114 C 
ATOM      6  C   UNL     1       8.071  -4.353   7.914  0.00  0.00    +0.052 C 
ATOM      7  C   UNL     1       9.396  -5.048   8.111  0.00  0.00    -0.036 C 
ATOM      8  C   UNL     1      10.051  -5.393   9.213  0.00  0.00    -0.001 A 
ATOM      9  C   UNL     1       9.679  -5.325  10.635  0.00  0.00    +0.010 A 
ATOM     10  C   UNL     1      10.617  -5.754  11.521  0.00  0.00    +0.001 A 
ATOM     11  C   UNL     1      11.872  -6.238  11.139  0.00  0.00    +0.002 A 
ATOM     12  C   UNL     1      12.294  -6.343   9.853  0.00  0.00    +0.026 A 
ATOM     13  C   UNL     1      11.392  -5.931   8.830  0.00  0.00    +0.043 A 
ATOM     14  N   UNL     1      11.524  -5.944   7.537  0.00  0.00    -0.376 N 
ATOM     15  C   UNL     1      10.271  -5.479   6.940  0.00  0.00    +0.124 C 
ATOM     16  C   UNL     1      10.473  -4.241   6.069  0.00  0.00    +0.138 C 
ATOM     17  H   UNL     1       7.002  -2.533   5.085  0.00  0.00    +0.150 HD
ATOM     18  H   UNL     1      12.318  -6.215   7.050  0.00  0.00    +0.160 HD
ENDROOT
BRANCH   1  19
ATOM     19  C   UNL     1       7.102  -2.595   2.965  0.00  0.00    +0.115 C 
BRANCH  19  20
ATOM     20  C   UNL     1       5.770  -1.843   2.982  0.00  0.00    +0.114 C 
BRANCH  20  22
ATOM     21  N   UNL     1       4.161  -0.938   1.336  0.00  0.00    -0.311 N 
ATOM     22  C   UNL     1       5.317  -1.591   1.567  0.00  0.00    +0.215 C 
ATOM     23  O   UNL     1       5.993  -1.975   0.637  0.00  0.00    -0.276 OA
ATOM     24  H   UNL     1       3.620  -0.631   2.080  0.00  0.00    +0.149 HD
BRANCH  21  25
ATOM     25  C   UNL     1       3.721  -0.693  -0.040  0.00  0.00    +0.139 C 
BRANCH  25  29
ATOM     26  C   UNL     1       0.002   1.408   0.006  0.00  0.00    +0.000 A 
ATOM     27  C   UNL     1       1.193   2.110  -0.003  0.00  0.00    +0.000 A 
ATOM     28  C   UNL     1       2.396   1.430  -0.018  0.00  0.00    +0.005 A 
ATOM     29  C   UNL     1       2.409   0.048  -0.023  0.00  0.00    -0.030 A 
ATOM     30  C   UNL     1       1.218  -0.654  -0.013  0.00  0.00    +0.005 A 
ATOM     31  C   UNL     1       0.015   0.026   0.001  0.00  0.00    +0.000 A 
ENDBRANCH  25  29
ENDBRANCH  21  25
ENDBRANCH  20  22
ENDBRANCH  19  20
ENDBRANCH   1  19
TORSDOF 5
