REMARK  Name = ZINC00636860
REMARK  8 active torsions:
REMARK  status: ('A' for Active; 'I' for Inactive)
REMARK    1  A    between atoms: C_1  and  C_2
REMARK    2  A    between atoms: C_2  and  O_3
REMARK    3  A    between atoms: O_3  and  C_4
REMARK    4  A    between atoms: C_4  and  C_6
REMARK    5  A    between atoms: C_7  and  C_30
REMARK    6  A    between atoms: C_11  and  C_13
REMARK    7  A    between atoms: C_26  and  C_28
REMARK    8  A    between atoms: C_26  and  C_29
REMARK                            x       y       z     vdW  Elec       q    Type
REMARK                         _______ _______ _______ _____ _____    ______ ____
ROOT
ATOM      1  C   UNL     1      -1.777   2.835   3.482  0.00  0.00    +0.065 C 
ATOM      2  C   UNL     1      -0.458   2.599   3.378  0.00  0.00    +0.016 C 
ATOM      3  N   UNL     1       0.028   1.810   2.374  0.00  0.00    -0.321 N 
ATOM      4  C   UNL     1      -0.718   1.572   1.250  0.00  0.00    +0.016 C 
ATOM      5  C   UNL     1      -2.052   1.772   1.260  0.00  0.00    +0.024 C 
ATOM      6  C   UNL     1      -2.752   2.241   2.510  0.00  0.00    +0.093 C 
ATOM      7  C   UNL     1      -2.828   1.546   0.109  0.00  0.00    +0.162 C 
ATOM      8  O   UNL     1      -4.028   1.725   0.154  0.00  0.00    -0.292 OA
ATOM      9  C   UNL     1      -2.197   1.087  -1.178  0.00  0.00    +0.086 C 
ATOM     10  C   UNL     1      -0.752   1.592  -1.233  0.00  0.00    -0.023 C 
ATOM     11  C   UNL     1      -0.013   1.086   0.008  0.00  0.00    +0.058 C 
ATOM     12  C   UNL     1      -0.742   3.122  -1.248  0.00  0.00    +0.011 C 
ATOM     13  C   UNL     1      -0.065   1.061  -2.493  0.00  0.00    +0.011 C 
ATOM     14  C   UNL     1       0.492   3.208   4.378  0.00  0.00    +0.061 C 
ATOM     15  H   UNL     1       1.027   1.359   2.463  0.00  0.00    +0.152 HD
ENDROOT
BRANCH   6  16
ATOM     16  C   UNL     1      -3.445   1.070   3.159  0.00  0.00    -0.018 A 
ATOM     17  C   UNL     1      -2.709  -0.027   3.567  0.00  0.00    +0.055 A 
ATOM     18  C   UNL     1      -3.343  -1.102   4.168  0.00  0.00    +0.167 A 
ATOM     19  C   UNL     1      -4.724  -1.080   4.349  0.00  0.00    +0.167 A 
ATOM     20  C   UNL     1      -5.456   0.020   3.933  0.00  0.00    +0.065 A 
ATOM     21  C   UNL     1      -4.816   1.093   3.339  0.00  0.00    +0.026 A 
ATOM     22 BR   UNL     1      -5.817   2.593   2.771  0.00  0.00    -0.050 Br
ATOM     23  O   UNL     1      -5.104  -2.245   4.950  0.00  0.00    -0.453 OA
ATOM     24  C   UNL     1      -3.898  -2.803   5.504  0.00  0.00    +0.466 C 
ATOM     25  O   UNL     1      -2.858  -2.282   4.655  0.00  0.00    -0.453 OA
ENDBRANCH   6  16
BRANCH   1  26
ATOM     26  C   UNL     1      -2.255   3.661   4.527  0.00  0.00    +0.338 C 
ATOM     27  O   UNL     1      -1.473   4.149   5.322  0.00  0.00    -0.245 OA
BRANCH  26  28
ATOM     28  O   UNL     1      -3.577   3.906   4.642  0.00  0.00    -0.462 OA
BRANCH  28  30
ATOM     29  C   UNL     1      -5.509   4.911   5.689  0.00  0.00    +0.048 C 
ATOM     30  C   UNL     1      -3.988   4.748   5.721  0.00  0.00    +0.229 C 
ENDBRANCH  28  30
ENDBRANCH  26  28
ENDBRANCH   1  26
TORSDOF 4
