REMARK  Name = ZINC35929972
REMARK  5 active torsions:
REMARK  status: ('A' for Active; 'I' for Inactive)
REMARK    1  A    between atoms: C_5  and  N_7
REMARK    2  A    between atoms: C_8  and  N_31
REMARK    3  A    between atoms: C_10  and  C_24
REMARK    4  A    between atoms: N_16  and  C_17
REMARK    5  A    between atoms: C_17  and  C_18
REMARK                            x       y       z     vdW  Elec       q    Type
REMARK                         _______ _______ _______ _____ _____    ______ ____
ROOT
ATOM      1  N   UNL     1       1.177  -2.159  -0.280  0.00  0.00    -0.215 N 
ATOM      2  C   UNL     1       0.145  -2.913   0.146  0.00  0.00    +0.131 A 
ATOM      3  C   UNL     1       0.640  -4.182   0.422  0.00  0.00    +0.086 A 
ATOM      4  C   UNL     1       0.098  -5.400   0.889  0.00  0.00    +0.089 A 
ATOM      5  N   UNL     1       0.914  -6.437   1.034  0.00  0.00    -0.214 NA
ATOM      6  C   UNL     1       2.212  -6.360   0.754  0.00  0.00    +0.218 A 
ATOM      7  N   UNL     1       2.799  -5.265   0.315  0.00  0.00    -0.193 NA
ATOM      8  C   UNL     1       2.084  -4.140   0.124  0.00  0.00    +0.189 A 
ATOM      9  N   UNL     1       2.351  -2.922  -0.294  0.00  0.00    -0.144 NA
ATOM     10  N   UNL     1       2.988  -7.490   0.935  0.00  0.00    -0.308 N 
ATOM     11  H   UNL     1       2.583  -8.311   1.258  0.00  0.00    +0.149 HD
ENDROOT
BRANCH   1  16
ATOM     12  C   UNL     1      -0.174   1.218  -0.822  0.00  0.00    +0.002 A 
ATOM     13  C   UNL     1       0.911   1.844  -1.409  0.00  0.00    +0.002 A 
ATOM     14  C   UNL     1       2.085   1.145  -1.621  0.00  0.00    +0.022 A 
ATOM     15  C   UNL     1       2.177  -0.183  -1.248  0.00  0.00    +0.066 A 
ATOM     16  C   UNL     1       1.088  -0.814  -0.659  0.00  0.00    +0.086 A 
ATOM     17  C   UNL     1      -0.089  -0.108  -0.447  0.00  0.00    +0.029 A 
ATOM     18 CL   UNL     1       3.651  -1.061  -1.516  0.00  0.00    -0.081 Cl
ENDBRANCH   1  16
BRANCH   4  19
ATOM     19  C   UNL     1      -1.342  -5.518   1.209  0.00  0.00    +0.001 A 
ATOM     20  C   UNL     1      -2.298  -5.020   0.324  0.00  0.00    +0.013 A 
ATOM     21  C   UNL     1      -3.639  -5.132   0.626  0.00  0.00    +0.039 A 
ATOM     22  C   UNL     1      -4.037  -5.737   1.808  0.00  0.00    +0.123 A 
ATOM     23  C   UNL     1      -3.090  -6.232   2.692  0.00  0.00    +0.039 A 
ATOM     24  C   UNL     1      -1.748  -6.131   2.396  0.00  0.00    +0.013 A 
ATOM     25  F   UNL     1      -5.351  -5.843   2.101  0.00  0.00    -0.205 F 
ENDBRANCH   4  19
BRANCH   2  26
ATOM     26  N   UNL     1      -1.166  -2.500   0.284  0.00  0.00    -0.342 N 
ATOM     27  H   UNL     1      -1.594  -1.997  -0.427  0.00  0.00    +0.144 HD
ATOM     28  H   UNL     1      -1.660  -2.713   1.092  0.00  0.00    +0.144 HD
ENDBRANCH   2  26
BRANCH  10  29
ATOM     29  C   UNL     1       4.422  -7.449   0.639  0.00  0.00    +0.160 C 
BRANCH  29  30
ATOM     30  C   UNL     1       5.032  -8.799   0.917  0.00  0.00    +0.058 A 
ATOM     31  C   UNL     1       5.184  -9.706  -0.115  0.00  0.00    +0.025 A 
ATOM     32  C   UNL     1       5.745 -10.945   0.152  0.00  0.00    +0.003 A 
ATOM     33  C   UNL     1       6.135 -11.227   1.453  0.00  0.00    +0.020 A 
ATOM     34  C   UNL     1       5.951 -10.271   2.433  0.00  0.00    +0.111 A 
ATOM     35  N   UNL     1       5.418  -9.100   2.142  0.00  0.00    -0.258 NA
ENDBRANCH  29  30
ENDBRANCH  10  29
TORSDOF 5
