REMARK  Name = ZINC05731574
REMARK  3 active torsions:
REMARK  status: ('A' for Active; 'I' for Inactive)
REMARK    1  A    between atoms: C_8  and  C_11
REMARK    2  A    between atoms: C_12  and  O_24
REMARK    3  A    between atoms: N_16  and  C_17
REMARK                            x       y       z     vdW  Elec       q    Type
REMARK                         _______ _______ _______ _____ _____    ______ ____
ROOT
ATOM      1  C   UNL     1       2.367   0.088  -0.010  0.00  0.00    +0.089 A 
ATOM      2  C   UNL     1       1.103  -0.687   0.023  0.00  0.00    +0.229 A 
ATOM      3  N   UNL     1       0.001  -0.004   0.034  0.00  0.00    -0.190 NA
ATOM      4  C   UNL     1      -0.016   1.330   0.016  0.00  0.00    +0.167 A 
ATOM      5  S   UNL     1       1.718   1.756  -0.021  0.00  0.00    -0.048 S 
ATOM      6  N   UNL     1      -1.094   2.163   0.019  0.00  0.00    -0.294 N 
ATOM      7  H   UNL     1      -0.965   3.122   0.092  0.00  0.00    +0.154 HD
ENDROOT
BRANCH   1  15
ATOM      8  C   UNL     1       6.453   2.291  -0.114  0.00  0.00    +0.001 A 
ATOM      9  C   UNL     1       7.510   1.395  -0.122  0.00  0.00    +0.002 A 
ATOM     10  C   UNL     1       7.283   0.033  -0.099  0.00  0.00    +0.026 A 
ATOM     11  C   UNL     1       5.975  -0.459  -0.069  0.00  0.00    +0.065 A 
ATOM     12  N   UNL     1       5.486  -1.727  -0.044  0.00  0.00    -0.176 NA
ATOM     13  C   UNL     1       4.167  -1.760  -0.019  0.00  0.00    +0.270 C 
ATOM     14  O   UNL     1       3.474  -2.764   0.007  0.00  0.00    -0.268 OA
ATOM     15  C   UNL     1       3.674  -0.352  -0.028  0.00  0.00    +0.067 C 
ATOM     16  C   UNL     1       4.903   0.462  -0.067  0.00  0.00    +0.011 A 
ATOM     17  C   UNL     1       5.150   1.830  -0.084  0.00  0.00    +0.010 A 
ENDBRANCH   1  15
BRANCH   6  18
ATOM     18  C   UNL     1      -2.385   1.637  -0.082  0.00  0.00    +0.033 A 
ATOM     19  C   UNL     1      -2.589   0.409  -0.699  0.00  0.00    +0.026 A 
ATOM     20  C   UNL     1      -3.864  -0.111  -0.793  0.00  0.00    +0.040 A 
ATOM     21  C   UNL     1      -4.941   0.596  -0.283  0.00  0.00    +0.124 A 
ATOM     22  C   UNL     1      -4.741   1.823   0.327  0.00  0.00    +0.040 A 
ATOM     23  C   UNL     1      -3.466   2.344   0.428  0.00  0.00    +0.026 A 
ATOM     24  F   UNL     1      -6.189   0.087  -0.381  0.00  0.00    -0.205 F 
ENDBRANCH   6  18
BRANCH   2  25
ATOM     25  O   UNL     1       1.101  -2.036   0.041  0.00  0.00    -0.492 OA
ATOM     26  H   UNL     1       1.084  -2.441  -0.837  0.00  0.00    +0.294 HD
ENDBRANCH   2  25
TORSDOF 3
