REMARK  Name = ZINC53533937
REMARK  6 active torsions:
REMARK  status: ('A' for Active; 'I' for Inactive)
REMARK    1  A    between atoms: C_3  and  C_6
REMARK    2  A    between atoms: C_6  and  C_8
REMARK    3  A    between atoms: C_6  and  N_25
REMARK    4  A    between atoms: C_8  and  N_9
REMARK    5  A    between atoms: C_15  and  C_18
REMARK    6  A    between atoms: C_21  and  O_24
REMARK                            x       y       z     vdW  Elec       q    Type
REMARK                         _______ _______ _______ _____ _____    ______ ____
ROOT
ATOM      1  N   UNL     1       5.452   0.061   1.488  0.00  0.00    -0.300 N 
ATOM      2  C   UNL     1       6.031  -0.300   2.651  0.00  0.00    +0.302 C 
ATOM      3  O   UNL     1       5.391  -0.265   3.685  0.00  0.00    -0.253 OA
ATOM      4  N   UNL     1       7.318  -0.700   2.668  0.00  0.00    -0.282 N 
ATOM      5  C   UNL     1       7.945  -1.210   3.900  0.00  0.00    +0.114 C 
ATOM      6  C   UNL     1       8.360  -2.662   3.650  0.00  0.00    +0.054 C 
ATOM      7  C   UNL     1       9.047  -2.789   2.323  0.00  0.00    -0.041 C 
ATOM      8  C   UNL     1       8.953  -1.911   1.353  0.00  0.00    -0.004 C 
ATOM      9  C   UNL     1       8.150  -0.649   1.458  0.00  0.00    +0.137 C 
ATOM     10  H   UNL     1       5.981   0.100   0.676  0.00  0.00    +0.150 HD
ENDROOT
BRANCH   7  11
ATOM     11  C   UNL     1       9.884  -3.985   2.091  0.00  0.00    -0.022 A 
ATOM     12  C   UNL     1       9.300  -5.251   2.046  0.00  0.00    +0.012 A 
ATOM     13  C   UNL     1      10.085  -6.364   1.830  0.00  0.00    +0.046 A 
ATOM     14  C   UNL     1      11.456  -6.225   1.658  0.00  0.00    +0.117 A 
ATOM     15  C   UNL     1      12.041  -4.967   1.702  0.00  0.00    +0.046 A 
ATOM     16  C   UNL     1      11.262  -3.849   1.912  0.00  0.00    +0.012 A 
BRANCH  14  17
ATOM     17  O   UNL     1      12.226  -7.324   1.445  0.00  0.00    -0.507 OA
ATOM     18  H   UNL     1      12.331  -7.556   0.512  0.00  0.00    +0.292 HD
ENDBRANCH  14  17
ENDBRANCH   7  11
BRANCH   1  19
ATOM     19  C   UNL     1       4.026   0.394   1.452  0.00  0.00    +0.098 C 
BRANCH  19  20
ATOM     20  C   UNL     1       3.599   0.647   0.005  0.00  0.00    +0.016 C 
BRANCH  20  21
ATOM     21  N   UNL     1       2.146   0.858  -0.047  0.00  0.00    +0.387 N 
ATOM     22  C   UNL     1       1.688   0.930  -1.458  0.00  0.00    -0.078 C 
ATOM     23  C   UNL     1       0.181   0.583  -1.361  0.00  0.00    -0.020 C 
ATOM     24  C   UNL     1       0.147  -0.504  -0.262  0.00  0.00    -0.020 C 
ATOM     25  C   UNL     1       1.442  -0.300   0.547  0.00  0.00    -0.078 C 
ATOM     26  H   UNL     1       1.899   1.704   0.444  0.00  0.00    -0.081 HD
ENDBRANCH  20  21
BRANCH  20  29
ATOM     27  C   UNL     1       5.713   3.231  -1.557  0.00  0.00    +0.041 A 
ATOM     28  C   UNL     1       5.393   1.876  -1.307  0.00  0.00    +0.043 A 
ATOM     29  C   UNL     1       4.302   1.872  -0.519  0.00  0.00    +0.093 A 
ATOM     30  O   UNL     1       3.947   3.145  -0.280  0.00  0.00    -0.469 OA
ATOM     31  C   UNL     1       4.799   3.973  -0.906  0.00  0.00    +0.195 A 
ENDBRANCH  20  29
ENDBRANCH  19  20
ENDBRANCH   1  19
TORSDOF 6
