REMARK  Name = ZINC58202401
REMARK  7 active torsions:
REMARK  status: ('A' for Active; 'I' for Inactive)
REMARK    1  A    between atoms: C_1  and  C_2
REMARK    2  A    between atoms: C_7  and  C_10
REMARK    3  A    between atoms: C_10  and  N_12
REMARK    4  A    between atoms: N_21  and  C_22
REMARK    5  A    between atoms: C_22  and  C_23
REMARK    6  A    between atoms: C_22  and  C_24
REMARK    7  A    between atoms: C_22  and  C_25
REMARK                            x       y       z     vdW  Elec       q    Type
REMARK                         _______ _______ _______ _____ _____    ______ ____
ROOT
ATOM      1  N   UNL     1      -4.342  -4.702   0.002  0.00  0.00    -0.141 NA
ATOM      2  C   UNL     1      -5.369  -5.535  -0.098  0.00  0.00    +0.202 A 
ATOM      3  N   UNL     1      -5.285  -6.893  -0.111  0.00  0.00    -0.326 N 
ATOM      4  C   UNL     1      -6.572  -7.409  -0.228  0.00  0.00    +0.066 A 
ATOM      5  C   UNL     1      -7.072  -8.702  -0.289  0.00  0.00    +0.028 A 
ATOM      6  C   UNL     1      -8.431  -8.909  -0.408  0.00  0.00    +0.002 A 
ATOM      7  C   UNL     1      -9.300  -7.832  -0.466  0.00  0.00    +0.002 A 
ATOM      8  C   UNL     1      -8.813  -6.542  -0.406  0.00  0.00    +0.028 A 
ATOM      9  C   UNL     1      -7.447  -6.322  -0.286  0.00  0.00    +0.068 A 
ATOM     10  N   UNL     1      -6.676  -5.168  -0.198  0.00  0.00    -0.306 N 
ATOM     11  H   UNL     1      -4.468  -7.413  -0.050  0.00  0.00    +0.169 HD
ENDROOT
BRANCH  10  12
ATOM     12  C   UNL     1      -7.183  -3.793  -0.214  0.00  0.00    +0.040 C 
ATOM     13  C   UNL     1      -6.011  -2.816  -0.100  0.00  0.00    +0.034 C 
ATOM     14  C   UNL     1      -7.932  -3.541  -1.524  0.00  0.00    +0.034 C 
ATOM     15  C   UNL     1      -8.135  -3.588   0.966  0.00  0.00    +0.034 C 
ENDBRANCH  10  12
BRANCH   1  16
ATOM     16  C   UNL     1      -3.089  -5.177  -0.020  0.00  0.00    +0.289 C 
ATOM     17  O   UNL     1      -2.894  -6.380  -0.035  0.00  0.00    -0.266 OA
BRANCH  16  24
ATOM     18  C   UNL     1      -0.024   1.507   0.004  0.00  0.00    +0.109 C 
ATOM     19  C   UNL     1      -0.003   0.000  -0.012  0.00  0.00    +0.216 C 
ATOM     20  O   UNL     1       1.056  -0.591  -0.038  0.00  0.00    -0.276 OA
ATOM     21  N   UNL     1      -1.160  -0.691   0.002  0.00  0.00    -0.265 N 
ATOM     22  C   UNL     1      -1.139  -2.080  -0.013  0.00  0.00    +0.165 A 
ATOM     23  N   UNL     1      -2.149  -2.926  -0.009  0.00  0.00    -0.220 NA
ATOM     24  C   UNL     1      -1.946  -4.243  -0.026  0.00  0.00    +0.137 A 
ATOM     25  C   UNL     1      -0.660  -4.720  -0.048  0.00  0.00    +0.081 A 
ATOM     26  S   UNL     1       0.262  -3.188  -0.052  0.00  0.00    -0.060 S 
ATOM     27  H   UNL     1      -2.006  -0.218   0.023  0.00  0.00    +0.157 HD
ENDBRANCH  16  24
ENDBRANCH   1  16
TORSDOF 3
