REMARK  Name = ZINC39356027
REMARK  8 active torsions:
REMARK  status: ('A' for Active; 'I' for Inactive)
REMARK    1  A    between atoms: C_1  and  C_2
REMARK    2  A    between atoms: C_2  and  C_3
REMARK    3  A    between atoms: C_3  and  C_4
REMARK    4  A    between atoms: C_6  and  C_18
REMARK    5  A    between atoms: C_8  and  C_16
REMARK    6  A    between atoms: C_9  and  N_15
REMARK    7  A    between atoms: C_23  and  O_24
REMARK    8  A    between atoms: O_24  and  C_25
REMARK                            x       y       z     vdW  Elec       q    Type
REMARK                         _______ _______ _______ _____ _____    ______ ____
ROOT
ATOM      1  C   UNL     1       1.198  -1.466  -1.598  0.00  0.00    +0.069 C 
ATOM      2  C   UNL     1       0.466  -2.368  -2.204  0.00  0.00    +0.030 C 
ATOM      3  C   UNL     1      -0.753  -2.295  -3.083  0.00  0.00    +0.101 C 
ATOM      4  C   UNL     1      -0.505  -3.284  -4.206  0.00  0.00    +0.098 C 
ATOM      5  C   UNL     1       0.538  -4.139  -4.181  0.00  0.00    +0.195 C 
ATOM      6  O   UNL     1       1.484  -4.225  -3.228  0.00  0.00    -0.448 OA
ATOM      7  C   UNL     1       1.169  -3.699  -1.936  0.00  0.00    +0.343 C 
ATOM      8  N   UNL     1       2.366  -3.269  -1.206  0.00  0.00    -0.138 NA
ATOM      9  N   UNL     1       2.297  -2.043  -1.049  0.00  0.00    -0.155 NA
ENDROOT
BRANCH   3  10
ATOM     10  C   UNL     1      -0.913  -0.902  -3.637  0.00  0.00    +0.010 A 
ATOM     11  C   UNL     1       0.076  -0.359  -4.436  0.00  0.00    +0.028 A 
ATOM     12  C   UNL     1      -0.069   0.919  -4.944  0.00  0.00    +0.043 A 
ATOM     13  C   UNL     1      -1.204   1.657  -4.655  0.00  0.00    +0.043 A 
ATOM     14  C   UNL     1      -2.195   1.117  -3.857  0.00  0.00    +0.084 A 
ATOM     15  C   UNL     1      -2.054  -0.168  -3.351  0.00  0.00    +0.142 A 
ATOM     16 CL   UNL     1      -3.619   2.042  -3.494  0.00  0.00    -0.080 Cl
ATOM     17 CL   UNL     1       1.174   1.599  -5.947  0.00  0.00    -0.083 Cl
BRANCH  15  18
ATOM     18  O   UNL     1      -3.029  -0.704  -2.570  0.00  0.00    -0.493 OA
ATOM     19  C   UNL     1      -2.913  -0.506  -1.160  0.00  0.00    +0.277 C 
ENDBRANCH  15  18
ENDBRANCH   3  10
BRANCH   5  20
ATOM     20  N   UNL     1       0.647  -5.010  -5.236  0.00  0.00    -0.329 N 
ATOM     21  H   UNL     1      -0.009  -4.990  -5.951  0.00  0.00    +0.145 HD
ATOM     22  H   UNL     1       1.379  -5.645  -5.267  0.00  0.00    +0.145 HD
ENDBRANCH   5  20
BRANCH   4  23
ATOM     23  C   UNL     1      -1.403  -3.312  -5.322  0.00  0.00    +0.101 C 
ATOM     24  N   UNL     1      -2.115  -3.335  -6.207  0.00  0.00    -0.191 NA
ENDBRANCH   4  23
BRANCH   1  25
ATOM     25  C   UNL     1       0.871   0.004  -1.528  0.00  0.00    +0.057 C 
BRANCH  25  27
ATOM     26  C   UNL     1       0.007   1.833  -0.061  0.00  0.00    +0.004 C 
ATOM     27  C   UNL     1       0.349   0.343  -0.130  0.00  0.00    +0.003 C 
ENDBRANCH  25  27
ENDBRANCH   1  25
TORSDOF 6
