REMARK  Name = ZINC17359832
REMARK  6 active torsions:
REMARK  status: ('A' for Active; 'I' for Inactive)
REMARK    1  A    between atoms: C_5  and  N_7
REMARK    2  A    between atoms: N_7  and  S_8
REMARK    3  A    between atoms: S_8  and  C_11
REMARK    4  A    between atoms: C_15  and  C_17
REMARK    5  A    between atoms: N_19  and  N_20
REMARK    6  A    between atoms: C_21  and  C_23
REMARK                            x       y       z     vdW  Elec       q    Type
REMARK                         _______ _______ _______ _____ _____    ______ ____
ROOT
ATOM      1  C   UNL     1       2.405   1.577   0.115  0.00  0.00    +0.109 A 
ATOM      2  C   UNL     1       1.218   2.290   0.141  0.00  0.00    +0.030 A 
ATOM      3  C   UNL     1       0.008   1.627   0.229  0.00  0.00    +0.022 A 
ATOM      4  C   UNL     1      -0.025   0.247   0.292  0.00  0.00    +0.053 A 
ATOM      5  C   UNL     1       1.169  -0.477   0.266  0.00  0.00    +0.058 A 
ATOM      6  C   UNL     1       2.387   0.199   0.176  0.00  0.00    +0.043 A 
ATOM      7 CL   UNL     1      -1.545  -0.584   0.402  0.00  0.00    -0.083 Cl
ENDROOT
BRANCH   5   8
ATOM      8  C   UNL     1       1.143  -1.953   0.332  0.00  0.00    +0.262 C 
ATOM      9  O   UNL     1       0.081  -2.540   0.410  0.00  0.00    -0.269 OA
ATOM     10  N   UNL     1       2.297  -2.650   0.307  0.00  0.00    -0.230 N 
ATOM     11  H   UNL     1       3.145  -2.182   0.245  0.00  0.00    +0.173 HD
BRANCH  10  12
ATOM     12  N   UNL     1       2.273  -4.049   0.370  0.00  0.00    -0.230 N 
ATOM     13  C   UNL     1       3.426  -4.745   0.345  0.00  0.00    +0.260 C 
ATOM     14  O   UNL     1       4.488  -4.159   0.267  0.00  0.00    -0.269 OA
ATOM     15  H   UNL     1       1.425  -4.517   0.432  0.00  0.00    +0.173 HD
BRANCH  13  16
ATOM     16  C   UNL     1       3.400  -6.220   0.412  0.00  0.00    +0.038 A 
ATOM     17  C   UNL     1       2.182  -6.896   0.507  0.00  0.00    +0.016 A 
ATOM     18  C   UNL     1       2.163  -8.273   0.562  0.00  0.00    +0.039 A 
ATOM     19  C   UNL     1       3.352  -8.987   0.536  0.00  0.00    +0.123 A 
ATOM     20  C   UNL     1       4.565  -8.321   0.448  0.00  0.00    +0.039 A 
ATOM     21  C   UNL     1       4.595  -6.944   0.386  0.00  0.00    +0.016 A 
ATOM     22  F   UNL     1       3.328 -10.336   0.597  0.00  0.00    -0.205 F 
ENDBRANCH  13  16
ENDBRANCH  10  12
ENDBRANCH   5   8
BRANCH   1  23
ATOM     23  S   UNL     1       3.941   2.432   0.003  0.00  0.00    +0.072 S 
ATOM     24  O   UNL     1       3.715   3.741   0.508  0.00  0.00    -0.150 OA
ATOM     25  O   UNL     1       4.928   1.566   0.545  0.00  0.00    -0.150 OA
BRANCH  23  26
ATOM     26  N   UNL     1       4.291   2.600  -1.607  0.00  0.00    -0.213 N 
ATOM     27  H   UNL     1       5.100   2.208  -1.971  0.00  0.00    +0.174 HD
BRANCH  26  32
ATOM     28  C   UNL     1       1.888   5.119  -2.788  0.00  0.00    +0.002 A 
ATOM     29  C   UNL     1       1.695   4.707  -4.094  0.00  0.00    +0.003 A 
ATOM     30  C   UNL     1       2.363   3.597  -4.578  0.00  0.00    +0.040 A 
ATOM     31  C   UNL     1       3.225   2.894  -3.756  0.00  0.00    +0.146 A 
ATOM     32  C   UNL     1       3.420   3.308  -2.442  0.00  0.00    +0.083 A 
ATOM     33  C   UNL     1       2.745   4.420  -1.960  0.00  0.00    +0.027 A 
ATOM     34  F   UNL     1       3.876   1.809  -4.228  0.00  0.00    -0.204 F 
ENDBRANCH  26  32
ENDBRANCH  23  26
ENDBRANCH   1  23
TORSDOF 6
