REMARK  Name = ZINC24756113
REMARK  12 active torsions:
REMARK  status: ('A' for Active; 'I' for Inactive)
REMARK    1  A    between atoms: C_1  and  C_2
REMARK    2  A    between atoms: C_2  and  C_4
REMARK    3  A    between atoms: C_7  and  O_10
REMARK    4  A    between atoms: O_10  and  C_11
REMARK    5  A    between atoms: C_11  and  C_12
REMARK    6  A    between atoms: N_14  and  C_15
REMARK    7  A    between atoms: N_14  and  C_23
REMARK    8  A    between atoms: C_15  and  C_16
REMARK    9  A    between atoms: C_16  and  C_17
REMARK   10  A    between atoms: C_24  and  N_39
REMARK   11  A    between atoms: N_25  and  C_32
REMARK   12  A    between atoms: C_32  and  C_33
REMARK                            x       y       z     vdW  Elec       q    Type
REMARK                         _______ _______ _______ _____ _____    ______ ____
ROOT
ATOM      1  C   UNL     1       0.026  -5.066  -5.968  0.00  0.00    +0.258 C 
ATOM      2  O   UNL     1       0.346  -4.261  -6.818  0.00  0.00    -0.272 OA
ATOM      3  N   UNL     1      -0.149  -6.362  -6.298  0.00  0.00    -0.261 N 
ENDROOT
BRANCH   3   4
ATOM      4  C   UNL     1      -0.055  -6.766  -7.647  0.00  0.00    +0.140 A 
ATOM      5  C   UNL     1      -0.960  -6.305  -8.582  0.00  0.00    +0.128 A 
ATOM      6  N   UNL     1      -0.842  -6.716  -9.889  0.00  0.00    -0.276 N 
ATOM      7  C   UNL     1       0.143  -7.557 -10.252  0.00  0.00    +0.331 A 
ATOM      8  O   UNL     1       0.230  -7.908 -11.413  0.00  0.00    -0.246 OA
ATOM      9  N   UNL     1       1.034  -8.015  -9.355  0.00  0.00    -0.273 N 
ATOM     10  H   UNL     1       1.736  -8.620  -9.643  0.00  0.00    +0.173 HD
ATOM     11  C   UNL     1       0.966  -7.640  -8.063  0.00  0.00    +0.277 A 
ATOM     12  O   UNL     1       1.782  -8.058  -7.259  0.00  0.00    -0.266 OA
BRANCH   5  13
ATOM     13  N   UNL     1      -1.967  -5.447  -8.211  0.00  0.00    -0.343 N 
ATOM     14  H   UNL     1      -2.024  -5.133  -7.294  0.00  0.00    +0.144 HD
ATOM     15  H   UNL     1      -2.620  -5.154  -8.865  0.00  0.00    +0.144 HD
ENDBRANCH   5  13
BRANCH   6  16
ATOM     16  C   UNL     1      -1.796  -6.235 -10.892  0.00  0.00    +0.163 C 
BRANCH  16  17
ATOM     17  C   UNL     1      -1.278  -4.961 -11.508  0.00  0.00    -0.028 A 
ATOM     18  C   UNL     1      -1.599  -3.740 -10.945  0.00  0.00    +0.005 A 
ATOM     19  C   UNL     1      -1.124  -2.572 -11.511  0.00  0.00    +0.000 A 
ATOM     20  C   UNL     1      -0.326  -2.624 -12.638  0.00  0.00    +0.000 A 
ATOM     21  C   UNL     1      -0.004  -3.845 -13.201  0.00  0.00    +0.000 A 
ATOM     22  C   UNL     1      -0.475  -5.014 -12.633  0.00  0.00    +0.005 A 
ENDBRANCH  16  17
ENDBRANCH   6  16
ENDBRANCH   3   4
BRANCH   1  23
ATOM     23  C   UNL     1      -0.176  -4.617  -4.543  0.00  0.00    +0.325 C 
BRANCH  23  24
ATOM     24  O   UNL     1       0.066  -3.212  -4.448  0.00  0.00    -0.483 OA
BRANCH  24  28
ATOM     25  C   UNL     1      -0.360  -1.488  -0.726  0.00  0.00    +0.017 A 
ATOM     26  C   UNL     1       0.007  -0.703  -1.826  0.00  0.00    +0.015 A 
ATOM     27  C   UNL     1       0.147  -1.281  -3.062  0.00  0.00    +0.046 A 
ATOM     28  C   UNL     1      -0.074  -2.645  -3.223  0.00  0.00    +0.121 A 
ATOM     29  C   UNL     1      -0.439  -3.429  -2.134  0.00  0.00    +0.046 A 
ATOM     30  C   UNL     1      -0.576  -2.862  -0.893  0.00  0.00    +0.015 A 
BRANCH  25  32
ATOM     31  C   UNL     1      -0.278   0.604   0.776  0.00  0.00    +0.091 C 
ATOM     32  C   UNL     1      -0.511  -0.874   0.599  0.00  0.00    +0.160 C 
ATOM     33  O   UNL     1      -0.824  -1.557   1.552  0.00  0.00    -0.292 OA
ENDBRANCH  25  32
ENDBRANCH  24  28
ENDBRANCH  23  24
ENDBRANCH   1  23
BRANCH   3  34
ATOM     34  C   UNL     1      -0.436  -7.351  -5.256  0.00  0.00    +0.118 C 
BRANCH  34  35
ATOM     35  C   UNL     1      -1.949  -7.452  -5.052  0.00  0.00    +0.050 C 
BRANCH  35  36
ATOM     36  C   UNL     1      -2.245  -8.470  -3.981  0.00  0.00    -0.072 C 
ATOM     37  C   UNL     1      -2.415  -8.044  -2.770  0.00  0.00    -0.028 C 
ATOM     38  C   UNL     1      -2.704  -8.935  -1.598  0.00  0.00    +0.027 C 
ATOM     39  C   UNL     1      -3.183 -10.306  -2.083  0.00  0.00    +0.004 C 
ATOM     40  C   UNL     1      -2.203 -10.812  -3.150  0.00  0.00    +0.005 C 
ATOM     41  C   UNL     1      -2.329  -9.913  -4.384  0.00  0.00    +0.030 C 
ENDBRANCH  35  36
ENDBRANCH  34  35
ENDBRANCH   3  34
TORSDOF 11
