REMARK  Name = ZINC15848669
REMARK  8 active torsions:
REMARK  status: ('A' for Active; 'I' for Inactive)
REMARK    1  A    between atoms: C_1  and  C_2
REMARK    2  A    between atoms: N_13  and  C_35
REMARK    3  A    between atoms: C_14  and  S_16
REMARK    4  A    between atoms: S_16  and  C_17
REMARK    5  A    between atoms: C_17  and  C_19
REMARK    6  A    between atoms: C_17  and  C_20
REMARK    7  A    between atoms: N_22  and  C_23
REMARK    8  A    between atoms: C_35  and  C_36
REMARK                            x       y       z     vdW  Elec       q    Type
REMARK                         _______ _______ _______ _____ _____    ______ ____
ROOT
ATOM      1  S   UNL     1       0.067  -0.058  -0.404  0.00  0.00    -0.075 S 
ENDROOT
BRANCH   1  14
ATOM      2  C   UNL     1       0.739  10.166  -0.058  0.00  0.00    +0.008 C 
ATOM      3  C   UNL     1       0.496   8.703  -0.432  0.00  0.00    -0.009 C 
ATOM      4  C   UNL     1      -0.798   8.210   0.221  0.00  0.00    +0.008 C 
ATOM      5  C   UNL     1      -1.176   6.840  -0.343  0.00  0.00    +0.037 C 
ATOM      6  C   UNL     1       0.024   5.906  -0.212  0.00  0.00    -0.023 A 
ATOM      7  C   UNL     1       1.265   6.401  -0.028  0.00  0.00    -0.004 A 
ATOM      8  S   UNL     1       2.318   4.978   0.067  0.00  0.00    -0.073 S 
ATOM      9  C   UNL     1       1.084   3.719  -0.141  0.00  0.00    +0.117 A 
ATOM     10  C   UNL     1      -0.108   4.450  -0.279  0.00  0.00    +0.076 A 
ATOM     11  C   UNL     1      -1.296   3.675  -0.465  0.00  0.00    +0.263 A 
ATOM     12  O   UNL     1      -2.377   4.223  -0.594  0.00  0.00    -0.267 OA
ATOM     13  N   UNL     1      -1.203   2.333  -0.502  0.00  0.00    -0.283 N 
ATOM     14  C   UNL     1      -0.002   1.702  -0.355  0.00  0.00    +0.174 A 
ATOM     15  N   UNL     1       1.108   2.392  -0.182  0.00  0.00    -0.216 NA
ATOM     16  C   UNL     1       1.662   7.842   0.074  0.00  0.00    +0.046 C 
BRANCH  13  17
ATOM     17  C   UNL     1      -2.415   1.534  -0.698  0.00  0.00    +0.154 C 
BRANCH  17  18
ATOM     18  C   UNL     1      -3.028   1.213   0.641  0.00  0.00    -0.013 C 
ATOM     19  C   UNL     1      -4.277   1.525   0.881  0.00  0.00    +0.005 C 
ENDBRANCH  17  18
ENDBRANCH  13  17
ENDBRANCH   1  14
BRANCH   1  20
ATOM     20  C   UNL     1       1.845  -0.309  -0.172  0.00  0.00    +0.137 C 
ATOM     21  C   UNL     1       2.602   0.267  -1.370  0.00  0.00    +0.029 C 
BRANCH  20  22
ATOM     22  C   UNL     1       2.132  -1.784  -0.056  0.00  0.00    +0.230 C 
ATOM     23  O   UNL     1       1.375  -2.590  -0.554  0.00  0.00    -0.274 OA
ATOM     24  N   UNL     1       3.232  -2.207   0.599  0.00  0.00    -0.285 N 
ATOM     25  H   UNL     1       3.877  -1.562   0.930  0.00  0.00    +0.155 HD
BRANCH  24  26
ATOM     26  C   UNL     1       3.442  -3.576   0.802  0.00  0.00    +0.035 A 
ATOM     27  C   UNL     1       4.736  -4.087   0.804  0.00  0.00    +0.025 A 
ATOM     28  C   UNL     1       4.950  -5.435   1.009  0.00  0.00    +0.029 A 
ATOM     29  C   UNL     1       3.872  -6.285   1.202  0.00  0.00    +0.067 A 
ATOM     30  C   UNL     1       2.572  -5.777   1.196  0.00  0.00    +0.069 A 
ATOM     31  C   UNL     1       2.360  -4.422   0.996  0.00  0.00    +0.051 A 
ATOM     32  N   UNL     1       1.717  -6.855   1.413  0.00  0.00    -0.306 N 
ATOM     33  H   UNL     1       0.749  -6.811   1.460  0.00  0.00    +0.170 HD
ATOM     34  C   UNL     1       2.462  -7.968   1.545  0.00  0.00    +0.325 A 
ATOM     35  O   UNL     1       2.023  -9.086   1.744  0.00  0.00    -0.247 OA
ATOM     36  N   UNL     1       3.767  -7.658   1.423  0.00  0.00    -0.306 N 
ATOM     37  H   UNL     1       4.506  -8.283   1.479  0.00  0.00    +0.170 HD
ENDBRANCH  24  26
ENDBRANCH  20  22
ENDBRANCH   1  20
TORSDOF 6
