REMARK  Name = ZINC04608417
REMARK  3 active torsions:
REMARK  status: ('A' for Active; 'I' for Inactive)
REMARK    1  A    between atoms: C_6  and  C_11
REMARK    2  A    between atoms: C_11  and  N_12
REMARK    3  A    between atoms: C_14  and  C_21
REMARK                            x       y       z     vdW  Elec       q    Type
REMARK                         _______ _______ _______ _____ _____    ______ ____
ROOT
ATOM      1  N   UNL     1       3.649   5.655  -1.512  0.00  0.00    -0.342 N 
ATOM      2  C   UNL     1       4.602   5.065  -2.277  0.00  0.00    +0.095 A 
ATOM      3  C   UNL     1       4.881   5.856  -3.356  0.00  0.00    +0.002 A 
ATOM      4  C   UNL     1       4.022   7.048  -3.234  0.00  0.00    +0.007 A 
ATOM      5  C   UNL     1       3.273   6.865  -2.060  0.00  0.00    +0.050 A 
ATOM      6  C   UNL     1       2.360   7.841  -1.675  0.00  0.00    +0.026 A 
ATOM      7  C   UNL     1       2.198   8.973  -2.443  0.00  0.00    +0.002 A 
ATOM      8  C   UNL     1       2.938   9.152  -3.602  0.00  0.00    +0.001 A 
ATOM      9  C   UNL     1       3.848   8.197  -4.001  0.00  0.00    +0.010 A 
ENDROOT
BRANCH   3  10
ATOM     10  C   UNL     1       5.847   5.577  -4.420  0.00  0.00    +0.038 C 
ATOM     11  C   UNL     1       7.045   5.007  -4.119  0.00  0.00    +0.098 C 
ATOM     12  C   UNL     1       7.572   4.754  -2.824  0.00  0.00    +0.266 C 
ATOM     13  O   UNL     1       7.033   5.009  -1.761  0.00  0.00    -0.268 OA
ATOM     14  N   UNL     1       8.777   4.177  -2.993  0.00  0.00    -0.235 N 
ATOM     15  C   UNL     1       9.042   4.061  -4.304  0.00  0.00    +0.311 C 
ATOM     16  O   UNL     1      10.058   3.583  -4.772  0.00  0.00    -0.252 OA
ATOM     17  N   UNL     1       8.017   4.553  -5.025  0.00  0.00    -0.265 N 
ATOM     18  H   UNL     1       9.366   3.893  -2.276  0.00  0.00    +0.159 HD
ATOM     19  H   UNL     1       7.959   4.588  -5.992  0.00  0.00    +0.157 HD
ENDBRANCH   3  10
BRANCH   1  20
ATOM     20  C   UNL     1       3.101   5.091  -0.276  0.00  0.00    +0.157 C 
BRANCH  20  26
ATOM     21  C   UNL     1      -1.662   0.989  -1.758  0.00  0.00    +0.001 A 
ATOM     22  C   UNL     1      -0.444   0.313  -1.791  0.00  0.00    +0.001 A 
ATOM     23  C   UNL     1       0.723   0.957  -1.516  0.00  0.00    +0.008 A 
ATOM     24  C   UNL     1       0.703   2.323  -1.188  0.00  0.00    -0.018 A 
ATOM     25  C   UNL     1       1.887   3.022  -0.899  0.00  0.00    +0.014 A 
ATOM     26  C   UNL     1       1.829   4.345  -0.585  0.00  0.00    -0.027 A 
ATOM     27  C   UNL     1       0.610   5.021  -0.547  0.00  0.00    +0.006 A 
ATOM     28  C   UNL     1      -0.557   4.376  -0.821  0.00  0.00    +0.009 A 
ATOM     29  C   UNL     1      -0.536   3.010  -1.149  0.00  0.00    -0.018 A 
ATOM     30  C   UNL     1      -1.721   2.311  -1.438  0.00  0.00    +0.008 A 
ENDBRANCH  20  26
ENDBRANCH   1  20
TORSDOF 3
