REMARK  Name = ZINC09561986
REMARK  7 active torsions:
REMARK  status: ('A' for Active; 'I' for Inactive)
REMARK    1  A    between atoms: N_11  and  C_14
REMARK    2  A    between atoms: C_14  and  C_15
REMARK    3  A    between atoms: C_15  and  O_17
REMARK    4  A    between atoms: O_17  and  C_18
REMARK    5  A    between atoms: C_18  and  C_19
REMARK    6  A    between atoms: N_21  and  C_22
REMARK    7  A    between atoms: C_23  and  C_30
REMARK                            x       y       z     vdW  Elec       q    Type
REMARK                         _______ _______ _______ _____ _____    ______ ____
ROOT
ATOM      1  C   UNL     1       2.758  -5.216  -7.169  0.00  0.00    +0.255 C 
ATOM      2  O   UNL     1       3.382  -6.083  -6.595  0.00  0.00    -0.272 OA
ATOM      3  N   UNL     1       2.491  -5.336  -8.485  0.00  0.00    -0.277 N 
ATOM      4  H   UNL     1       1.992  -4.642  -8.943  0.00  0.00    +0.155 HD
ENDROOT
BRANCH   3   5
ATOM      5  C   UNL     1       2.929  -6.451  -9.182  0.00  0.00    +0.084 A 
ATOM      6  C   UNL     1       2.755  -6.738 -10.523  0.00  0.00    +0.068 A 
ATOM      7  C   UNL     1       3.320  -7.992 -11.020  0.00  0.00    -0.023 A 
ATOM      8  C   UNL     1       3.951  -8.719 -10.080  0.00  0.00    -0.004 A 
ATOM      9  S   UNL     1       3.801  -7.758  -8.595  0.00  0.00    -0.077 S 
ATOM     10  C   UNL     1       4.509  -9.998 -10.642  0.00  0.00    +0.043 C 
ATOM     11  C   UNL     1       3.773 -10.188 -11.987  0.00  0.00    +0.010 C 
ATOM     12  C   UNL     1       3.403  -8.735 -12.351  0.00  0.00    +0.037 C 
BRANCH   6  13
ATOM     13  C   UNL     1       2.031  -5.823 -11.411  0.00  0.00    +0.244 C 
ATOM     14  O   UNL     1       2.633  -4.947 -12.004  0.00  0.00    -0.270 OA
ATOM     15  N   UNL     1       0.699  -5.951 -11.571  0.00  0.00    -0.325 N 
ATOM     16  H   UNL     1       0.219  -6.649 -11.098  0.00  0.00    +0.145 HD
ATOM     17  H   UNL     1       0.220  -5.346 -12.159  0.00  0.00    +0.145 HD
ENDBRANCH   6  13
ENDBRANCH   3   5
BRANCH   1  18
ATOM     18  C   UNL     1       2.282  -4.004  -6.411  0.00  0.00    +0.328 C 
BRANCH  18  19
ATOM     19  O   UNL     1       2.686  -4.108  -5.044  0.00  0.00    -0.454 OA
BRANCH  19  20
ATOM     20  C   UNL     1       2.337  -3.101  -4.227  0.00  0.00    +0.326 C 
ATOM     21  O   UNL     1       1.710  -2.163  -4.658  0.00  0.00    -0.249 OA
BRANCH  20  22
ATOM     22  C   UNL     1       2.728  -3.142  -2.772  0.00  0.00    +0.236 C 
BRANCH  22  31
ATOM     23  C   UNL     1      -0.019   1.538   0.011  0.00  0.00    +0.001 C 
ATOM     24  C   UNL     1       1.388   2.125   0.000  0.00  0.00    +0.001 C 
ATOM     25  C   UNL     1       2.242   1.563  -1.151  0.00  0.00    +0.013 C 
ATOM     26  C   UNL     1       2.243   0.061  -0.998  0.00  0.00    +0.087 C 
ATOM     27  C   UNL     1       0.777  -0.409  -1.233  0.00  0.00    +0.087 C 
ATOM     28  C   UNL     1       0.002  -0.004   0.002  0.00  0.00    +0.013 C 
ATOM     29  C   UNL     1       1.010  -1.860  -1.511  0.00  0.00    +0.226 C 
ATOM     30  O   UNL     1       0.261  -2.780  -1.263  0.00  0.00    -0.275 OA
ATOM     31  N   UNL     1       2.234  -1.937  -2.100  0.00  0.00    -0.231 N 
ATOM     32  C   UNL     1       2.961  -0.787  -1.999  0.00  0.00    +0.226 C 
ATOM     33  O   UNL     1       3.976  -0.506  -2.599  0.00  0.00    -0.275 OA
ENDBRANCH  22  31
ENDBRANCH  20  22
ENDBRANCH  19  20
ENDBRANCH  18  19
ENDBRANCH   1  18
TORSDOF 7
