REMARK  Name = ZINC00557871
REMARK  3 active torsions:
REMARK  status: ('A' for Active; 'I' for Inactive)
REMARK    1  A    between atoms: C_6  and  C_7
REMARK    2  A    between atoms: C_10  and  C_13
REMARK    3  A    between atoms: C_18  and  O_19
REMARK                            x       y       z     vdW  Elec       q    Type
REMARK                         _______ _______ _______ _____ _____    ______ ____
ROOT
ATOM      1  C   UNL     1      -1.293  -0.774   0.009  0.00  0.00    +0.125 C 
ATOM      2  C   UNL     1      -1.903  -0.798   1.424  0.00  0.00    +0.086 C 
ATOM      3  C   UNL     1      -3.233  -0.097   1.260  0.00  0.00    +0.072 C 
ATOM      4  N   UNL     1      -3.381   0.262   0.032  0.00  0.00    -0.190 NA
ATOM      5  N   UNL     1      -2.311  -0.082  -0.798  0.00  0.00    -0.261 N 
ATOM      6  H   UNL     1      -2.248   0.105  -1.747  0.00  0.00    +0.169 HD
ENDROOT
BRANCH   1  12
ATOM      7  C   UNL     1      -0.017   1.378   0.010  0.00  0.00    +0.009 A 
ATOM      8  C   UNL     1       1.170   2.088   0.002  0.00  0.00    +0.050 A 
ATOM      9  C   UNL     1       2.382   1.415  -0.013  0.00  0.00    +0.162 A 
ATOM     10  C   UNL     1       2.401   0.025  -0.018  0.00  0.00    +0.162 A 
ATOM     11  C   UNL     1       1.207  -0.681  -0.011  0.00  0.00    +0.055 A 
ATOM     12  C   UNL     1       0.002  -0.004   0.002  0.00  0.00    -0.022 A 
ATOM     13  O   UNL     1       3.579  -0.656  -0.024  0.00  0.00    -0.485 OA
ATOM     14  C   UNL     1       4.746   0.081  -0.406  0.00  0.00    +0.270 C 
ATOM     15  C   UNL     1       4.733   1.422   0.340  0.00  0.00    +0.270 C 
ATOM     16  O   UNL     1       3.542   2.127  -0.024  0.00  0.00    -0.485 OA
ENDBRANCH   1  12
BRANCH   3  17
ATOM     17  C   UNL     1      -4.209   0.140   2.340  0.00  0.00    +0.039 A 
ATOM     18  C   UNL     1      -3.936  -0.290   3.639  0.00  0.00    +0.015 A 
ATOM     19  C   UNL     1      -4.852  -0.066   4.645  0.00  0.00    +0.021 A 
ATOM     20  C   UNL     1      -6.044   0.585   4.371  0.00  0.00    +0.044 A 
ATOM     21  C   UNL     1      -6.325   1.016   3.087  0.00  0.00    +0.066 A 
ATOM     22  C   UNL     1      -5.412   0.804   2.067  0.00  0.00    +0.127 A 
ATOM     23 CL   UNL     1      -7.191   0.860   5.645  0.00  0.00    -0.083 Cl
BRANCH  22  24
ATOM     24  O   UNL     1      -5.685   1.232   0.807  0.00  0.00    -0.506 OA
ATOM     25  H   UNL     1      -6.150   0.582   0.263  0.00  0.00    +0.292 HD
ENDBRANCH  22  24
ENDBRANCH   3  17
TORSDOF 3
