REMARK  Name = ZINC04990009
REMARK  9 active torsions:
REMARK  status: ('A' for Active; 'I' for Inactive)
REMARK    1  A    between atoms: C_1  and  C_2
REMARK    2  A    between atoms: C_8  and  C_13
REMARK    3  A    between atoms: C_9  and  C_12
REMARK    4  A    between atoms: C_13  and  C_14
REMARK    5  A    between atoms: N_16  and  N_17
REMARK    6  A    between atoms: N_17  and  C_18
REMARK    7  A    between atoms: C_20  and  C_25
REMARK    8  A    between atoms: C_20  and  C_26
REMARK    9  A    between atoms: C_22  and  O_24
REMARK                            x       y       z     vdW  Elec       q    Type
REMARK                         _______ _______ _______ _____ _____    ______ ____
ROOT
ATOM      1  C   UNL     1      -1.360  -2.805   4.217  0.00  0.00    +0.233 C 
ATOM      2  O   UNL     1      -2.284  -2.943   3.443  0.00  0.00    -0.274 OA
ATOM      3  N   UNL     1      -1.602  -2.597   5.526  0.00  0.00    -0.236 N 
ATOM      4  H   UNL     1      -0.863  -2.487   6.144  0.00  0.00    +0.173 HD
ENDROOT
BRANCH   3   5
ATOM      5  N   UNL     1      -2.921  -2.540   5.994  0.00  0.00    -0.265 N 
ATOM      6  H   UNL     1      -3.661  -2.650   5.375  0.00  0.00    +0.170 HD
BRANCH   5   7
ATOM      7  C   UNL     1      -3.172  -2.324   7.350  0.00  0.00    +0.044 C 
ATOM      8  C   UNL     1      -2.155  -2.166   8.206  0.00  0.00    +0.004 C 
ATOM      9  C   UNL     1      -2.428  -1.936   9.668  0.00  0.00    -0.008 C 
ATOM     10  C   UNL     1      -3.696  -1.100   9.838  0.00  0.00    +0.084 C 
ATOM     11  C   UNL     1      -4.815  -1.693   9.024  0.00  0.00    +0.097 C 
ATOM     12  C   UNL     1      -4.558  -2.263   7.846  0.00  0.00    +0.065 C 
ATOM     13  C   UNL     1      -2.610  -3.284  10.369  0.00  0.00    +0.016 C 
ATOM     14  C   UNL     1      -1.244  -1.196  10.295  0.00  0.00    +0.016 C 
BRANCH  11  15
ATOM     15  O   UNL     1      -6.087  -1.642   9.488  0.00  0.00    -0.511 OA
ATOM     16  H   UNL     1      -6.737  -2.048   8.898  0.00  0.00    +0.292 HD
ENDBRANCH  11  15
ENDBRANCH   5   7
ENDBRANCH   3   5
BRANCH   1  17
ATOM     17  C   UNL     1       0.059  -2.867   3.713  0.00  0.00    +0.134 C 
BRANCH  17  25
ATOM     18  C   UNL     1      -0.018   1.503   0.010  0.00  0.00    +0.044 C 
ATOM     19  C   UNL     1       0.002  -0.004   0.002  0.00  0.00    -0.050 A 
ATOM     20  C   UNL     1       0.006  -0.686  -1.207  0.00  0.00    +0.005 A 
ATOM     21  C   UNL     1       0.024  -2.063  -1.237  0.00  0.00    +0.026 A 
ATOM     22  C   UNL     1       0.039  -2.780  -0.045  0.00  0.00    +0.047 A 
ATOM     23  C   UNL     1       0.036  -2.084   1.178  0.00  0.00    +0.004 A 
ATOM     24  C   UNL     1       0.023  -0.688   1.185  0.00  0.00    +0.013 A 
ATOM     25  C   UNL     1       0.055  -3.107   2.226  0.00  0.00    -0.011 A 
ATOM     26  C   UNL     1       0.067  -4.300   1.610  0.00  0.00    +0.018 A 
ATOM     27  N   UNL     1       0.058  -4.124   0.253  0.00  0.00    -0.358 N 
ATOM     28  H   UNL     1       0.065  -4.840  -0.402  0.00  0.00    +0.166 HD
ATOM     29  C   UNL     1       0.088  -5.635   2.309  0.00  0.00    +0.063 C 
ENDBRANCH  17  25
ENDBRANCH   1  17
TORSDOF 5
