REMARK  Name = ZINC01966442
REMARK  5 active torsions:
REMARK  status: ('A' for Active; 'I' for Inactive)
REMARK    1  A    between atoms: C_1  and  C_2
REMARK    2  A    between atoms: C_3  and  C_8
REMARK    3  A    between atoms: N_10  and  N_11
REMARK    4  A    between atoms: C_12  and  C_13
REMARK    5  A    between atoms: C_18  and  O_19
REMARK                            x       y       z     vdW  Elec       q    Type
REMARK                         _______ _______ _______ _____ _____    ______ ____
ROOT
ATOM      1  C   UNL     1       3.592  -4.837  -0.057  0.00  0.00    +0.272 C 
ATOM      2  O   UNL     1       4.635  -4.209  -0.064  0.00  0.00    -0.268 OA
ATOM      3  N   UNL     1       2.412  -4.186  -0.043  0.00  0.00    -0.202 N 
ATOM      4  H   UNL     1       1.582  -4.686  -0.037  0.00  0.00    +0.178 HD
ENDROOT
BRANCH   1   7
ATOM      5  C   UNL     1       6.117  -6.643  -0.105  0.00  0.00    +0.067 C 
ATOM      6  C   UNL     1       4.703  -7.165  -0.086  0.00  0.00    +0.060 A 
ATOM      7  C   UNL     1       3.619  -6.299  -0.065  0.00  0.00    +0.100 A 
ATOM      8  S   UNL     1       2.266  -7.466  -0.058  0.00  0.00    -0.048 S 
ATOM      9  C   UNL     1       3.218  -8.918  -0.074  0.00  0.00    +0.156 A 
ATOM     10  N   UNL     1       4.457  -8.450  -0.084  0.00  0.00    -0.230 NA
ATOM     11  N   UNL     1       2.792 -10.229  -0.077  0.00  0.00    -0.337 N 
ATOM     12  H   UNL     1       1.843 -10.431  -0.069  0.00  0.00    +0.144 HD
ATOM     13  H   UNL     1       3.441 -10.950  -0.087  0.00  0.00    +0.144 HD
ENDBRANCH   1   7
BRANCH   3  14
ATOM     14  N   UNL     1       2.386  -2.785  -0.035  0.00  0.00    -0.187 NA
ATOM     15  C   UNL     1       1.250  -2.157  -0.021  0.00  0.00    +0.142 C 
BRANCH  15  16
ATOM     16  C   UNL     1       1.222  -0.683  -0.013  0.00  0.00    +0.037 A 
ATOM     17  C   UNL     1       0.002  -0.004   0.002  0.00  0.00    +0.028 A 
ATOM     18  C   UNL     1      -0.017   1.376   0.010  0.00  0.00    +0.019 A 
ATOM     19  C   UNL     1       1.170   2.090   0.002  0.00  0.00    +0.019 A 
ATOM     20  C   UNL     1       2.384   1.428  -0.013  0.00  0.00    +0.047 A 
ATOM     21  C   UNL     1       2.420   0.044  -0.021  0.00  0.00    +0.126 A 
ATOM     22 BR   UNL     1      -1.669   2.295   0.022  0.00  0.00    -0.050 Br
BRANCH  21  23
ATOM     23  O   UNL     1       3.613  -0.607  -0.036  0.00  0.00    -0.506 OA
ATOM     24  H   UNL     1       3.949  -0.790  -0.924  0.00  0.00    +0.292 HD
ENDBRANCH  21  23
ENDBRANCH  15  16
ENDBRANCH   3  14
TORSDOF 4
