REMARK  Name = ZINC22406645
REMARK  11 active torsions:
REMARK  status: ('A' for Active; 'I' for Inactive)
REMARK    1  A    between atoms: C_1  and  C_2
REMARK    2  A    between atoms: C_2  and  C_3
REMARK    3  A    between atoms: C_2  and  C_4
REMARK    4  A    between atoms: C_4  and  C_5
REMARK    5  A    between atoms: C_5  and  N_6
REMARK    6  A    between atoms: N_6  and  C_7
REMARK    7  A    between atoms: N_6  and  C_20
REMARK    8  A    between atoms: C_7  and  C_8
REMARK    9  A    between atoms: C_21  and  N_36
REMARK   10  A    between atoms: N_22  and  C_29
REMARK   11  A    between atoms: C_29  and  C_30
REMARK                            x       y       z     vdW  Elec       q    Type
REMARK                         _______ _______ _______ _____ _____    ______ ____
ROOT
ATOM      1  N   UNL     1      -4.968   4.613   1.329  0.00  0.00    -0.317 N 
ENDROOT
BRANCH   1   2
ATOM      2  C   UNL     1      -6.264   5.159   1.481  0.00  0.00    +0.134 A 
ATOM      3  C   UNL     1      -7.076   4.746   2.501  0.00  0.00    +0.127 A 
ATOM      4  N   UNL     1      -8.331   5.297   2.630  0.00  0.00    -0.276 N 
ATOM      5  C   UNL     1      -8.759   6.226   1.756  0.00  0.00    +0.331 A 
ATOM      6  O   UNL     1      -9.873   6.699   1.883  0.00  0.00    -0.246 OA
ATOM      7  N   UNL     1      -7.975   6.640   0.744  0.00  0.00    -0.273 N 
ATOM      8  H   UNL     1      -8.343   7.401   0.040  0.00  0.00    +0.173 HD
ATOM      9  C   UNL     1      -6.738   6.132   0.582  0.00  0.00    +0.277 A 
ATOM     10  O   UNL     1      -6.034   6.513  -0.338  0.00  0.00    -0.266 OA
BRANCH   3  11
ATOM     11  N   UNL     1      -6.642   3.792   3.393  0.00  0.00    -0.343 N 
ATOM     12  H   UNL     1      -7.299   3.463   4.211  0.00  0.00    +0.144 HD
ATOM     13  H   UNL     1      -5.636   3.358   3.287  0.00  0.00    +0.144 HD
ENDBRANCH   3  11
BRANCH   4  14
ATOM     14  C   UNL     1      -9.207   4.865   3.722  0.00  0.00    +0.163 C 
BRANCH  14  15
ATOM     15  C   UNL     1     -10.037   3.693   3.266  0.00  0.00    -0.028 A 
ATOM     16  C   UNL     1     -11.270   3.905   2.678  0.00  0.00    +0.005 A 
ATOM     17  C   UNL     1     -12.029   2.830   2.255  0.00  0.00    +0.000 A 
ATOM     18  C   UNL     1     -11.560   1.542   2.431  0.00  0.00    +0.000 A 
ATOM     19  C   UNL     1     -10.330   1.329   3.025  0.00  0.00    +0.000 A 
ATOM     20  C   UNL     1      -9.569   2.404   3.443  0.00  0.00    +0.005 A 
ENDBRANCH  14  15
ENDBRANCH   4  14
ENDBRANCH   1   2
BRANCH   1  21
ATOM     21  C   UNL     1      -3.942   5.660   1.414  0.00  0.00    +0.106 C 
BRANCH  21  22
ATOM     22  C   UNL     1      -3.926   6.246   2.827  0.00  0.00    +0.022 C 
BRANCH  22  24
ATOM     23  C   UNL     1      -2.925   8.008   4.288  0.00  0.00    +0.007 C 
ATOM     24  C   UNL     1      -2.857   7.337   2.915  0.00  0.00    -0.016 C 
ATOM     25  C   UNL     1      -1.474   6.712   2.720  0.00  0.00    +0.007 C 
ENDBRANCH  22  24
ENDBRANCH  21  22
ENDBRANCH   1  21
BRANCH   1  26
ATOM     26  C   UNL     1      -4.856   3.867   0.069  0.00  0.00    +0.160 C 
BRANCH  26  27
ATOM     27  C   UNL     1      -3.559   3.099   0.052  0.00  0.00    +0.066 A 
ATOM     28  C   UNL     1      -3.574   1.718   0.044  0.00  0.00    +0.095 A 
ATOM     29  C   UNL     1      -2.357   1.028   0.029  0.00  0.00    +0.259 A 
ATOM     30  O   UNL     1      -2.336  -0.193   0.022  0.00  0.00    -0.267 OA
ATOM     31  N   UNL     1      -1.206   1.733   0.017  0.00  0.00    -0.267 N 
ATOM     32  C   UNL     1      -0.013   1.076   0.008  0.00  0.00    +0.116 A 
ATOM     33  C   UNL     1       1.154   1.761   0.001  0.00  0.00    +0.058 A 
ATOM     34  C   UNL     1       1.147   3.164   0.009  0.00  0.00    +0.025 A 
ATOM     35  C   UNL     1      -0.041   3.830   0.024  0.00  0.00    +0.048 A 
ATOM     36  C   UNL     1      -1.244   3.099   0.031  0.00  0.00    +0.141 A 
ATOM     37  N   UNL     1      -2.406   3.750   0.045  0.00  0.00    -0.232 NA
ATOM     38 CL   UNL     1       2.663   0.902  -0.018  0.00  0.00    -0.082 Cl
ENDBRANCH  26  27
ENDBRANCH   1  26
TORSDOF 9
