REMARK  Name = ZINC35910963
REMARK  6 active torsions:
REMARK  status: ('A' for Active; 'I' for Inactive)
REMARK    1  A    between atoms: C_1  and  C_2
REMARK    2  A    between atoms: C_5  and  N_8
REMARK    3  A    between atoms: C_9  and  C_15
REMARK    4  A    between atoms: C_19  and  N_21
REMARK    5  A    between atoms: N_21  and  S_22
REMARK    6  A    between atoms: S_22  and  C_25
REMARK                            x       y       z     vdW  Elec       q    Type
REMARK                         _______ _______ _______ _____ _____    ______ ____
ROOT
ATOM      1  C   UNL     1       1.284  -4.360   2.102  0.00  0.00    -0.015 A 
ATOM      2  C   UNL     1       2.379  -3.755   1.512  0.00  0.00    +0.006 A 
ATOM      3  C   UNL     1       3.393  -3.239   2.297  0.00  0.00    +0.002 A 
ATOM      4  C   UNL     1       3.316  -3.326   3.674  0.00  0.00    +0.024 A 
ATOM      5  C   UNL     1       2.218  -3.933   4.269  0.00  0.00    +0.048 A 
ATOM      6  C   UNL     1       1.198  -4.445   3.478  0.00  0.00    +0.030 A 
ENDROOT
BRANCH   1   8
ATOM      7  N   UNL     1       0.059  -4.170  -0.021  0.00  0.00    -0.254 N 
ATOM      8  C   UNL     1       0.180  -4.921   1.243  0.00  0.00    +0.170 C 
ATOM      9  S   UNL     1       0.613  -6.604   0.623  0.00  0.00    -0.124 S 
ATOM     10  C   UNL     1      -0.001  -6.354  -1.099  0.00  0.00    +0.167 C 
ATOM     11  C   UNL     1      -0.039  -4.836  -1.164  0.00  0.00    +0.231 C 
ATOM     12  O   UNL     1      -0.150  -4.254  -2.223  0.00  0.00    -0.274 OA
BRANCH   7  17
ATOM     13  C   UNL     1      -0.018   1.503   0.009  0.00  0.00    +0.044 C 
ATOM     14  C   UNL     1       0.003  -0.004   0.001  0.00  0.00    -0.050 A 
ATOM     15  C   UNL     1       0.992  -0.677  -0.692  0.00  0.00    +0.005 A 
ATOM     16  C   UNL     1       1.013  -2.058  -0.701  0.00  0.00    +0.024 A 
ATOM     17  C   UNL     1       0.040  -2.771  -0.013  0.00  0.00    +0.038 A 
ATOM     18  C   UNL     1      -0.952  -2.092   0.682  0.00  0.00    +0.024 A 
ATOM     19  C   UNL     1      -0.965  -0.711   0.692  0.00  0.00    +0.005 A 
ENDBRANCH   7  17
ENDBRANCH   1   8
BRANCH   5  20
ATOM     20  N   UNL     1       2.137  -4.022   5.661  0.00  0.00    -0.216 N 
ATOM     21  H   UNL     1       1.865  -4.855   6.078  0.00  0.00    +0.174 HD
BRANCH  20  22
ATOM     22  S   UNL     1       2.503  -2.707   6.598  0.00  0.00    +0.072 S 
ATOM     23  O   UNL     1       2.302  -3.102   7.948  0.00  0.00    -0.150 OA
ATOM     24  O   UNL     1       3.748  -2.208   6.128  0.00  0.00    -0.150 OA
BRANCH  22  25
ATOM     25  C   UNL     1       1.300  -1.468   6.251  0.00  0.00    +0.109 A 
ATOM     26  C   UNL     1       1.521  -0.556   5.236  0.00  0.00    +0.030 A 
ATOM     27  C   UNL     1       0.577   0.416   4.963  0.00  0.00    +0.022 A 
ATOM     28  C   UNL     1      -0.589   0.477   5.706  0.00  0.00    +0.041 A 
ATOM     29  C   UNL     1      -0.809  -0.437   6.722  0.00  0.00    +0.022 A 
ATOM     30  C   UNL     1       0.133  -1.412   6.990  0.00  0.00    +0.030 A 
ATOM     31 CL   UNL     1      -1.774   1.698   5.364  0.00  0.00    -0.084 Cl
ENDBRANCH  22  25
ENDBRANCH  20  22
ENDBRANCH   5  20
TORSDOF 5
