REMARK  Name = ZINC14461033
REMARK  7 active torsions:
REMARK  status: ('A' for Active; 'I' for Inactive)
REMARK    1  A    between atoms: C_1  and  C_2
REMARK    2  A    between atoms: C_2  and  C_3
REMARK    3  A    between atoms: C_3  and  N_4
REMARK    4  A    between atoms: N_4  and  S_5
REMARK    5  A    between atoms: S_5  and  C_8
REMARK    6  A    between atoms: C_21  and  C_24
REMARK    7  A    between atoms: C_29  and  O_30
REMARK                            x       y       z     vdW  Elec       q    Type
REMARK                         _______ _______ _______ _____ _____    ______ ____
ROOT
ATOM      1  C   UNL     1       0.159   0.036   0.093  0.00  0.00    +0.106 A 
ATOM      2  C   UNL     1      -0.958  -0.621  -0.392  0.00  0.00    +0.030 A 
ATOM      3  C   UNL     1      -0.980  -2.001  -0.423  0.00  0.00    +0.025 A 
ATOM      4  C   UNL     1       0.117  -2.723   0.032  0.00  0.00    +0.031 A 
ATOM      5  C   UNL     1       1.235  -2.070   0.520  0.00  0.00    -0.018 A 
ATOM      6  C   UNL     1       1.250  -0.682   0.540  0.00  0.00    +0.034 A 
ATOM      7  C   UNL     1       2.461  -2.800   1.025  0.00  0.00    +0.049 C 
ATOM      8  C   UNL     1       2.654  -2.386   2.478  0.00  0.00    -0.023 C 
ATOM      9  C   UNL     1       2.108  -3.266   3.280  0.00  0.00    -0.030 C 
ATOM     10  C   UNL     1       1.483  -4.407   2.484  0.00  0.00    +0.033 C 
ATOM     11  C   UNL     1       2.224  -4.318   1.129  0.00  0.00    +0.029 C 
ATOM     12  C   UNL     1       1.357  -4.841  -0.002  0.00  0.00    +0.108 C 
ATOM     13  N   UNL     1       0.079  -4.122  -0.013  0.00  0.00    -0.336 N 
ATOM     14  H   UNL     1      -0.765  -4.599  -0.050  0.00  0.00    +0.147 HD
ENDROOT
BRANCH  12  15
ATOM     15  C   UNL     1       2.064  -4.629  -1.315  0.00  0.00    +0.015 A 
ATOM     16  C   UNL     1       1.691  -3.586  -2.141  0.00  0.00    +0.024 A 
ATOM     17  C   UNL     1       2.340  -3.390  -3.347  0.00  0.00    +0.018 A 
ATOM     18  C   UNL     1       3.363  -4.239  -3.729  0.00  0.00    +0.019 A 
ATOM     19  C   UNL     1       3.740  -5.283  -2.907  0.00  0.00    +0.047 A 
ATOM     20  C   UNL     1       3.094  -5.477  -1.694  0.00  0.00    +0.122 A 
ATOM     21 BR   UNL     1       1.827  -1.962  -4.474  0.00  0.00    -0.050 Br
BRANCH  20  22
ATOM     22  O   UNL     1       3.467  -6.501  -0.881  0.00  0.00    -0.506 OA
ATOM     23  H   UNL     1       2.991  -7.327  -1.045  0.00  0.00    +0.292 HD
ENDBRANCH  20  22
ENDBRANCH  12  15
BRANCH   1  24
ATOM     24  S   UNL     1       0.192   1.798   0.133  0.00  0.00    +0.058 S 
ATOM     25  O   UNL     1       1.561   2.178   0.122  0.00  0.00    -0.153 OA
ATOM     26  O   UNL     1      -0.731   2.244  -0.851  0.00  0.00    -0.153 OA
BRANCH  24  27
ATOM     27  N   UNL     1      -0.418   2.265   1.600  0.00  0.00    -0.190 NA
ATOM     28  H   UNL     1      -1.249   2.763   1.643  0.00  0.00    +0.148 HD
BRANCH  27  29
ATOM     29  C   UNL     1       0.299   1.928   2.833  0.00  0.00    +0.105 C 
BRANCH  29  31
ATOM     30  C   UNL     1       0.501   2.418   5.274  0.00  0.00    +0.005 C 
ATOM     31  C   UNL     1      -0.247   2.771   3.987  0.00  0.00    +0.013 C 
ENDBRANCH  29  31
ENDBRANCH  27  29
ENDBRANCH  24  27
ENDBRANCH   1  24
TORSDOF 6
