REMARK  Name = ZINC20881808
REMARK  10 active torsions:
REMARK  status: ('A' for Active; 'I' for Inactive)
REMARK    1  A    between atoms: C_1  and  C_2
REMARK    2  A    between atoms: C_2  and  C_3
REMARK    3  A    between atoms: C_3  and  O_4
REMARK    4  A    between atoms: O_4  and  C_5
REMARK    5  A    between atoms: C_8  and  C_13
REMARK    6  A    between atoms: C_10  and  O_11
REMARK    7  A    between atoms: O_11  and  C_12
REMARK    8  A    between atoms: C_18  and  C_23
REMARK    9  A    between atoms: C_28  and  O_29
REMARK   10  A    between atoms: O_29  and  C_30
REMARK                            x       y       z     vdW  Elec       q    Type
REMARK                         _______ _______ _______ _____ _____    ______ ____
ROOT
ATOM      1  C   UNL     1       0.748   9.575  -0.052  0.00  0.00    +0.136 C 
ATOM      2  C   UNL     1       0.729   8.076   0.131  0.00  0.00    +0.036 C 
ATOM      3  C   UNL     1       0.706   7.426   1.306  0.00  0.00    +0.017 C 
ATOM      4  C   UNL     1       0.729   5.906   1.344  0.00  0.00    +0.060 C 
ATOM      5  C   UNL     1      -0.018   5.346   0.134  0.00  0.00    +0.035 C 
ATOM      6  C   UNL     1       0.691   5.853  -1.127  0.00  0.00    +0.088 C 
ATOM      7  C   UNL     1       0.734   7.351  -1.084  0.00  0.00    +0.163 C 
ATOM      8  O   UNL     1       0.773   7.966  -2.132  0.00  0.00    -0.292 OA
ATOM      9  N   UNL     1       0.677   8.022   2.525  0.00  0.00    -0.316 N 
ATOM     10  C   UNL     1       1.498   9.076   2.910  0.00  0.00    +0.052 A 
ATOM     11  C   UNL     1       2.435   8.952   3.921  0.00  0.00    +0.025 A 
ATOM     12  C   UNL     1       3.189  10.054   4.286  0.00  0.00    +0.002 A 
ATOM     13  C   UNL     1       3.005  11.268   3.649  0.00  0.00    +0.002 A 
ATOM     14  C   UNL     1       2.079  11.389   2.627  0.00  0.00    +0.025 A 
ATOM     15  C   UNL     1       1.338  10.282   2.245  0.00  0.00    +0.049 A 
ATOM     16  N   UNL     1       0.473  10.328   1.153  0.00  0.00    -0.331 N 
ATOM     17  H   UNL     1      -0.033   7.676   3.290  0.00  0.00    +0.152 HD
ATOM     18  H   UNL     1      -0.431  10.951   1.218  0.00  0.00    +0.147 HD
ENDROOT
BRANCH   1  22
ATOM     19  C   UNL     1       4.604  10.711  -1.511  0.00  0.00    +0.162 A 
ATOM     20  C   UNL     1       4.477  10.130  -0.260  0.00  0.00    +0.050 A 
ATOM     21  C   UNL     1       3.229   9.764   0.209  0.00  0.00    +0.009 A 
ATOM     22  C   UNL     1       2.106   9.976  -0.568  0.00  0.00    -0.019 A 
ATOM     23  C   UNL     1       2.226  10.551  -1.819  0.00  0.00    +0.055 A 
ATOM     24  C   UNL     1       3.473  10.926  -2.293  0.00  0.00    +0.162 A 
BRANCH  24  25
ATOM     25  O   UNL     1       3.592  11.496  -3.522  0.00  0.00    -0.491 OA
ATOM     26  C   UNL     1       2.389  11.686  -4.268  0.00  0.00    +0.277 C 
ENDBRANCH  24  25
BRANCH  19  27
ATOM     27  O   UNL     1       5.831  11.071  -1.974  0.00  0.00    -0.488 OA
BRANCH  27  28
ATOM     28  C   UNL     1       6.947  10.821  -1.117  0.00  0.00    +0.229 C 
BRANCH  28  30
ATOM     29  C   UNL     1       9.427  11.020  -0.886  0.00  0.00    +0.007 C 
ATOM     30  C   UNL     1       8.232  11.289  -1.803  0.00  0.00    +0.038 C 
ENDBRANCH  28  30
ENDBRANCH  27  28
ENDBRANCH  19  27
ENDBRANCH   1  22
BRANCH   5  31
ATOM     31  C   UNL     1       0.013   3.840   0.167  0.00  0.00    -0.002 A 
ATOM     32  C   UNL     1       1.224   3.174   0.180  0.00  0.00    +0.007 A 
ATOM     33  C   UNL     1       1.253   1.792   0.210  0.00  0.00    +0.001 A 
ATOM     34  C   UNL     1       0.071   1.073   0.227  0.00  0.00    +0.004 A 
ATOM     35  C   UNL     1      -1.141   1.734   0.209  0.00  0.00    +0.046 A 
ATOM     36  C   UNL     1      -1.173   3.122   0.184  0.00  0.00    +0.124 A 
BRANCH  36  37
ATOM     37  O   UNL     1      -2.365   3.775   0.171  0.00  0.00    -0.495 OA
ATOM     38  C   UNL     1      -3.546   2.970   0.191  0.00  0.00    +0.277 C 
ENDBRANCH  36  37
ENDBRANCH   5  31
TORSDOF 7
