REMARK  Name = ZINC44749479
REMARK  4 active torsions:
REMARK  status: ('A' for Active; 'I' for Inactive)
REMARK    1  A    between atoms: C_1  and  C_2
REMARK    2  A    between atoms: C_4  and  N_21
REMARK    3  A    between atoms: C_7  and  C_8
REMARK    4  A    between atoms: N_12  and  C_13
REMARK                            x       y       z     vdW  Elec       q    Type
REMARK                         _______ _______ _______ _____ _____    ______ ____
ROOT
ATOM      1  C   UNL     1       0.059   0.019   2.494  0.00  0.00    +0.187 A 
ATOM      2  N   UNL     1       0.114   1.326   2.654  0.00  0.00    -0.108 NA
ATOM      3  N   UNL     1       0.052   1.629   3.900  0.00  0.00    -0.022 NA
ATOM      4  N   UNL     1      -0.046   0.566   4.621  0.00  0.00    -0.039 NA
ATOM      5  N   UNL     1      -0.051  -0.528   3.739  0.00  0.00    -0.191 N 
ENDROOT
BRANCH   5   6
ATOM      6  C   UNL     1      -0.147  -1.888   4.067  0.00  0.00    +0.088 A 
ATOM      7  C   UNL     1       0.741  -2.801   3.515  0.00  0.00    +0.030 A 
ATOM      8  C   UNL     1       0.645  -4.139   3.840  0.00  0.00    +0.017 A 
ATOM      9  C   UNL     1      -0.336  -4.572   4.715  0.00  0.00    +0.019 A 
ATOM     10  C   UNL     1      -1.223  -3.665   5.267  0.00  0.00    +0.037 A 
ATOM     11  C   UNL     1      -1.128  -2.323   4.950  0.00  0.00    +0.067 A 
ATOM     12 CL   UNL     1      -2.236  -1.184   5.649  0.00  0.00    -0.081 Cl
ATOM     13 BR   UNL     1      -0.465  -6.406   5.157  0.00  0.00    -0.050 Br
ENDBRANCH   5   6
BRANCH   1  20
ATOM     14  C   UNL     1       2.125   0.633   0.568  0.00  0.00    +0.044 C 
ATOM     15  C   UNL     1       1.094  -0.425   0.273  0.00  0.00    -0.038 A 
ATOM     16  C   UNL     1       1.135  -1.113  -0.920  0.00  0.00    +0.026 A 
ATOM     17  C   UNL     1       0.183  -2.090  -1.193  0.00  0.00    +0.025 A 
ATOM     18  C   UNL     1      -0.811  -2.376  -0.263  0.00  0.00    +0.023 A 
ATOM     19  C   UNL     1      -0.856  -1.691   0.931  0.00  0.00    +0.014 A 
ATOM     20  C   UNL     1       0.101  -0.714   1.210  0.00  0.00    +0.024 A 
BRANCH  17  21
ATOM     21  N   UNL     1       0.226  -2.785  -2.401  0.00  0.00    -0.358 N 
ATOM     22  H   UNL     1       0.919  -2.586  -3.051  0.00  0.00    +0.142 HD
ATOM     23  H   UNL     1      -0.437  -3.466  -2.593  0.00  0.00    +0.142 HD
ENDBRANCH  17  21
ENDBRANCH   1  20
TORSDOF 3
