REMARK  Name = ZINC13718679
REMARK  8 active torsions:
REMARK  status: ('A' for Active; 'I' for Inactive)
REMARK    1  A    between atoms: C_1  and  C_2
REMARK    2  A    between atoms: C_2  and  O_4
REMARK    3  A    between atoms: O_4  and  C_5
REMARK    4  A    between atoms: C_5  and  C_6
REMARK    5  A    between atoms: C_6  and  C_8
REMARK    6  A    between atoms: C_14  and  C_33
REMARK    7  A    between atoms: C_16  and  O_32
REMARK    8  A    between atoms: C_29  and  C_30
REMARK                            x       y       z     vdW  Elec       q    Type
REMARK                         _______ _______ _______ _____ _____    ______ ____
ROOT
ATOM      1  C   UNL     1      -0.332   1.160   2.600  0.00  0.00    +0.165 C 
ATOM      2  C   UNL     1       0.621   2.236   3.193  0.00  0.00    +0.162 C 
ATOM      3  C   UNL     1      -0.192   3.037   4.215  0.00  0.00    +0.039 C 
ATOM      4  C   UNL     1      -1.607   2.409   4.289  0.00  0.00    +0.007 C 
ATOM      5  C   UNL     1      -1.467   1.040   3.622  0.00  0.00    +0.012 C 
ATOM      6  C   UNL     1      -2.734   0.456   3.066  0.00  0.00    +0.044 C 
ATOM      7  C   UNL     1      -3.815   1.377   2.567  0.00  0.00    +0.154 C 
ATOM      8  C   UNL     1      -3.914   2.728   3.256  0.00  0.00    +0.153 C 
ATOM      9  C   UNL     1      -2.552   3.327   3.531  0.00  0.00    +0.034 C 
ATOM     10  C   UNL     1      -2.649   4.687   4.221  0.00  0.00    +0.011 C 
ATOM     11  C   UNL     1      -3.442   4.573   5.526  0.00  0.00    +0.032 C 
ATOM     12  C   UNL     1      -4.805   4.002   5.180  0.00  0.00    -0.053 C 
ATOM     13  C   UNL     1      -5.887   4.692   5.507  0.00  0.00    +0.051 C 
ATOM     14  C   UNL     1      -7.227   4.200   5.151  0.00  0.00    +0.179 C 
ATOM     15  O   UNL     1      -8.226   4.792   5.509  0.00  0.00    -0.288 OA
ATOM     16  C   UNL     1      -7.321   2.974   4.341  0.00  0.00    +0.047 C 
ATOM     17  C   UNL     1      -6.228   2.301   4.030  0.00  0.00    -0.009 C 
ATOM     18  C   UNL     1      -4.844   2.682   4.462  0.00  0.00    +0.044 C 
ATOM     19  C   UNL     1      -4.398   1.607   5.452  0.00  0.00    +0.023 C 
ATOM     20  F   UNL     1      -4.544   3.602   2.317  0.00  0.00    -0.238 F 
ATOM     21  C   UNL     1      -0.991   0.055   4.722  0.00  0.00    +0.015 C 
ATOM     22  O   UNL     1       1.633   1.458   3.874  0.00  0.00    -0.342 OA
ATOM     23  C   UNL     1       1.765   0.300   3.036  0.00  0.00    +0.172 C 
ATOM     24  O   UNL     1       0.444  -0.059   2.623  0.00  0.00    -0.331 OA
ATOM     25  C   UNL     1       2.431  -0.858   3.796  0.00  0.00    +0.065 C 
ATOM     26  C   UNL     1       3.170  -1.637   2.675  0.00  0.00    +0.005 C 
ATOM     27  C   UNL     1       3.733  -0.502   1.784  0.00  0.00    +0.005 C 
ATOM     28  C   UNL     1       2.658   0.605   1.829  0.00  0.00    +0.065 C 
ENDROOT
BRANCH   1  29
ATOM     29  C   UNL     1      -0.774   1.506   1.201  0.00  0.00    +0.205 C 
ATOM     30  O   UNL     1      -0.909   2.662   0.879  0.00  0.00    -0.291 OA
BRANCH  29  31
ATOM     31  C   UNL     1      -1.047   0.408   0.204  0.00  0.00    +0.309 C 
BRANCH  31  32
ATOM     32  O   UNL     1      -1.547   0.989  -1.029  0.00  0.00    -0.457 OA
BRANCH  32  34
ATOM     33  C   UNL     1      -2.366   0.669  -3.336  0.00  0.00    +0.136 C 
ATOM     34  C   UNL     1      -1.842   0.140  -2.026  0.00  0.00    +0.304 C 
ATOM     35  O   UNL     1      -1.686  -1.049  -1.873  0.00  0.00    -0.251 OA
ENDBRANCH  32  34
ENDBRANCH  31  32
ENDBRANCH  29  31
ENDBRANCH   1  29
BRANCH   7  36
ATOM     36  O   UNL     1      -3.697   1.576   1.149  0.00  0.00    -0.389 OA
ATOM     37  H   UNL     1      -3.629   0.756   0.641  0.00  0.00    +0.210 HD
ENDBRANCH   7  36
TORSDOF 5
