REMARK  Name = ZINC00851545
REMARK  2 active torsions:
REMARK  status: ('A' for Active; 'I' for Inactive)
REMARK    1  A    between atoms: C_16  and  C_19
REMARK    2  A    between atoms: N_28  and  C_31
REMARK                            x       y       z     vdW  Elec       q    Type
REMARK                         _______ _______ _______ _____ _____    ______ ____
ROOT
ATOM      1  C   UNL     1       0.770   1.655  -1.059  0.00  0.00    +0.001 A 
ATOM      2  C   UNL     1       2.032   2.220  -1.019  0.00  0.00    +0.001 A 
ATOM      3  C   UNL     1       3.146   1.429  -0.811  0.00  0.00    +0.012 A 
ATOM      4  C   UNL     1       3.004   0.051  -0.638  0.00  0.00    +0.031 A 
ATOM      5  C   UNL     1       1.719  -0.524  -0.680  0.00  0.00    +0.031 A 
ATOM      6  C   UNL     1       0.607   0.293  -0.891  0.00  0.00    +0.012 A 
ATOM      7  C   UNL     1       1.818  -1.983  -0.479  0.00  0.00    +0.204 C 
ATOM      8  O   UNL     1       0.898  -2.773  -0.463  0.00  0.00    -0.288 OA
ATOM      9  C   UNL     1       3.275  -2.303  -0.298  0.00  0.00    +0.206 C 
ATOM     10  C   UNL     1       4.014  -0.999  -0.401  0.00  0.00    +0.204 C 
ATOM     11  O   UNL     1       5.212  -0.839  -0.308  0.00  0.00    -0.288 OA
ATOM     12  C   UNL     1       3.526  -2.976   1.060  0.00  0.00    +0.138 C 
ATOM     13  C   UNL     1       4.651  -4.008   0.758  0.00  0.00    +0.125 C 
ATOM     14  C   UNL     1       4.928  -3.821  -0.750  0.00  0.00    +0.163 C 
ATOM     15  O   UNL     1       3.729  -3.237  -1.289  0.00  0.00    -0.348 OA
ATOM     16  C   UNL     1       5.822  -3.491   1.561  0.00  0.00    +0.233 C 
ATOM     17  O   UNL     1       6.918  -4.006   1.613  0.00  0.00    -0.274 OA
ATOM     18  N   UNL     1       5.462  -2.376   2.207  0.00  0.00    -0.210 N 
ATOM     19  C   UNL     1       4.180  -1.990   2.002  0.00  0.00    +0.234 C 
ATOM     20  O   UNL     1       3.639  -1.019   2.485  0.00  0.00    -0.274 OA
ENDROOT
BRANCH  14  21
ATOM     21  C   UNL     1       5.222  -5.150  -1.397  0.00  0.00    -0.018 A 
ATOM     22  C   UNL     1       4.184  -5.949  -1.838  0.00  0.00    +0.007 A 
ATOM     23  C   UNL     1       4.454  -7.168  -2.431  0.00  0.00    +0.020 A 
ATOM     24  C   UNL     1       5.763  -7.588  -2.584  0.00  0.00    +0.041 A 
ATOM     25  C   UNL     1       6.802  -6.788  -2.142  0.00  0.00    +0.020 A 
ATOM     26  C   UNL     1       6.531  -5.567  -1.554  0.00  0.00    +0.007 A 
ATOM     27 CL   UNL     1       6.103  -9.119  -3.328  0.00  0.00    -0.084 Cl
ENDBRANCH  14  21
BRANCH  18  28
ATOM     28  C   UNL     1       6.339  -1.664   3.038  0.00  0.00    +0.044 A 
ATOM     29  C   UNL     1       7.435  -1.008   2.492  0.00  0.00    +0.025 A 
ATOM     30  C   UNL     1       8.297  -0.307   3.313  0.00  0.00    +0.017 A 
ATOM     31  C   UNL     1       8.070  -0.258   4.676  0.00  0.00    +0.018 A 
ATOM     32  C   UNL     1       6.979  -0.911   5.222  0.00  0.00    +0.017 A 
ATOM     33  C   UNL     1       6.110  -1.608   4.406  0.00  0.00    +0.025 A 
ATOM     34 BR   UNL     1       9.253   0.701   5.797  0.00  0.00    -0.050 Br
ENDBRANCH  18  28
TORSDOF 2
