REMARK  Name = ZINC33425142
REMARK  4 active torsions:
REMARK  status: ('A' for Active; 'I' for Inactive)
REMARK    1  A    between atoms: C_3  and  N_22
REMARK    2  A    between atoms: C_4  and  O_8
REMARK    3  A    between atoms: O_8  and  C_9
REMARK    4  A    between atoms: C_15  and  N_17
REMARK                            x       y       z     vdW  Elec       q    Type
REMARK                         _______ _______ _______ _____ _____    ______ ____
ROOT
ATOM      1  C   UNL     1       4.765   1.332   0.076  0.00  0.00    +0.160 C 
ATOM      2  C   UNL     1       5.077   1.055   1.548  0.00  0.00    +0.043 C 
ATOM      3  C   UNL     1       6.366   0.237   1.650  0.00  0.00    +0.003 C 
ATOM      4  C   UNL     1       7.519   1.024   1.024  0.00  0.00    -0.001 C 
ATOM      5  C   UNL     1       7.207   1.302  -0.448  0.00  0.00    -0.012 C 
ATOM      6  C   UNL     1       5.918   2.119  -0.551  0.00  0.00    -0.027 C 
ENDROOT
BRANCH   6   7
ATOM      7  N   UNL     1       5.618   2.385  -1.964  0.00  0.00    +0.384 N 
ATOM      8  C   UNL     1       4.340   3.129  -2.106  0.00  0.00    -0.078 C 
ATOM      9  C   UNL     1       4.454   3.762  -3.515  0.00  0.00    -0.020 C 
ATOM     10  C   UNL     1       5.949   4.146  -3.603  0.00  0.00    -0.020 C 
ATOM     11  C   UNL     1       6.656   3.246  -2.572  0.00  0.00    -0.078 C 
ATOM     12  H   UNL     1       5.575   1.400  -2.452  0.00  0.00    -0.081 HD
ENDBRANCH   6   7
BRANCH   1  13
ATOM     13  O   UNL     1       3.560   2.095  -0.020  0.00  0.00    -0.489 OA
BRANCH  13  17
ATOM     14  C   UNL     1       0.001  -0.001   0.044  0.00  0.00    +0.022 A 
ATOM     15  C   UNL     1      -0.010   1.364  -0.178  0.00  0.00    +0.028 A 
ATOM     16  C   UNL     1       1.182   2.072  -0.201  0.00  0.00    +0.067 A 
ATOM     17  C   UNL     1       2.389   1.405   0.001  0.00  0.00    +0.143 A 
ATOM     18  C   UNL     1       2.392   0.039   0.223  0.00  0.00    +0.067 A 
ATOM     19  C   UNL     1       1.199  -0.662   0.244  0.00  0.00    +0.045 A 
ATOM     20 CL   UNL     1       1.206  -2.376   0.523  0.00  0.00    -0.083 Cl
BRANCH  16  21
ATOM     21  N   UNL     1       1.173   3.454  -0.426  0.00  0.00    -0.355 N 
ATOM     22  H   UNL     1       2.119   4.015  -0.443  0.00  0.00    +0.142 HD
ATOM     23  H   UNL     1       0.219   3.979  -0.585  0.00  0.00    +0.142 HD
ENDBRANCH  16  21
ENDBRANCH  13  17
ENDBRANCH   1  13
TORSDOF 4
