REMARK  Name = ZINC28059200
REMARK  7 active torsions:
REMARK  status: ('A' for Active; 'I' for Inactive)
REMARK    1  A    between atoms: C_1  and  C_2
REMARK    2  A    between atoms: C_10  and  C_13
REMARK    3  A    between atoms: C_20  and  C_28
REMARK    4  A    between atoms: C_30  and  O_36
REMARK    5  A    between atoms: C_33  and  O_34
REMARK    6  A    between atoms: O_34  and  C_35
REMARK    7  A    between atoms: O_36  and  C_37
REMARK                            x       y       z     vdW  Elec       q    Type
REMARK                         _______ _______ _______ _____ _____    ______ ____
ROOT
ATOM      1  C   UNL     1      -0.743  10.026  -0.613  0.00  0.00    +0.044 C 
ATOM      2  C   UNL     1      -1.417   8.828  -1.230  0.00  0.00    -0.050 A 
ATOM      3  C   UNL     1      -1.886   8.894  -2.530  0.00  0.00    +0.007 A 
ATOM      4  C   UNL     1      -2.506   7.802  -3.110  0.00  0.00    +0.046 A 
ATOM      5  C   UNL     1      -2.659   6.635  -2.386  0.00  0.00    +0.131 A 
ATOM      6  C   UNL     1      -2.186   6.566  -1.069  0.00  0.00    +0.038 A 
ATOM      7  C   UNL     1      -1.564   7.667  -0.494  0.00  0.00    +0.016 A 
ATOM      8  C   UNL     1      -2.369   5.300  -0.320  0.00  0.00    +0.050 C 
ATOM      9  C   UNL     1      -2.660   4.193  -1.006  0.00  0.00    +0.026 C 
ATOM     10  C   UNL     1      -2.760   4.265  -2.513  0.00  0.00    +0.237 C 
ATOM     11  O   UNL     1      -3.256   5.540  -2.921  0.00  0.00    -0.479 OA
ATOM     12  C   UNL     1      -2.885   2.861  -0.334  0.00  0.00    +0.178 C 
ATOM     13  N   UNL     1      -3.020   3.044   1.104  0.00  0.00    -0.201 N 
ATOM     14  C   UNL     1      -2.713   4.192   1.757  0.00  0.00    +0.240 A 
ATOM     15  N   UNL     1      -2.944   3.996   3.023  0.00  0.00    -0.092 NA
ATOM     16  N   UNL     1      -3.381   2.807   3.216  0.00  0.00    -0.021 NA
ATOM     17  N   UNL     1      -3.458   2.166   2.095  0.00  0.00    -0.042 NA
ATOM     18  N   UNL     1      -2.246   5.304   1.075  0.00  0.00    -0.282 N 
ATOM     19  H   UNL     1      -1.793   6.168   1.584  0.00  0.00    +0.155 HD
ENDROOT
BRANCH  10  20
ATOM     20  C   UNL     1      -1.394   4.048  -3.112  0.00  0.00    +0.032 A 
ATOM     21  C   UNL     1      -0.494   5.095  -3.181  0.00  0.00    +0.010 A 
ATOM     22  C   UNL     1       0.758   4.896  -3.730  0.00  0.00    +0.001 A 
ATOM     23  C   UNL     1       1.113   3.650  -4.211  0.00  0.00    +0.003 A 
ATOM     24  C   UNL     1       0.216   2.601  -4.143  0.00  0.00    +0.039 A 
ATOM     25  C   UNL     1      -1.038   2.798  -3.589  0.00  0.00    +0.130 A 
ATOM     26  F   UNL     1      -1.914   1.772  -3.518  0.00  0.00    -0.205 F 
ENDBRANCH  10  20
BRANCH  12  27
ATOM     27  C   UNL     1      -1.713   1.956  -0.614  0.00  0.00    +0.026 A 
ATOM     28  C   UNL     1      -0.428   2.383  -0.336  0.00  0.00    +0.055 A 
ATOM     29  C   UNL     1       0.650   1.550  -0.594  0.00  0.00    +0.121 A 
ATOM     30  C   UNL     1       0.440   0.289  -1.131  0.00  0.00    +0.049 A 
ATOM     31  C   UNL     1      -0.844  -0.138  -1.409  0.00  0.00    +0.049 A 
ATOM     32  C   UNL     1      -1.923   0.697  -1.156  0.00  0.00    +0.126 A 
BRANCH  32  33
ATOM     33  O   UNL     1      -3.186   0.279  -1.434  0.00  0.00    -0.495 OA
ATOM     34  C   UNL     1      -3.329  -1.032  -1.986  0.00  0.00    +0.277 C 
ENDBRANCH  32  33
BRANCH  29  35
ATOM     35  O   UNL     1       1.914   1.971  -0.321  0.00  0.00    -0.495 OA
ATOM     36  C   UNL     1       2.977   1.062  -0.612  0.00  0.00    +0.277 C 
ENDBRANCH  29  35
ENDBRANCH  12  27
TORSDOF 4
