REMARK  Name = ZINC20805642
REMARK  7 active torsions:
REMARK  status: ('A' for Active; 'I' for Inactive)
REMARK    1  A    between atoms: C_10  and  C_11
REMARK    2  A    between atoms: N_12  and  N_13
REMARK    3  A    between atoms: C_17  and  S_20
REMARK    4  A    between atoms: N_18  and  N_19
REMARK    5  A    between atoms: S_20  and  C_21
REMARK    6  A    between atoms: C_21  and  C_22
REMARK    7  A    between atoms: C_22  and  C_24
REMARK                            x       y       z     vdW  Elec       q    Type
REMARK                         _______ _______ _______ _____ _____    ______ ____
ROOT
ATOM      1  N   UNL     1       0.002  -0.004   0.009  0.00  0.00    -0.204 N 
ATOM      2  C   UNL     1      -1.189  -0.714   0.025  0.00  0.00    +0.254 A 
ATOM      3  N   UNL     1      -2.394  -0.197   0.053  0.00  0.00    -0.109 NA
ATOM      4  N   UNL     1      -3.317  -1.251   0.058  0.00  0.00    -0.119 NA
ATOM      5  C   UNL     1      -2.646  -2.378   0.041  0.00  0.00    +0.210 A 
ATOM      6  N   UNL     1      -1.314  -2.076   0.020  0.00  0.00    -0.211 N 
ATOM      7  H   UNL     1       0.962  -0.541  -0.009  0.00  0.00    +0.177 HD
ENDROOT
BRANCH   6   8
ATOM      8  N   UNL     1      -0.287  -2.976  -0.002  0.00  0.00    -0.294 N 
ATOM      9  H   UNL     1      -0.501  -4.055  -0.004  0.00  0.00    +0.163 HD
ATOM     10  H   UNL     1       0.755  -2.622  -0.018  0.00  0.00    +0.163 HD
ENDBRANCH   6   8
BRANCH   1  12
ATOM     11  C   UNL     1       1.100   2.062   0.003  0.00  0.00    +0.139 C 
ATOM     12  N   UNL     1      -0.017   1.397   0.017  0.00  0.00    -0.187 NA
BRANCH  11  22
ATOM     13  C   UNL     1      -2.543   5.706  -0.239  0.00  0.00    +0.001 A 
ATOM     14  C   UNL     1      -2.565   4.313  -0.251  0.00  0.00    +0.001 A 
ATOM     15  C   UNL     1      -1.409   3.594  -0.172  0.00  0.00    +0.009 A 
ATOM     16  C   UNL     1      -0.183   4.262  -0.077  0.00  0.00    -0.009 A 
ATOM     17  C   UNL     1      -0.157   5.678  -0.065  0.00  0.00    -0.017 A 
ATOM     18  C   UNL     1      -1.368   6.388  -0.149  0.00  0.00    +0.008 A 
ATOM     19  C   UNL     1       1.076   6.346   0.029  0.00  0.00    +0.008 A 
ATOM     20  C   UNL     1       2.240   5.646   0.109  0.00  0.00    +0.001 A 
ATOM     21  C   UNL     1       2.262   4.258   0.107  0.00  0.00    +0.010 A 
ATOM     22  C   UNL     1       1.080   3.532   0.011  0.00  0.00    +0.002 A 
ENDBRANCH  11  22
ENDBRANCH   1  12
BRANCH   5  23
ATOM     23  S   UNL     1      -3.340  -3.997   0.043  0.00  0.00    -0.076 S 
BRANCH  23  24
ATOM     24  C   UNL     1      -5.102  -3.584   0.075  0.00  0.00    +0.157 C 
BRANCH  24  25
ATOM     25  C   UNL     1      -5.916  -4.852   0.081  0.00  0.00    +0.173 C 
ATOM     26  O   UNL     1      -5.359  -5.930   0.066  0.00  0.00    -0.291 OA
BRANCH  25  27
ATOM     27  C   UNL     1      -7.385  -4.784   0.107  0.00  0.00    +0.018 A 
ATOM     28  C   UNL     1      -8.030  -3.543   0.131  0.00  0.00    +0.012 A 
ATOM     29  C   UNL     1      -9.407  -3.486   0.148  0.00  0.00    +0.016 A 
ATOM     30  C   UNL     1     -10.152  -4.654   0.154  0.00  0.00    +0.018 A 
ATOM     31  C   UNL     1      -9.520  -5.887   0.136  0.00  0.00    +0.016 A 
ATOM     32  C   UNL     1      -8.143  -5.959   0.113  0.00  0.00    +0.012 A 
ATOM     33 BR   UNL     1     -12.040  -4.566   0.186  0.00  0.00    -0.050 Br
ENDBRANCH  25  27
ENDBRANCH  24  25
ENDBRANCH  23  24
ENDBRANCH   5  23
TORSDOF 7
