REMARK  Name = ZINC47253689
REMARK  4 active torsions:
REMARK  status: ('A' for Active; 'I' for Inactive)
REMARK    1  A    between atoms: C_1  and  C_2
REMARK    2  A    between atoms: N_10  and  C_11
REMARK    3  A    between atoms: C_11  and  C_13
REMARK    4  A    between atoms: C_11  and  C_14
REMARK                            x       y       z     vdW  Elec       q    Type
REMARK                         _______ _______ _______ _____ _____    ______ ____
ROOT
ATOM      1  C   UNL     1       0.549   1.391   1.453  0.00  0.00    +0.067 C 
ATOM      2  C   UNL     1       0.472  -0.090   1.185  0.00  0.00    +0.059 A 
ATOM      3  C   UNL     1       0.600  -0.680  -0.017  0.00  0.00    +0.138 A 
ATOM      4  N   UNL     1       0.467  -2.050   0.169  0.00  0.00    -0.212 N 
ATOM      5  C   UNL     1       0.261  -2.204   1.512  0.00  0.00    +0.197 A 
ATOM      6  N   UNL     1       0.272  -1.045   2.105  0.00  0.00    -0.225 NA
ATOM      7  S   UNL     1       0.101  -3.967   1.676  0.00  0.00    -0.013 S 
ATOM      8  C   UNL     1       0.316  -4.386  -0.046  0.00  0.00    +0.182 A 
ATOM      9  N   UNL     1       0.486  -3.213  -0.595  0.00  0.00    -0.142 NA
ATOM     10  N   UNL     1       0.306  -5.635  -0.647  0.00  0.00    -0.311 N 
ATOM     11  H   UNL     1       0.438  -5.713  -1.605  0.00  0.00    +0.149 HD
ENDROOT
BRANCH  10  12
ATOM     12  C   UNL     1       0.096  -6.836   0.164  0.00  0.00    +0.155 C 
ATOM     13  C   UNL     1      -1.404  -7.073   0.346  0.00  0.00    +0.038 C 
BRANCH  12  14
ATOM     14  C   UNL     1       0.713  -8.024  -0.528  0.00  0.00    +0.236 C 
ATOM     15  O   UNL     1       0.835  -8.027  -1.735  0.00  0.00    -0.274 OA
ATOM     16  N   UNL     1       1.128  -9.084   0.193  0.00  0.00    -0.300 N 
ATOM     17  C   UNL     1       0.884  -9.146   1.641  0.00  0.00    +0.108 C 
ATOM     18  C   UNL     1       0.175 -10.465   1.964  0.00  0.00    +0.019 C 
ATOM     19  C   UNL     1       1.000 -11.632   1.415  0.00  0.00    +0.003 C 
ATOM     20  C   UNL     1       1.115 -11.506  -0.105  0.00  0.00    +0.019 C 
ATOM     21  C   UNL     1       1.829 -10.201  -0.454  0.00  0.00    +0.108 C 
ENDBRANCH  12  14
ENDBRANCH  10  12
TORSDOF 2
