REMARK  Name = ZINC40684308
REMARK  9 active torsions:
REMARK  status: ('A' for Active; 'I' for Inactive)
REMARK    1  A    between atoms: C_1  and  C_2
REMARK    2  A    between atoms: C_5  and  O_30
REMARK    3  A    between atoms: C_6  and  N_8
REMARK    4  A    between atoms: C_10  and  N_29
REMARK    5  A    between atoms: C_11  and  N_15
REMARK    6  A    between atoms: N_15  and  N_16
REMARK    7  A    between atoms: N_16  and  C_17
REMARK    8  A    between atoms: N_16  and  C_23
REMARK    9  A    between atoms: O_30  and  C_31
REMARK                            x       y       z     vdW  Elec       q    Type
REMARK                         _______ _______ _______ _____ _____    ______ ____
ROOT
ATOM      1  N   UNL     1       0.368  -1.765   2.323  0.00  0.00    -0.296 N 
ATOM      2  C   UNL     1       0.467  -1.296   3.628  0.00  0.00    +0.126 A 
ATOM      3  C   UNL     1       0.429  -2.184   4.705  0.00  0.00    +0.105 A 
ATOM      4  C   UNL     1       0.532  -1.660   5.995  0.00  0.00    +0.161 A 
ATOM      5  N   UNL     1       0.662  -0.344   6.148  0.00  0.00    -0.219 NA
ATOM      6  C   UNL     1       0.693   0.459   5.104  0.00  0.00    +0.200 A 
ATOM      7  N   UNL     1       0.605   0.006   3.870  0.00  0.00    -0.333 N 
ATOM      8  H   UNL     1       0.181  -2.702   2.157  0.00  0.00    +0.154 HD
ATOM      9  H   UNL     1       0.636   0.629   3.128  0.00  0.00    +0.168 HD
ENDROOT
BRANCH   1  15
ATOM     10  C   UNL     1      -1.568   0.775  -1.415  0.00  0.00    +0.044 C 
ATOM     11  C   UNL     1      -0.382   0.364  -0.581  0.00  0.00    -0.048 A 
ATOM     12  C   UNL     1       0.875   0.858  -0.879  0.00  0.00    +0.007 A 
ATOM     13  C   UNL     1       1.967   0.484  -0.118  0.00  0.00    +0.048 A 
ATOM     14  C   UNL     1       1.804  -0.386   0.947  0.00  0.00    +0.141 A 
ATOM     15  C   UNL     1       0.538  -0.884   1.248  0.00  0.00    +0.075 A 
ATOM     16  C   UNL     1      -0.554  -0.501   0.483  0.00  0.00    +0.030 A 
BRANCH  14  17
ATOM     17  O   UNL     1       2.878  -0.755   1.696  0.00  0.00    -0.493 OA
ATOM     18  C   UNL     1       4.145  -0.206   1.328  0.00  0.00    +0.277 C 
ENDBRANCH  14  17
ENDBRANCH   1  15
BRANCH   3  19
ATOM     19  N   UNL     1       0.290  -3.565   4.497  0.00  0.00    -0.353 N 
ATOM     20  H   UNL     1       0.219  -3.915   3.595  0.00  0.00    +0.143 HD
ATOM     21  H   UNL     1       0.265  -4.170   5.255  0.00  0.00    +0.143 HD
ENDBRANCH   3  19
BRANCH   4  22
ATOM     22  N   UNL     1       0.499  -2.499   7.102  0.00  0.00    -0.242 N 
ATOM     23  H   UNL     1       0.404  -3.457   6.982  0.00  0.00    +0.172 HD
BRANCH  22  24
ATOM     24  N   UNL     1       0.604  -1.962   8.392  0.00  0.00    -0.221 N 
BRANCH  24  25
ATOM     25  C   UNL     1      -0.484  -1.297   8.962  0.00  0.00    +0.053 A 
ATOM     26  C   UNL     1      -1.749  -1.871   8.924  0.00  0.00    +0.025 A 
ATOM     27  C   UNL     1      -2.822  -1.212   9.489  0.00  0.00    +0.002 A 
ATOM     28  C   UNL     1      -2.640   0.020  10.091  0.00  0.00    +0.000 A 
ATOM     29  C   UNL     1      -1.383   0.595  10.130  0.00  0.00    +0.002 A 
ATOM     30  C   UNL     1      -0.304  -0.063   9.573  0.00  0.00    +0.025 A 
ENDBRANCH  24  25
BRANCH  24  31
ATOM     31  C   UNL     1       1.797  -2.091   9.108  0.00  0.00    +0.053 A 
ATOM     32  C   UNL     1       1.777  -2.106  10.497  0.00  0.00    +0.025 A 
ATOM     33  C   UNL     1       2.958  -2.234  11.202  0.00  0.00    +0.002 A 
ATOM     34  C   UNL     1       4.159  -2.347  10.526  0.00  0.00    +0.000 A 
ATOM     35  C   UNL     1       4.183  -2.333   9.143  0.00  0.00    +0.002 A 
ATOM     36  C   UNL     1       3.005  -2.211   8.432  0.00  0.00    +0.025 A 
ENDBRANCH  24  31
ENDBRANCH  22  24
ENDBRANCH   4  22
TORSDOF 7
