REMARK  Name = ZINC40040628
REMARK  12 active torsions:
REMARK  status: ('A' for Active; 'I' for Inactive)
REMARK    1  A    between atoms: C_1  and  N_2
REMARK    2  A    between atoms: N_2  and  C_3
REMARK    3  A    between atoms: N_2  and  C_28
REMARK    4  A    between atoms: C_3  and  C_4
REMARK    5  A    between atoms: C_9  and  N_10
REMARK    6  A    between atoms: C_11  and  C_13
REMARK    7  A    between atoms: C_14  and  C_15
REMARK    8  A    between atoms: C_18  and  O_23
REMARK    9  A    between atoms: C_19  and  O_21
REMARK   10  A    between atoms: O_21  and  C_22
REMARK   11  A    between atoms: O_23  and  C_24
REMARK   12  A    between atoms: C_24  and  C_25
REMARK                            x       y       z     vdW  Elec       q    Type
REMARK                         _______ _______ _______ _____ _____    ______ ____
ROOT
ATOM      1  N   UNL     1       2.619  -1.906   0.321  0.00  0.00    -0.282 N 
ATOM      2  C   UNL     1       3.306  -2.311   1.407  0.00  0.00    +0.241 C 
ATOM      3  O   UNL     1       4.244  -1.650   1.815  0.00  0.00    -0.270 OA
ATOM      4  H   UNL     1       1.824  -2.388   0.043  0.00  0.00    +0.155 HD
ENDROOT
BRANCH   1  10
ATOM      5  C   UNL     1       2.147  -0.065  -1.167  0.00  0.00    -0.043 A 
ATOM      6  C   UNL     1       2.576   1.038  -1.879  0.00  0.00    +0.003 A 
ATOM      7  C   UNL     1       3.906   1.415  -1.838  0.00  0.00    +0.000 A 
ATOM      8  C   UNL     1       4.810   0.689  -1.084  0.00  0.00    +0.002 A 
ATOM      9  C   UNL     1       4.388  -0.415  -0.370  0.00  0.00    +0.023 A 
ATOM     10  C   UNL     1       3.051  -0.793  -0.405  0.00  0.00    +0.035 A 
BRANCH   5  11
ATOM     11  C   UNL     1       0.697  -0.475  -1.213  0.00  0.00    -0.041 C 
BRANCH  11  13
ATOM     12  C   UNL     1       0.002   1.479  -0.007  0.00  0.00    -0.095 C 
ATOM     13  N   UNL     1       0.013   0.010  -0.007  0.00  0.00    +0.382 N 
ATOM     14  H   UNL     1       0.500  -0.323   0.812  0.00  0.00    -0.081 HD
BRANCH  13  15
ATOM     15  C   UNL     1      -1.368  -0.490   0.007  0.00  0.00    -0.069 C 
ATOM     16  C   UNL     1      -2.080   0.014   1.264  0.00  0.00    -0.015 C 
ATOM     17  C   UNL     1      -3.519  -0.507   1.279  0.00  0.00    -0.002 C 
ATOM     18  C   UNL     1      -3.507  -2.037   1.278  0.00  0.00    -0.000 C 
ATOM     19  C   UNL     1      -2.795  -2.541   0.022  0.00  0.00    -0.002 C 
ATOM     20  C   UNL     1      -1.356  -2.020   0.007  0.00  0.00    -0.015 C 
ENDBRANCH  13  15
ENDBRANCH  11  13
ENDBRANCH   5  11
ENDBRANCH   1  10
BRANCH   2  21
ATOM     21  C   UNL     1       2.926  -3.543   2.096  0.00  0.00    +0.068 C 
ATOM     22  C   UNL     1       3.615  -3.949   3.184  0.00  0.00    +0.013 C 
BRANCH  22  23
ATOM     23  C   UNL     1       3.233  -5.188   3.877  0.00  0.00    -0.021 A 
ATOM     24  C   UNL     1       2.159  -5.952   3.406  0.00  0.00    +0.012 A 
ATOM     25  C   UNL     1       1.803  -7.113   4.056  0.00  0.00    +0.050 A 
ATOM     26  C   UNL     1       2.507  -7.528   5.179  0.00  0.00    +0.163 A 
ATOM     27  C   UNL     1       3.578  -6.772   5.654  0.00  0.00    +0.162 A 
ATOM     28  C   UNL     1       3.946  -5.610   5.005  0.00  0.00    +0.057 A 
BRANCH  27  29
ATOM     29  O   UNL     1       4.264  -7.182   6.754  0.00  0.00    -0.491 OA
ATOM     30  C   UNL     1       5.350  -6.359   7.186  0.00  0.00    +0.277 C 
ENDBRANCH  27  29
BRANCH  26  31
ATOM     31  O   UNL     1       2.152  -8.674   5.816  0.00  0.00    -0.479 OA
BRANCH  31  32
ATOM     32  C   UNL     1       1.045  -9.399   5.277  0.00  0.00    +0.324 C 
BRANCH  32  33
ATOM     33  C   UNL     1       0.799 -10.632   6.109  0.00  0.00    +0.248 C 
ATOM     34  O   UNL     1       1.502 -10.865   7.069  0.00  0.00    -0.272 OA
ATOM     35  N   UNL     1      -0.202 -11.474   5.785  0.00  0.00    -0.327 N 
ATOM     36  H   UNL     1      -0.764 -11.287   5.017  0.00  0.00    +0.145 HD
ATOM     37  H   UNL     1      -0.360 -12.267   6.321  0.00  0.00    +0.145 HD
ENDBRANCH  32  33
ENDBRANCH  31  32
ENDBRANCH  26  31
ENDBRANCH  22  23
ENDBRANCH   2  21
TORSDOF 10
