REMARK  Name = ZINC39672204
REMARK  6 active torsions:
REMARK  status: ('A' for Active; 'I' for Inactive)
REMARK    1  A    between atoms: C_1  and  C_2
REMARK    2  A    between atoms: C_2  and  C_8
REMARK    3  A    between atoms: C_12  and  C_21
REMARK    4  A    between atoms: N_23  and  C_24
REMARK    5  A    between atoms: C_24  and  C_25
REMARK    6  A    between atoms: N_34  and  C_35
REMARK                            x       y       z     vdW  Elec       q    Type
REMARK                         _______ _______ _______ _____ _____    ______ ____
ROOT
ATOM      1  C   UNL     1      -1.514  -0.400  -0.028  0.00  0.00    +0.222 C 
ATOM      2  O   UNL     1      -1.996  -1.053   0.873  0.00  0.00    -0.275 OA
ATOM      3  N   UNL     1      -2.263  -0.076  -1.100  0.00  0.00    -0.300 N 
ATOM      4  C   UNL     1      -1.827   0.616  -2.336  0.00  0.00    +0.121 C 
ATOM      5  C   UNL     1      -2.585  -0.104  -3.474  0.00  0.00    +0.100 C 
ATOM      6  C   UNL     1      -3.818  -0.722  -2.795  0.00  0.00    -0.004 C 
ATOM      7  C   UNL     1      -3.707  -0.336  -1.313  0.00  0.00    +0.115 C 
ATOM      8  C   UNL     1      -3.798  -2.240  -2.942  0.00  0.00    -0.010 C 
ATOM      9  C   UNL     1      -5.063  -2.826  -2.309  0.00  0.00    -0.082 C 
ATOM     10  N   UNL     1      -6.248  -2.266  -2.970  0.00  0.00    +0.379 N 
ATOM     11  C   UNL     1      -6.309  -0.817  -2.745  0.00  0.00    -0.082 C 
ATOM     12  C   UNL     1      -5.097  -0.146  -3.397  0.00  0.00    -0.010 C 
ATOM     13  H   UNL     1      -6.197  -2.450  -3.961  0.00  0.00    -0.086 HD
ATOM     14  H   UNL     1      -7.078  -2.699  -2.594  0.00  0.00    -0.086 HD
ENDROOT
BRANCH   1  16
ATOM     15  C   UNL     1       0.744  -0.679  -1.014  0.00  0.00    +0.021 C 
ATOM     16  C   UNL     1      -0.077   0.049   0.052  0.00  0.00    +0.044 C 
ATOM     17  C   UNL     1       0.482  -0.278   1.438  0.00  0.00    +0.016 C 
ATOM     18  C   UNL     1      -0.339   0.449   2.504  0.00  0.00    +0.001 C 
ATOM     19  C   UNL     1      -0.262   1.959   2.266  0.00  0.00    +0.000 C 
ATOM     20  C   UNL     1      -0.822   2.285   0.880  0.00  0.00    +0.001 C 
ATOM     21  C   UNL     1      -0.001   1.558  -0.186  0.00  0.00    +0.016 C 
ENDBRANCH   1  16
BRANCH   5  22
ATOM     22  C   UNL     1      -3.004   0.884  -4.532  0.00  0.00    +0.218 C 
ATOM     23  O   UNL     1      -3.303   2.017  -4.220  0.00  0.00    -0.275 OA
ATOM     24  N   UNL     1      -3.048   0.508  -5.826  0.00  0.00    -0.311 N 
ATOM     25  H   UNL     1      -2.810  -0.399  -6.076  0.00  0.00    +0.149 HD
BRANCH  24  26
ATOM     26  C   UNL     1      -3.456   1.468  -6.854  0.00  0.00    +0.139 C 
BRANCH  26  27
ATOM     27  C   UNL     1      -3.421   0.802  -8.206  0.00  0.00    -0.030 A 
ATOM     28  C   UNL     1      -2.262   0.830  -8.959  0.00  0.00    +0.007 A 
ATOM     29  C   UNL     1      -2.230   0.221 -10.197  0.00  0.00    +0.024 A 
ATOM     30  C   UNL     1      -3.363  -0.421 -10.686  0.00  0.00    +0.033 A 
ATOM     31  C   UNL     1      -4.523  -0.452  -9.929  0.00  0.00    -0.026 A 
ATOM     32  C   UNL     1      -4.545   0.159  -8.687  0.00  0.00    +0.010 A 
ATOM     33  C   UNL     1      -5.766  -1.146 -10.422  0.00  0.00    +0.038 C 
ATOM     34  C   UNL     1      -5.722  -1.307 -11.941  0.00  0.00    +0.024 C 
ATOM     35  C   UNL     1      -4.386  -1.951 -12.334  0.00  0.00    +0.105 C 
ATOM     36  N   UNL     1      -3.311  -1.028 -11.946  0.00  0.00    -0.333 N 
ATOM     37  C   UNL     1      -2.204  -0.746 -12.863  0.00  0.00    +0.129 C 
ENDBRANCH  26  27
ENDBRANCH  24  26
ENDBRANCH   5  22
TORSDOF 4
