REMARK  Name = ZINC61699832
REMARK  6 active torsions:
REMARK  status: ('A' for Active; 'I' for Inactive)
REMARK    1  A    between atoms: C_1  and  C_2
REMARK    2  A    between atoms: C_2  and  C_4
REMARK    3  A    between atoms: C_2  and  N_22
REMARK    4  A    between atoms: C_7  and  O_11
REMARK    5  A    between atoms: O_11  and  C_12
REMARK    6  A    between atoms: C_17  and  N_18
REMARK                            x       y       z     vdW  Elec       q    Type
REMARK                         _______ _______ _______ _____ _____    ______ ____
ROOT
ATOM      1  C   UNL     1       0.752  -0.490  -1.213  0.00  0.00    -0.061 A 
ATOM      2  C   UNL     1       0.055  -0.554  -2.405  0.00  0.00    +0.005 A 
ATOM      3  C   UNL     1       0.683  -1.000  -3.552  0.00  0.00    +0.047 A 
ATOM      4  C   UNL     1       2.016  -1.383  -3.507  0.00  0.00    +0.142 A 
ATOM      5  C   UNL     1       2.715  -1.316  -2.309  0.00  0.00    +0.060 A 
ATOM      6  C   UNL     1       2.082  -0.865  -1.166  0.00  0.00    +0.021 A 
ATOM      7 BR   UNL     1       4.531  -1.837  -2.242  0.00  0.00    -0.046 Br
ENDROOT
BRANCH   1   9
ATOM      8  C   UNL     1       0.005   1.525   0.024  0.00  0.00    -0.009 C 
ATOM      9  C   UNL     1       0.063  -0.004   0.036  0.00  0.00    -0.047 C 
BRANCH   9  10
ATOM     10  N   UNL     1      -1.301  -0.546   0.085  0.00  0.00    +0.382 N 
ATOM     11  H   UNL     1      -1.816  -0.235  -0.725  0.00  0.00    -0.089 HD
ATOM     12  H   UNL     1      -1.262  -1.554   0.093  0.00  0.00    -0.089 HD
ATOM     13  H   UNL     1      -1.762  -0.220   0.921  0.00  0.00    -0.089 HD
ENDBRANCH   9  10
ENDBRANCH   1   9
BRANCH   4  14
ATOM     14  O   UNL     1       2.637  -1.822  -4.633  0.00  0.00    -0.453 OA
BRANCH  14  15
ATOM     15  C   UNL     1       2.749  -3.164  -4.818  0.00  0.00    +0.159 A 
ATOM     16  C   UNL     1       2.134  -4.040  -3.936  0.00  0.00    +0.051 A 
ATOM     17  C   UNL     1       2.249  -5.403  -4.125  0.00  0.00    +0.042 A 
ATOM     18  C   UNL     1       2.978  -5.896  -5.195  0.00  0.00    +0.126 A 
ATOM     19  C   UNL     1       3.592  -5.022  -6.076  0.00  0.00    +0.074 A 
ATOM     20  C   UNL     1       3.473  -3.658  -5.893  0.00  0.00    +0.171 A 
ATOM     21  F   UNL     1       3.089  -7.229  -5.378  0.00  0.00    -0.205 F 
BRANCH  20  22
ATOM     22  N   UNL     1       4.125  -2.725  -6.839  0.00  0.00    +0.060 N 
ATOM     23  O   UNL     1       4.757  -3.156  -7.775  0.00  0.00    -0.126 OA
ATOM     24  O   UNL     1       4.026  -1.531  -6.675  0.00  0.00    -0.126 OA
ENDBRANCH  20  22
ENDBRANCH  14  15
ENDBRANCH   4  14
TORSDOF 5
