REMARK  Name = ZINC67102006
REMARK  4 active torsions:
REMARK  status: ('A' for Active; 'I' for Inactive)
REMARK    1  A    between atoms: C_1  and  C_2
REMARK    2  A    between atoms: C_6  and  C_7
REMARK    3  A    between atoms: N_9  and  N_10
REMARK    4  A    between atoms: C_17  and  C_19
REMARK                            x       y       z     vdW  Elec       q    Type
REMARK                         _______ _______ _______ _____ _____    ______ ____
ROOT
ATOM      1  N   UNL     1       0.059  -0.732   4.900  0.00  0.00    -0.218 N 
ATOM      2  C   UNL     1       0.182  -1.623   5.904  0.00  0.00    +0.319 C 
ATOM      3  O   UNL     1       0.187  -1.241   7.058  0.00  0.00    -0.251 OA
ATOM      4  N   UNL     1       0.299  -2.937   5.628  0.00  0.00    -0.277 N 
ATOM      5  C   UNL     1       0.417  -3.525   4.281  0.00  0.00    +0.110 C 
ATOM      6  C   UNL     1      -0.093  -4.979   4.438  0.00  0.00    +0.021 C 
ATOM      7  C   UNL     1       0.448  -5.349   5.844  0.00  0.00    +0.029 C 
ATOM      8  C   UNL     1       0.336  -4.021   6.621  0.00  0.00    +0.108 C 
ATOM      9  H   UNL     1      -0.018  -1.041   3.984  0.00  0.00    +0.174 HD
ENDROOT
BRANCH   8  10
ATOM     10  C   UNL     1       1.530  -3.848   7.523  0.00  0.00    -0.027 A 
ATOM     11  C   UNL     1       2.731  -3.404   7.002  0.00  0.00    +0.008 A 
ATOM     12  C   UNL     1       3.827  -3.245   7.829  0.00  0.00    +0.038 A 
ATOM     13  C   UNL     1       3.722  -3.532   9.180  0.00  0.00    +0.123 A 
ATOM     14  C   UNL     1       2.519  -3.977   9.700  0.00  0.00    +0.038 A 
ATOM     15  C   UNL     1       1.423  -4.130   8.873  0.00  0.00    +0.008 A 
ATOM     16  F   UNL     1       4.793  -3.377   9.989  0.00  0.00    -0.205 F 
ENDBRANCH   8  10
BRANCH   1  19
ATOM     17  C   UNL     1       0.023   1.534   4.171  0.00  0.00    +0.267 C 
ATOM     18  O   UNL     1       0.018   1.148   3.017  0.00  0.00    -0.268 OA
ATOM     19  N   UNL     1       0.044   0.641   5.180  0.00  0.00    -0.229 N 
ATOM     20  H   UNL     1       0.048   0.949   6.100  0.00  0.00    +0.173 HD
BRANCH  17  26
ATOM     21  C   UNL     1      -0.025   3.851   2.088  0.00  0.00    +0.045 C 
ATOM     22  C   UNL     1      -0.015   4.042   3.583  0.00  0.00    -0.031 A 
ATOM     23  C   UNL     1      -0.032   5.289   4.161  0.00  0.00    +0.011 A 
ATOM     24  C   UNL     1      -0.022   5.389   5.513  0.00  0.00    +0.046 A 
ATOM     25  S   UNL     1       0.011   3.795   6.044  0.00  0.00    -0.092 S 
ATOM     26  C   UNL     1       0.007   2.970   4.463  0.00  0.00    +0.078 A 
ENDBRANCH  17  26
ENDBRANCH   1  19
TORSDOF 3
