REMARK  Name = ZINC09544575
REMARK  6 active torsions:
REMARK  status: ('A' for Active; 'I' for Inactive)
REMARK    1  A    between atoms: C_1  and  N_2
REMARK    2  A    between atoms: N_2  and  C_3
REMARK    3  A    between atoms: N_2  and  S_9
REMARK    4  A    between atoms: S_9  and  C_12
REMARK    5  A    between atoms: C_15  and  N_18
REMARK    6  A    between atoms: C_19  and  C_21
REMARK                            x       y       z     vdW  Elec       q    Type
REMARK                         _______ _______ _______ _____ _____    ______ ____
ROOT
ATOM      1  C   UNL     1      -2.055  12.067  -0.999  0.00  0.00    +0.106 A 
ATOM      2  C   UNL     1      -3.119  11.650  -0.221  0.00  0.00    +0.030 A 
ATOM      3  C   UNL     1      -3.178  10.347   0.231  0.00  0.00    +0.025 A 
ATOM      4  C   UNL     1      -2.166   9.454  -0.097  0.00  0.00    +0.034 A 
ATOM      5  C   UNL     1      -1.095   9.877  -0.873  0.00  0.00    +0.025 A 
ATOM      6  C   UNL     1      -1.046  11.180  -1.327  0.00  0.00    +0.030 A 
ENDROOT
BRANCH   4   7
ATOM      7  N   UNL     1      -2.223   8.132   0.359  0.00  0.00    -0.282 N 
ATOM      8  C   UNL     1      -3.411   7.506   0.466  0.00  0.00    +0.261 C 
ATOM      9  O   UNL     1      -4.438   8.113   0.247  0.00  0.00    -0.271 OA
ATOM     10  H   UNL     1      -1.406   7.667   0.599  0.00  0.00    +0.155 HD
BRANCH   8  11
ATOM     11  C   UNL     1      -3.465   6.052   0.857  0.00  0.00    +0.296 C 
ATOM     12  C   UNL     1      -2.941   5.881   2.289  0.00  0.00    +0.283 C 
ATOM     13  O   UNL     1      -3.018   4.494   2.632  0.00  0.00    -0.484 OA
ATOM     14  C   UNL     1      -4.181   3.853   2.332  0.00  0.00    +0.162 A 
ATOM     15  C   UNL     1      -4.471   2.644   2.946  0.00  0.00    +0.049 A 
ATOM     16  C   UNL     1      -5.644   1.978   2.645  0.00  0.00    +0.004 A 
ATOM     17  C   UNL     1      -6.535   2.520   1.738  0.00  0.00    +0.004 A 
ATOM     18  C   UNL     1      -6.255   3.727   1.126  0.00  0.00    +0.049 A 
ATOM     19  C   UNL     1      -5.078   4.399   1.422  0.00  0.00    +0.163 A 
ATOM     20  O   UNL     1      -4.819   5.591   0.817  0.00  0.00    -0.473 OA
ENDBRANCH   8  11
ENDBRANCH   4   7
BRANCH   1  21
ATOM     21  S   UNL     1      -1.984  13.731  -1.573  0.00  0.00    +0.061 S 
ATOM     22  O   UNL     1      -1.165  13.726  -2.734  0.00  0.00    -0.153 OA
ATOM     23  O   UNL     1      -3.320  14.214  -1.586  0.00  0.00    -0.153 OA
BRANCH  21  25
ATOM     24  C   UNL     1       0.282  14.751  -0.505  0.00  0.00    +0.132 C 
ATOM     25  N   UNL     1      -1.174  14.611  -0.427  0.00  0.00    -0.177 NA
BRANCH  25  26
ATOM     26  C   UNL     1      -1.913  15.248   0.665  0.00  0.00    +0.080 C 
ATOM     27  C   UNL     1      -1.690  16.761   0.617  0.00  0.00    +0.020 C 
ATOM     28  C   UNL     1      -2.462  17.427   1.758  0.00  0.00    +0.002 C 
ATOM     29  C   UNL     1      -1.966  16.880   3.098  0.00  0.00    +0.000 C 
ATOM     30  C   UNL     1      -2.189  15.368   3.145  0.00  0.00    +0.002 C 
ATOM     31  C   UNL     1      -1.417  14.702   2.005  0.00  0.00    +0.020 C 
ENDBRANCH  25  26
ENDBRANCH  21  25
ENDBRANCH   1  21
TORSDOF 5
