REMARK  Name = ZINC06321292
REMARK  15 active torsions:
REMARK  status: ('A' for Active; 'I' for Inactive)
REMARK    1  A    between atoms: C_1  and  C_2
REMARK    2  A    between atoms: C_6  and  C_15
REMARK    3  A    between atoms: C_13  and  C_14
REMARK    4  A    between atoms: C_15  and  C_17
REMARK    5  A    between atoms: C_15  and  N_71
REMARK    6  A    between atoms: N_21  and  C_22
REMARK    7  A    between atoms: C_22  and  C_23
REMARK    8  A    between atoms: C_23  and  O_24
REMARK    9  A    between atoms: O_24  and  C_25
REMARK   10  A    between atoms: C_26  and  C_27
REMARK   11  A    between atoms: C_26  and  N_71
REMARK   12  A    between atoms: C_30  and  O_33
REMARK   13  A    between atoms: O_33  and  C_34
REMARK   14  A    between atoms: C_35  and  C_36
REMARK   15  A    between atoms: C_35  and  N_71
REMARK                            x       y       z     vdW  Elec       q    Type
REMARK                         _______ _______ _______ _____ _____    ______ ____
ROOT
ATOM      1  C   UNL     1      -4.867   3.545   0.096  0.00  0.00    +0.040 C 
ENDROOT
BRANCH   1   7
ATOM      2  C   UNL     1       2.063   0.807  -0.204  0.00  0.00    +0.044 C 
ATOM      3  C   UNL     1       0.570   0.605  -0.183  0.00  0.00    -0.047 A 
ATOM      4  C   UNL     1      -0.259   1.687  -0.097  0.00  0.00    +0.013 A 
ATOM      5  C   UNL     1      -1.644   1.500  -0.078  0.00  0.00    -0.001 A 
ATOM      6  C   UNL     1      -2.561   2.637   0.012  0.00  0.00    +0.017 A 
ATOM      7  C   UNL     1      -3.896   2.396   0.010  0.00  0.00    +0.011 A 
ATOM      8  C   UNL     1      -4.378   1.071  -0.061  0.00  0.00    +0.251 A 
ATOM      9  O   UNL     1      -5.581   0.875  -0.051  0.00  0.00    -0.268 OA
ATOM     10  N   UNL     1      -3.544   0.019  -0.139  0.00  0.00    -0.322 N 
ATOM     11  H   UNL     1      -3.909  -0.878  -0.186  0.00  0.00    +0.169 HD
ATOM     12  C   UNL     1      -2.177   0.198  -0.152  0.00  0.00    +0.049 A 
ATOM     13  C   UNL     1      -1.313  -0.889  -0.233  0.00  0.00    +0.030 A 
ATOM     14  C   UNL     1       0.049  -0.680  -0.250  0.00  0.00    -0.046 A 
ATOM     15  C   UNL     1       0.983  -1.859  -0.343  0.00  0.00    +0.044 C 
ENDBRANCH   1   7
BRANCH   1  16
ATOM     16  C   UNL     1      -5.683   3.418   1.357  0.00  0.00    +0.143 A 
ATOM     17  N   UNL     1      -6.669   2.581   1.570  0.00  0.00    -0.115 NA
ATOM     18  N   UNL     1      -7.109   2.780   2.765  0.00  0.00    -0.023 NA
ATOM     19  N   UNL     1      -6.434   3.728   3.316  0.00  0.00    -0.044 NA
ATOM     20  N   UNL     1      -5.545   4.147   2.480  0.00  0.00    -0.228 N 
BRANCH  20  21
ATOM     21  C   UNL     1      -4.570   5.216   2.709  0.00  0.00    +0.175 C 
BRANCH  21  22
ATOM     22  C   UNL     1      -5.169   6.555   2.277  0.00  0.00    +0.183 C 
BRANCH  22  23
ATOM     23  O   UNL     1      -4.218   7.598   2.501  0.00  0.00    -0.381 OA
ATOM     24  C   UNL     1      -4.680   8.897   2.128  0.00  0.00    +0.194 C 
ENDBRANCH  22  23
ENDBRANCH  21  22
ENDBRANCH  20  21
ENDBRANCH   1  16
BRANCH   1  25
ATOM     25  N   UNL     1      -5.779   3.499  -1.066  0.00  0.00    +0.397 N 
ATOM     26  H   UNL     1      -6.480   2.765  -0.911  0.00  0.00    -0.079 HD
BRANCH  25  27
ATOM     27  C   UNL     1      -5.019   3.186  -2.293  0.00  0.00    -0.041 C 
BRANCH  27  28
ATOM     28  C   UNL     1      -5.966   2.609  -3.313  0.00  0.00    -0.064 A 
ATOM     29  C   UNL     1      -6.283   1.264  -3.279  0.00  0.00    +0.005 A 
ATOM     30  C   UNL     1      -7.156   0.734  -4.209  0.00  0.00    +0.046 A 
ATOM     31  C   UNL     1      -7.706   1.551  -5.186  0.00  0.00    +0.120 A 
ATOM     32  C   UNL     1      -7.383   2.900  -5.222  0.00  0.00    +0.046 A 
ATOM     33  C   UNL     1      -6.514   3.426  -4.286  0.00  0.00    +0.005 A 
BRANCH  31  34
ATOM     34  O   UNL     1      -8.561   1.031  -6.106  0.00  0.00    -0.495 OA
ATOM     35  C   UNL     1      -8.849  -0.365  -6.008  0.00  0.00    +0.277 C 
ENDBRANCH  31  34
ENDBRANCH  27  28
ENDBRANCH  25  27
BRANCH  25  36
ATOM     36  C   UNL     1      -6.470   4.797  -1.217  0.00  0.00    -0.001 C 
BRANCH  36  37
ATOM     37  C   UNL     1      -5.477   5.892  -1.512  0.00  0.00    +0.089 A 
ATOM     38  C   UNL     1      -5.173   6.371  -2.732  0.00  0.00    +0.042 A 
ATOM     39  C   UNL     1      -4.203   7.382  -2.545  0.00  0.00    +0.041 A 
ATOM     40  C   UNL     1      -3.971   7.460  -1.222  0.00  0.00    +0.195 A 
ATOM     41  O   UNL     1      -4.750   6.560  -0.601  0.00  0.00    -0.470 OA
ENDBRANCH  36  37
ENDBRANCH  25  36
ENDBRANCH   1  25
TORSDOF 11
