REMARK  Name = ZINC20355875
REMARK  8 active torsions:
REMARK  status: ('A' for Active; 'I' for Inactive)
REMARK    1  A    between atoms: C_1  and  C_2
REMARK    2  A    between atoms: C_5  and  S_9
REMARK    3  A    between atoms: C_7  and  C_8
REMARK    4  A    between atoms: S_9  and  C_12
REMARK    5  A    between atoms: C_15  and  S_20
REMARK    6  A    between atoms: S_20  and  C_21
REMARK    7  A    between atoms: C_21  and  C_22
REMARK    8  A    between atoms: N_24  and  C_25
REMARK                            x       y       z     vdW  Elec       q    Type
REMARK                         _______ _______ _______ _____ _____    ______ ____
ROOT
ATOM      1  C   UNL     1      -1.204   1.744   0.080  0.00  0.00    +0.176 A 
ATOM      2  C   UNL     1      -0.012   1.078   0.062  0.00  0.00    +0.146 A 
ATOM      3  N   UNL     1       1.132   1.758   0.044  0.00  0.00    -0.230 NA
ATOM      4  C   UNL     1       1.147   3.077   0.049  0.00  0.00    +0.169 A 
ATOM      5  N   UNL     1      -0.011   3.794   0.073  0.00  0.00    -0.300 N 
ATOM      6  H   UNL     1       0.023   4.893   0.077  0.00  0.00    +0.171 HD
ATOM      7  C   UNL     1      -1.198   3.150   0.091  0.00  0.00    +0.277 A 
ATOM      8  O   UNL     1      -2.244   3.776   0.112  0.00  0.00    -0.266 OA
ENDROOT
BRANCH   1   9
ATOM      9  S   UNL     1      -2.726   0.856   0.096  0.00  0.00    +0.032 S 
ATOM     10  O   UNL     1      -3.541   1.429  -0.916  0.00  0.00    -0.164 OA
ATOM     11  O   UNL     1      -2.390  -0.525   0.113  0.00  0.00    -0.164 OA
BRANCH   9  16
ATOM     12  C   UNL     1      -5.426   2.038   5.361  0.00  0.00    +0.044 C 
ATOM     13  C   UNL     1      -4.752   1.742   4.046  0.00  0.00    -0.047 A 
ATOM     14  C   UNL     1      -3.889   0.667   3.938  0.00  0.00    +0.005 A 
ATOM     15  C   UNL     1      -3.274   0.394   2.730  0.00  0.00    +0.027 A 
ATOM     16  C   UNL     1      -3.514   1.201   1.634  0.00  0.00    +0.094 A 
ATOM     17  C   UNL     1      -4.377   2.275   1.742  0.00  0.00    +0.031 A 
ATOM     18  C   UNL     1      -4.996   2.546   2.948  0.00  0.00    -0.046 A 
ATOM     19  C   UNL     1      -5.937   3.717   3.066  0.00  0.00    +0.044 C 
ENDBRANCH   9  16
ENDBRANCH   1   9
BRANCH   4  20
ATOM     20  S   UNL     1       2.691   3.925   0.025  0.00  0.00    -0.078 S 
BRANCH  20  21
ATOM     21  C   UNL     1       3.825   2.514  -0.002  0.00  0.00    +0.173 C 
BRANCH  21  22
ATOM     22  C   UNL     1       5.246   3.013  -0.026  0.00  0.00    +0.228 C 
ATOM     23  O   UNL     1       5.471   4.205  -0.025  0.00  0.00    -0.275 OA
ATOM     24  N   UNL     1       6.268   2.134  -0.048  0.00  0.00    -0.283 N 
ATOM     25  H   UNL     1       6.067   1.055   0.025  0.00  0.00    +0.155 HD
BRANCH  24  26
ATOM     26  C   UNL     1       7.587   2.596  -0.165  0.00  0.00    +0.069 A 
ATOM     27  C   UNL     1       7.959   3.794   0.429  0.00  0.00    +0.029 A 
ATOM     28  C   UNL     1       9.259   4.247   0.314  0.00  0.00    +0.040 A 
ATOM     29  C   UNL     1      10.191   3.507  -0.393  0.00  0.00    +0.126 A 
ATOM     30  C   UNL     1       9.824   2.311  -0.987  0.00  0.00    +0.078 A 
ATOM     31  C   UNL     1       8.525   1.851  -0.870  0.00  0.00    +0.147 A 
ATOM     32  F   UNL     1       8.167   0.682  -1.445  0.00  0.00    -0.203 F 
ATOM     33  F   UNL     1      11.462   3.952  -0.504  0.00  0.00    -0.205 F 
ENDBRANCH  24  26
ENDBRANCH  21  22
ENDBRANCH  20  21
ENDBRANCH   4  20
TORSDOF 6
