REMARK  Name = ZINC09229674
REMARK  11 active torsions:
REMARK  status: ('A' for Active; 'I' for Inactive)
REMARK    1  A    between atoms: C_1  and  C_2
REMARK    2  A    between atoms: C_6  and  C_35
REMARK    3  A    between atoms: C_7  and  N_8
REMARK    4  A    between atoms: N_8  and  S_9
REMARK    5  A    between atoms: S_9  and  C_12
REMARK    6  A    between atoms: C_15  and  N_18
REMARK    7  A    between atoms: N_18  and  C_19
REMARK    8  A    between atoms: C_19  and  N_21
REMARK    9  A    between atoms: C_22  and  C_24
REMARK   10  A    between atoms: C_25  and  C_26
REMARK   11  A    between atoms: C_29  and  N_32
REMARK                            x       y       z     vdW  Elec       q    Type
REMARK                         _______ _______ _______ _____ _____    ______ ____
ROOT
ATOM      1  C   UNL     1       0.528  -0.597   0.461  0.00  0.00    +0.109 A 
ATOM      2  C   UNL     1      -0.642  -0.307   1.139  0.00  0.00    +0.030 A 
ATOM      3  C   UNL     1      -1.066   1.002   1.259  0.00  0.00    +0.025 A 
ATOM      4  C   UNL     1      -0.316   2.027   0.696  0.00  0.00    +0.033 A 
ATOM      5  C   UNL     1       0.859   1.732   0.016  0.00  0.00    +0.025 A 
ATOM      6  C   UNL     1       1.277   0.421  -0.099  0.00  0.00    +0.030 A 
ENDROOT
BRANCH   1   7
ATOM      7  S   UNL     1       1.065  -2.269   0.311  0.00  0.00    +0.072 S 
ATOM      8  O   UNL     1       2.447  -2.224  -0.013  0.00  0.00    -0.150 OA
ATOM      9  O   UNL     1       0.572  -2.957   1.453  0.00  0.00    -0.150 OA
BRANCH   7  10
ATOM     10  N   UNL     1       0.291  -2.916  -1.002  0.00  0.00    -0.216 N 
ATOM     11  H   UNL     1      -0.452  -3.526  -0.875  0.00  0.00    +0.174 HD
BRANCH  10  18
ATOM     12  C   UNL     1      -1.333  -1.144  -2.524  0.00  0.00    +0.046 C 
ATOM     13  C   UNL     1      -0.053  -1.722  -3.071  0.00  0.00    -0.028 A 
ATOM     14  C   UNL     1       0.365  -1.391  -4.345  0.00  0.00    +0.005 A 
ATOM     15  C   UNL     1       1.537  -1.925  -4.850  0.00  0.00    +0.001 A 
ATOM     16  C   UNL     1       2.296  -2.787  -4.079  0.00  0.00    +0.005 A 
ATOM     17  C   UNL     1       1.885  -3.118  -2.803  0.00  0.00    -0.028 A 
ATOM     18  C   UNL     1       0.709  -2.583  -2.293  0.00  0.00    +0.054 A 
ATOM     19  C   UNL     1       2.713  -4.057  -1.964  0.00  0.00    +0.046 C 
ENDBRANCH  10  18
ENDBRANCH   7  10
ENDBRANCH   1   7
BRANCH   4  20
ATOM     20  N   UNL     1      -0.742   3.354   0.815  0.00  0.00    -0.297 N 
ATOM     21  H   UNL     1      -0.657   3.960   0.062  0.00  0.00    +0.154 HD
BRANCH  20  22
ATOM     22  C   UNL     1      -1.272   3.791   1.975  0.00  0.00    +0.141 C 
ATOM     23  S   UNL     1      -1.294   2.765   3.345  0.00  0.00    -0.018 S 
BRANCH  22  24
ATOM     24  N   UNL     1      -1.784   5.035   2.056  0.00  0.00    -0.264 N 
ATOM     25  C   UNL     1      -2.313   5.471   3.216  0.00  0.00    +0.242 C 
ATOM     26  O   UNL     1      -2.329   4.742   4.190  0.00  0.00    -0.270 OA
ATOM     27  H   UNL     1      -1.771   5.616   1.280  0.00  0.00    +0.157 HD
BRANCH  25  28
ATOM     28  C   UNL     1      -2.869   6.822   3.304  0.00  0.00    +0.068 C 
ATOM     29  C   UNL     1      -3.399   7.259   4.465  0.00  0.00    +0.013 C 
BRANCH  29  30
ATOM     30  C   UNL     1      -3.958   8.618   4.553  0.00  0.00    -0.025 A 
ATOM     31  C   UNL     1      -3.936   9.461   3.438  0.00  0.00    +0.010 A 
ATOM     32  C   UNL     1      -4.466  10.730   3.527  0.00  0.00    +0.033 A 
ATOM     33  C   UNL     1      -5.010  11.175   4.720  0.00  0.00    +0.126 A 
ATOM     34  C   UNL     1      -5.030  10.348   5.830  0.00  0.00    +0.033 A 
ATOM     35  C   UNL     1      -4.509   9.074   5.755  0.00  0.00    +0.010 A 
BRANCH  33  36
ATOM     36  N   UNL     1      -5.572  12.541   4.809  0.00  0.00    +0.056 N 
ATOM     37  O   UNL     1      -6.051  12.936   5.857  0.00  0.00    -0.126 OA
ATOM     38  O   UNL     1      -5.556  13.271   3.834  0.00  0.00    -0.126 OA
ENDBRANCH  33  36
ENDBRANCH  29  30
ENDBRANCH  25  28
ENDBRANCH  22  24
ENDBRANCH  20  22
ENDBRANCH   4  20
TORSDOF 9
