REMARK  Name = ZINC19901701
REMARK  5 active torsions:
REMARK  status: ('A' for Active; 'I' for Inactive)
REMARK    1  A    between atoms: C_1  and  C_2
REMARK    2  A    between atoms: C_3  and  C_12
REMARK    3  A    between atoms: C_12  and  C_14
REMARK    4  A    between atoms: C_12  and  N_23
REMARK    5  A    between atoms: C_18  and  N_20
REMARK                            x       y       z     vdW  Elec       q    Type
REMARK                         _______ _______ _______ _____ _____    ______ ____
ROOT
ATOM      1  C   UNL     1      -0.065   5.317   0.019  0.00  0.00    +0.135 C 
ENDROOT
BRANCH   1   4
ATOM      2  C   UNL     1       2.223   6.408  -1.772  0.00  0.00    +0.063 C 
ATOM      3  C   UNL     1       0.772   6.316  -2.167  0.00  0.00    +0.019 A 
ATOM      4  C   UNL     1      -0.211   5.842  -1.386  0.00  0.00    +0.005 A 
ATOM      5  C   UNL     1      -1.452   5.927  -2.160  0.00  0.00    +0.005 A 
ATOM      6  C   UNL     1      -2.784   5.603  -1.896  0.00  0.00    +0.010 A 
ATOM      7  C   UNL     1      -3.736   5.815  -2.853  0.00  0.00    +0.001 A 
ATOM      8  C   UNL     1      -3.390   6.356  -4.084  0.00  0.00    +0.002 A 
ATOM      9  C   UNL     1      -2.083   6.689  -4.363  0.00  0.00    +0.026 A 
ATOM     10  C   UNL     1      -1.097   6.481  -3.403  0.00  0.00    +0.047 A 
ATOM     11  N   UNL     1       0.261   6.702  -3.377  0.00  0.00    -0.358 N 
ATOM     12  H   UNL     1       0.927   7.118  -4.147  0.00  0.00    +0.166 HD
ENDBRANCH   1   4
BRANCH   1  13
ATOM     13  N   UNL     1      -1.140   5.856   0.856  0.00  0.00    -0.318 N 
ATOM     14  C   UNL     1      -0.963   5.965   2.230  0.00  0.00    +0.119 A 
ATOM     15  C   UNL     1       0.238   5.561   2.805  0.00  0.00    +0.043 A 
ATOM     16  C   UNL     1       0.401   5.675   4.173  0.00  0.00    +0.005 A 
ATOM     17  C   UNL     1      -0.646   6.192   4.925  0.00  0.00    +0.020 A 
ATOM     18  C   UNL     1      -1.810   6.573   4.289  0.00  0.00    +0.113 A 
ATOM     19  N   UNL     1      -1.936   6.457   2.980  0.00  0.00    -0.241 NA
ATOM     20  H   UNL     1      -2.088   6.173   0.397  0.00  0.00    +0.148 HD
ENDBRANCH   1  13
BRANCH   1  21
ATOM     21  C   UNL     1      -0.147   3.812   0.004  0.00  0.00    -0.021 A 
ATOM     22  C   UNL     1      -1.380   3.186   0.013  0.00  0.00    +0.006 A 
ATOM     23  C   UNL     1      -1.454   1.806  -0.006  0.00  0.00    +0.003 A 
ATOM     24  C   UNL     1      -0.296   1.052  -0.024  0.00  0.00    +0.033 A 
ATOM     25  C   UNL     1       0.936   1.677  -0.033  0.00  0.00    +0.127 A 
ATOM     26  C   UNL     1       1.011   3.058  -0.019  0.00  0.00    +0.038 A 
BRANCH  25  27
ATOM     27  N   UNL     1       2.176   0.869  -0.057  0.00  0.00    +0.056 N 
ATOM     28  O   UNL     1       2.111  -0.347  -0.069  0.00  0.00    -0.126 OA
ATOM     29  O   UNL     1       3.263   1.421  -0.065  0.00  0.00    -0.126 OA
ENDBRANCH  25  27
ENDBRANCH   1  21
TORSDOF 4
