REMARK  Name = ZINC30883027
REMARK  12 active torsions:
REMARK  status: ('A' for Active; 'I' for Inactive)
REMARK    1  A    between atoms: C_1  and  C_2
REMARK    2  A    between atoms: C_4  and  C_31
REMARK    3  A    between atoms: C_6  and  C_28
REMARK    4  A    between atoms: C_9  and  C_11
REMARK    5  A    between atoms: C_11  and  C_12
REMARK    6  A    between atoms: C_15  and  C_17
REMARK    7  A    between atoms: C_17  and  C_18
REMARK    8  A    between atoms: C_28  and  C_29
REMARK    9  A    between atoms: C_28  and  C_30
REMARK   10  A    between atoms: C_31  and  N_32
REMARK   11  A    between atoms: N_32  and  C_33
REMARK   12  A    between atoms: C_33  and  C_34
REMARK                            x       y       z     vdW  Elec       q    Type
REMARK                         _______ _______ _______ _____ _____    ______ ____
ROOT
ATOM      1  C   UNL     1       2.021   0.063   1.663  0.00  0.00    +0.039 C 
ATOM      2  C   UNL     1       0.562  -0.225   1.419  0.00  0.00    -0.073 C 
ATOM      3  C   UNL     1      -0.116  -0.757   2.382  0.00  0.00    -0.026 C 
ATOM      4  C   UNL     1      -1.571  -1.110   2.288  0.00  0.00    -0.002 C 
ATOM      5  C   UNL     1      -2.214  -0.385   1.103  0.00  0.00    -0.003 C 
ATOM      6  C   UNL     1      -1.336  -0.607  -0.135  0.00  0.00    +0.012 C 
ATOM      7  C   UNL     1      -0.008   0.123   0.075  0.00  0.00    +0.024 C 
ENDROOT
BRANCH   5   8
ATOM      8  C   UNL     1      -3.612  -0.952   0.851  0.00  0.00    -0.014 C 
ATOM      9  C   UNL     1      -4.296  -0.148  -0.258  0.00  0.00    +0.007 C 
ATOM     10  C   UNL     1      -3.500  -2.416   0.424  0.00  0.00    +0.007 C 
ENDBRANCH   5   8
BRANCH   7  11
ATOM     11  C   UNL     1      -0.241   1.633  -0.001  0.00  0.00    +0.105 C 
BRANCH  11  12
ATOM     12  C   UNL     1       1.082   2.350   0.076  0.00  0.00    +0.218 A 
ATOM     13  N   UNL     1       1.844   2.672  -0.930  0.00  0.00    -0.112 NA
ATOM     14  N   UNL     1       2.893   3.277  -0.494  0.00  0.00    -0.112 NA
ATOM     15  C   UNL     1       2.840   3.354   0.805  0.00  0.00    +0.222 A 
ATOM     16  O   UNL     1       1.694   2.770   1.196  0.00  0.00    -0.424 OA
BRANCH  15  17
ATOM     17  C   UNL     1       3.873   3.982   1.705  0.00  0.00    +0.135 C 
BRANCH  17  18
ATOM     18  C   UNL     1       3.546   5.439   1.904  0.00  0.00    -0.013 A 
ATOM     19  C   UNL     1       4.049   6.472   1.209  0.00  0.00    +0.087 A 
ATOM     20  N   UNL     1       3.518   7.647   1.670  0.00  0.00    -0.360 N 
ATOM     21  H   UNL     1       3.813   8.601   1.210  0.00  0.00    +0.165 HD
ATOM     22  C   UNL     1       2.646   7.392   2.704  0.00  0.00    +0.047 A 
ATOM     23  C   UNL     1       2.625   5.998   2.896  0.00  0.00    +0.003 A 
ATOM     24  C   UNL     1       1.818   5.445   3.891  0.00  0.00    +0.010 A 
ATOM     25  C   UNL     1       1.052   6.260   4.676  0.00  0.00    +0.001 A 
ATOM     26  C   UNL     1       1.069   7.636   4.490  0.00  0.00    +0.002 A 
ATOM     27  C   UNL     1       1.858   8.203   3.514  0.00  0.00    +0.026 A 
ENDBRANCH  17  18
ENDBRANCH  15  17
ENDBRANCH  11  12
ENDBRANCH   7  11
BRANCH   4  28
ATOM     28  C   UNL     1      -2.278  -0.695   3.580  0.00  0.00    -0.074 C 
BRANCH  28  29
ATOM     29  N   UNL     1      -1.753  -1.486   4.701  0.00  0.00    +0.382 N 
ATOM     30  H   UNL     1      -1.933  -2.555   4.511  0.00  0.00    -0.085 HD
ATOM     31  H   UNL     1      -0.672  -1.309   4.801  0.00  0.00    -0.085 HD
BRANCH  29  32
ATOM     32  C   UNL     1      -2.410  -1.115   5.961  0.00  0.00    -0.045 C 
BRANCH  32  33
ATOM     33  C   UNL     1      -1.847  -1.946   7.085  0.00  0.00    -0.046 A 
ATOM     34  C   UNL     1      -2.428  -3.160   7.420  0.00  0.00    +0.005 A 
ATOM     35  C   UNL     1      -1.874  -3.892   8.458  0.00  0.00    +0.020 A 
ATOM     36  C   UNL     1      -0.775  -3.387   9.127  0.00  0.00    +0.111 A 
ATOM     37  N   UNL     1      -0.252  -2.226   8.785  0.00  0.00    -0.263 NA
ATOM     38  C   UNL     1      -0.750  -1.505   7.799  0.00  0.00    +0.112 A 
ENDBRANCH  32  33
ENDBRANCH  29  32
ENDBRANCH  28  29
ENDBRANCH   4  28
TORSDOF 9
