REMARK  Name = ZINC09524259
REMARK  6 active torsions:
REMARK  status: ('A' for Active; 'I' for Inactive)
REMARK    1  A    between atoms: C_3  and  C_6
REMARK    2  A    between atoms: C_15  and  C_16
REMARK    3  A    between atoms: C_21  and  N_34
REMARK    4  A    between atoms: C_22  and  C_24
REMARK    5  A    between atoms: N_26  and  C_27
REMARK    6  A    between atoms: C_27  and  C_28
REMARK                            x       y       z     vdW  Elec       q    Type
REMARK                         _______ _______ _______ _____ _____    ______ ____
ROOT
ATOM      1  C   UNL     1     -10.607  -2.223  -0.959  0.00  0.00    +0.052 C 
ATOM      2  C   UNL     1     -10.231  -1.440  -1.992  0.00  0.00    -0.018 C 
ATOM      3  C   UNL     1     -11.010  -1.221  -3.266  0.00  0.00    +0.042 C 
ATOM      4  C   UNL     1     -10.157  -0.257  -4.103  0.00  0.00    +0.043 C 
ATOM      5  C   UNL     1      -8.925   0.040  -3.281  0.00  0.00    -0.010 A 
ATOM      6  C   UNL     1      -8.991  -0.652  -2.071  0.00  0.00    +0.072 A 
ATOM      7  N   UNL     1      -7.997  -0.534  -1.183  0.00  0.00    -0.239 NA
ATOM      8  C   UNL     1      -6.947   0.218  -1.408  0.00  0.00    +0.112 A 
ATOM      9  C   UNL     1      -6.778   0.962  -2.599  0.00  0.00    +0.040 A 
ATOM     10  C   UNL     1      -7.831   0.850  -3.564  0.00  0.00    +0.034 A 
ATOM     11  C   UNL     1      -5.596   1.719  -2.686  0.00  0.00    +0.054 A 
ATOM     12  C   UNL     1      -4.698   1.693  -1.636  0.00  0.00    +0.097 A 
ATOM     13  S   UNL     1      -5.479   0.587  -0.475  0.00  0.00    -0.062 S 
ENDROOT
BRANCH   1  16
ATOM     14  C   UNL     1      -8.802  -3.134   2.079  0.00  0.00    +0.042 A 
ATOM     15  C   UNL     1      -9.965  -3.164   1.290  0.00  0.00    +0.049 A 
ATOM     16  C   UNL     1      -9.687  -2.457   0.154  0.00  0.00    +0.128 A 
ATOM     17  O   UNL     1      -8.414  -2.019   0.236  0.00  0.00    -0.464 OA
ATOM     18  C   UNL     1      -7.879  -2.421   1.399  0.00  0.00    +0.195 A 
ENDBRANCH   1  16
BRANCH  10  19
ATOM     19  C   UNL     1      -7.755   1.584  -4.840  0.00  0.00    +0.136 A 
ATOM     20  C   UNL     1      -6.899   1.319  -5.865  0.00  0.00    +0.050 A 
ATOM     21  C   UNL     1      -7.173   2.259  -6.875  0.00  0.00    +0.042 A 
ATOM     22  C   UNL     1      -8.173   3.044  -6.425  0.00  0.00    +0.196 A 
ATOM     23  O   UNL     1      -8.526   2.630  -5.198  0.00  0.00    -0.463 OA
ENDBRANCH  10  19
BRANCH  12  24
ATOM     24  C   UNL     1      -3.462   2.370  -1.515  0.00  0.00    +0.253 C 
ATOM     25  O   UNL     1      -3.071   3.091  -2.416  0.00  0.00    -0.270 OA
ATOM     26  N   UNL     1      -2.716   2.218  -0.403  0.00  0.00    -0.308 N 
ATOM     27  H   UNL     1      -3.027   1.644   0.315  0.00  0.00    +0.149 HD
BRANCH  26  28
ATOM     28  C   UNL     1      -1.436   2.919  -0.277  0.00  0.00    +0.136 C 
BRANCH  28  29
ATOM     29  C   UNL     1      -0.796   2.577   1.070  0.00  0.00    +0.135 C 
ATOM     30  C   UNL     1       0.548   3.316   1.215  0.00  0.00    +0.035 C 
ATOM     31  C   UNL     1       0.377   4.165   2.498  0.00  0.00    +0.031 C 
ATOM     32  C   UNL     1      -0.779   3.430   3.223  0.00  0.00    +0.160 C 
ATOM     33  O   UNL     1      -1.645   3.018   2.143  0.00  0.00    -0.375 OA
ENDBRANCH  28  29
ENDBRANCH  26  28
ENDBRANCH  12  24
BRANCH  11  34
ATOM     34  N   UNL     1      -5.335   2.486  -3.815  0.00  0.00    -0.356 N 
ATOM     35  H   UNL     1      -4.420   2.701  -4.053  0.00  0.00    +0.142 HD
ATOM     36  H   UNL     1      -6.067   2.805  -4.364  0.00  0.00    +0.142 HD
ENDBRANCH  11  34
TORSDOF 6
