REMARK  Name = ZINC09704220
REMARK  8 active torsions:
REMARK  status: ('A' for Active; 'I' for Inactive)
REMARK    1  A    between atoms: C_1  and  C_2
REMARK    2  A    between atoms: C_4  and  C_8
REMARK    3  A    between atoms: N_5  and  C_7
REMARK    4  A    between atoms: C_11  and  S_19
REMARK    5  A    between atoms: N_12  and  C_13
REMARK    6  A    between atoms: C_13  and  C_14
REMARK    7  A    between atoms: S_19  and  C_20
REMARK    8  A    between atoms: C_21  and  N_34
REMARK                            x       y       z     vdW  Elec       q    Type
REMARK                         _______ _______ _______ _____ _____    ______ ____
ROOT
ATOM      1  C   UNL     1       0.493  -3.749  -1.829  0.00  0.00    +0.183 A 
ATOM      2  N   UNL     1       0.435  -3.770  -3.142  0.00  0.00    -0.127 NA
ATOM      3  N   UNL     1       0.278  -4.977  -3.555  0.00  0.00    -0.122 NA
ATOM      4  C   UNL     1       0.227  -5.802  -2.532  0.00  0.00    +0.197 A 
ATOM      5  N   UNL     1       0.367  -5.051  -1.399  0.00  0.00    -0.293 N 
ENDROOT
BRANCH   1   9
ATOM      6  C   UNL     1       0.856  -0.703   2.215  0.00  0.00    +0.067 C 
ATOM      7  C   UNL     1       0.829  -1.200   0.793  0.00  0.00    +0.061 A 
ATOM      8  C   UNL     1       0.613  -2.520   0.398  0.00  0.00    +0.055 A 
ATOM      9  C   UNL     1       0.666  -2.558  -0.980  0.00  0.00    +0.106 A 
ATOM     10  N   UNL     1       0.910  -1.285  -1.407  0.00  0.00    -0.263 N 
ATOM     11  N   UNL     1       1.000  -0.465  -0.276  0.00  0.00    -0.176 NA
ATOM     12  C   UNL     1       1.047  -0.853  -2.800  0.00  0.00    +0.173 C 
ENDBRANCH   1   9
BRANCH   5  13
ATOM     13  C   UNL     1       0.378  -5.531  -0.015  0.00  0.00    +0.200 C 
BRANCH  13  14
ATOM     14  C   UNL     1      -1.021  -5.489   0.543  0.00  0.00    +0.125 A 
ATOM     15  C   UNL     1      -1.888  -6.517   0.570  0.00  0.00    +0.046 A 
ATOM     16  C   UNL     1      -3.073  -6.038   1.176  0.00  0.00    +0.041 A 
ATOM     17  C   UNL     1      -2.859  -4.746   1.482  0.00  0.00    +0.195 A 
ATOM     18  O   UNL     1      -1.613  -4.420   1.102  0.00  0.00    -0.466 OA
ENDBRANCH  13  14
ENDBRANCH   5  13
BRANCH   4  19
ATOM     19  S   UNL     1       0.021  -7.550  -2.609  0.00  0.00    -0.043 S 
BRANCH  19  20
ATOM     20  C   UNL     1       0.037  -7.906  -4.335  0.00  0.00    +0.101 A 
ATOM     21  C   UNL     1       1.075  -8.644  -4.873  0.00  0.00    +0.054 A 
ATOM     22  C   UNL     1       1.068  -8.931  -6.323  0.00  0.00    +0.031 A 
ATOM     23  C   UNL     1       2.069  -9.692  -7.092  0.00  0.00    -0.026 A 
ATOM     24  C   UNL     1       1.851  -9.823  -8.410  0.00  0.00    -0.004 A 
ATOM     25  S   UNL     1       0.325  -8.960  -8.707  0.00  0.00    -0.075 S 
ATOM     26  C   UNL     1      -0.007  -8.424  -7.048  0.00  0.00    +0.090 A 
ATOM     27  N   UNL     1      -1.005  -7.703  -6.471  0.00  0.00    -0.316 N 
ATOM     28  H   UNL     1      -1.732  -7.372  -7.021  0.00  0.00    +0.169 HD
ATOM     29  C   UNL     1      -1.005  -7.444  -5.149  0.00  0.00    +0.265 A 
ATOM     30  O   UNL     1      -1.917  -6.798  -4.658  0.00  0.00    -0.267 OA
ATOM     31  C   UNL     1       2.936 -10.612  -9.091  0.00  0.00    +0.043 C 
ATOM     32  C   UNL     1       4.109 -10.604  -8.086  0.00  0.00    +0.010 C 
ATOM     33  C   UNL     1       3.372 -10.418  -6.746  0.00  0.00    +0.037 C 
BRANCH  21  34
ATOM     34  N   UNL     1       2.103  -9.106  -4.068  0.00  0.00    -0.356 N 
ATOM     35  H   UNL     1       2.062  -8.977  -3.108  0.00  0.00    +0.142 HD
ATOM     36  H   UNL     1       2.864  -9.557  -4.465  0.00  0.00    +0.142 HD
ENDBRANCH  21  34
ENDBRANCH  19  20
ENDBRANCH   4  19
TORSDOF 6
