REMARK  Name = ZINC12657465
REMARK  8 active torsions:
REMARK  status: ('A' for Active; 'I' for Inactive)
REMARK    1  A    between atoms: C_4  and  C_7
REMARK    2  A    between atoms: C_7  and  C_9
REMARK    3  A    between atoms: C_7  and  O_20
REMARK    4  A    between atoms: N_11  and  C_12
REMARK    5  A    between atoms: O_20  and  C_21
REMARK    6  A    between atoms: C_21  and  C_23
REMARK    7  A    between atoms: C_26  and  N_32
REMARK    8  A    between atoms: C_27  and  N_29
REMARK                            x       y       z     vdW  Elec       q    Type
REMARK                         _______ _______ _______ _____ _____    ______ ____
ROOT
ATOM      1  C   UNL     1       1.552  -6.063  -0.565  0.00  0.00    +0.292 C 
ENDROOT
BRANCH   1   5
ATOM      2  C   UNL     1       2.006  -7.057   3.564  0.00  0.00    +0.000 A 
ATOM      3  C   UNL     1       1.326  -7.912   2.718  0.00  0.00    +0.000 A 
ATOM      4  C   UNL     1       1.179  -7.591   1.382  0.00  0.00    +0.008 A 
ATOM      5  C   UNL     1       1.712  -6.413   0.892  0.00  0.00    +0.002 A 
ATOM      6  C   UNL     1       2.396  -5.560   1.737  0.00  0.00    +0.008 A 
ATOM      7  C   UNL     1       2.539  -5.879   3.074  0.00  0.00    +0.000 A 
ENDBRANCH   1   5
BRANCH   1   8
ATOM      8  C   UNL     1       2.772  -6.512  -1.327  0.00  0.00    +0.263 C 
ATOM      9  O   UNL     1       3.496  -5.691  -1.851  0.00  0.00    -0.271 OA
ATOM     10  N   UNL     1       3.060  -7.825  -1.426  0.00  0.00    -0.282 N 
ATOM     11  H   UNL     1       2.443  -8.484  -1.072  0.00  0.00    +0.155 HD
BRANCH  10  12
ATOM     12  C   UNL     1       4.249  -8.236  -2.038  0.00  0.00    +0.036 A 
ATOM     13  C   UNL     1       4.287  -9.425  -2.754  0.00  0.00    +0.043 A 
ATOM     14  C   UNL     1       5.462  -9.826  -3.363  0.00  0.00    +0.044 A 
ATOM     15  C   UNL     1       6.602  -9.051  -3.249  0.00  0.00    +0.040 A 
ATOM     16  C   UNL     1       6.568  -7.868  -2.530  0.00  0.00    +0.044 A 
ATOM     17  C   UNL     1       5.394  -7.459  -1.925  0.00  0.00    +0.043 A 
ATOM     18 CL   UNL     1       8.001  -6.898  -2.390  0.00  0.00    -0.083 Cl
ATOM     19 CL   UNL     1       5.508 -11.309  -4.265  0.00  0.00    -0.083 Cl
ENDBRANCH  10  12
ENDBRANCH   1   8
BRANCH   1  20
ATOM     20  O   UNL     1       1.396  -4.626  -0.703  0.00  0.00    -0.444 OA
BRANCH  20  21
ATOM     21  C   UNL     1       0.141  -4.139  -0.659  0.00  0.00    +0.340 C 
ATOM     22  O   UNL     1      -0.799  -4.895  -0.510  0.00  0.00    -0.245 OA
BRANCH  21  23
ATOM     23  C   UNL     1      -0.093  -2.690  -0.792  0.00  0.00    +0.061 A 
ATOM     24  C   UNL     1       0.987  -1.819  -0.965  0.00  0.00    +0.017 A 
ATOM     25  C   UNL     1       0.769  -0.476  -1.089  0.00  0.00    +0.026 A 
ATOM     26  C   UNL     1      -0.527   0.031  -1.044  0.00  0.00    +0.055 A 
ATOM     27  C   UNL     1      -1.608  -0.829  -0.867  0.00  0.00    +0.147 A 
ATOM     28  C   UNL     1      -1.396  -2.184  -0.747  0.00  0.00    +0.049 A 
BRANCH  27  29
ATOM     29  N   UNL     1      -2.984  -0.287  -0.814  0.00  0.00    +0.058 N 
ATOM     30  O   UNL     1      -3.800  -0.769  -0.049  0.00  0.00    -0.126 OA
ATOM     31  O   UNL     1      -3.301   0.642  -1.536  0.00  0.00    -0.126 OA
ENDBRANCH  27  29
BRANCH  26  32
ATOM     32  N   UNL     1      -0.741   1.398  -1.171  0.00  0.00    -0.356 N 
ATOM     33  H   UNL     1       0.014   2.004  -1.233  0.00  0.00    +0.142 HD
ATOM     34  H   UNL     1      -1.646   1.746  -1.201  0.00  0.00    +0.142 HD
ENDBRANCH  26  32
ENDBRANCH  21  23
ENDBRANCH  20  21
ENDBRANCH   1  20
TORSDOF 8
