REMARK  Name = ZINC13012432
REMARK  6 active torsions:
REMARK  status: ('A' for Active; 'I' for Inactive)
REMARK    1  A    between atoms: C_1  and  O_2
REMARK    2  A    between atoms: O_2  and  C_3
REMARK    3  A    between atoms: C_3  and  C_5
REMARK    4  A    between atoms: C_12  and  C_16
REMARK    5  A    between atoms: C_16  and  N_17
REMARK    6  A    between atoms: C_25  and  C_27
REMARK                            x       y       z     vdW  Elec       q    Type
REMARK                         _______ _______ _______ _____ _____    ______ ____
ROOT
ATOM      1  C   UNL     1      -5.024  -6.840  -0.000  0.00  0.00    +0.000 C 
ENDROOT
BRANCH   1   9
ATOM      2  C   UNL     1      -1.247  -2.110   0.003  0.00  0.00    +0.061 A 
ATOM      3  C   UNL     1      -0.055  -2.853  -0.007  0.00  0.00    +0.016 A 
ATOM      4  C   UNL     1      -0.083  -4.213  -0.013  0.00  0.00    +0.016 A 
ATOM      5  C   UNL     1      -1.311  -4.886  -0.011  0.00  0.00    +0.067 A 
ATOM      6  C   UNL     1      -2.522  -4.150  -0.001  0.00  0.00    +0.079 A 
ATOM      7  C   UNL     1      -2.476  -2.749   0.011  0.00  0.00    +0.043 A 
ATOM      8  N   UNL     1      -3.683  -4.820   0.002  0.00  0.00    -0.234 NA
ATOM      9  C   UNL     1      -3.694  -6.131  -0.004  0.00  0.00    +0.117 A 
ATOM     10  N   UNL     1      -2.589  -6.860  -0.012  0.00  0.00    -0.196 NA
ATOM     11  C   UNL     1      -1.390  -6.299  -0.017  0.00  0.00    +0.281 A 
ATOM     12  O   UNL     1      -0.269  -7.057  -0.026  0.00  0.00    -0.265 OA
BRANCH   2  13
ATOM     13  C   UNL     1      -1.190  -0.632   0.010  0.00  0.00    +0.339 C 
ATOM     14  O   UNL     1      -2.217   0.016   0.023  0.00  0.00    -0.245 OA
BRANCH  13  16
ATOM     15  C   UNL     1      -0.017   1.425   0.010  0.00  0.00    +0.280 C 
ATOM     16  O   UNL     1       0.002  -0.004   0.002  0.00  0.00    -0.464 OA
ENDBRANCH  13  16
ENDBRANCH   2  13
ENDBRANCH   1   9
BRANCH   1  17
ATOM     17  N   UNL     1      -5.463  -7.065  -1.384  0.00  0.00    +0.392 N 
ATOM     18  C   UNL     1      -5.682  -5.768  -2.038  0.00  0.00    -0.072 C 
ATOM     19  C   UNL     1      -5.814  -5.991  -3.554  0.00  0.00    +0.024 C 
ATOM     20  C   UNL     1      -6.763  -7.126  -3.761  0.00  0.00    -0.010 A 
ATOM     21  C   UNL     1      -7.199  -8.000  -2.810  0.00  0.00    -0.047 A 
ATOM     22  C   UNL     1      -8.092  -8.982  -3.231  0.00  0.00    +0.010 A 
ATOM     23  C   UNL     1      -8.479  -9.034  -4.527  0.00  0.00    +0.045 A 
ATOM     24  S   UNL     1      -7.579  -7.663  -5.237  0.00  0.00    -0.101 S 
ATOM     25  C   UNL     1      -6.697  -7.860  -1.376  0.00  0.00    -0.005 C 
ATOM     26  H   UNL     1      -4.746  -7.570  -1.882  0.00  0.00    -0.080 HD
BRANCH  25  27
ATOM     27  C   UNL     1      -6.415  -9.225  -0.804  0.00  0.00    -0.057 A 
ATOM     28  C   UNL     1      -5.239  -9.879  -1.124  0.00  0.00    +0.002 A 
ATOM     29  C   UNL     1      -4.980 -11.131  -0.599  0.00  0.00    +0.000 A 
ATOM     30  C   UNL     1      -5.897 -11.730   0.245  0.00  0.00    +0.000 A 
ATOM     31  C   UNL     1      -7.072 -11.076   0.566  0.00  0.00    +0.000 A 
ATOM     32  C   UNL     1      -7.329  -9.821   0.044  0.00  0.00    +0.002 A 
ENDBRANCH  25  27
ENDBRANCH   1  17
TORSDOF 5
