REMARK  Name = ZINC14460050
REMARK  5 active torsions:
REMARK  status: ('A' for Active; 'I' for Inactive)
REMARK    1  A    between atoms: C_1  and  O_2
REMARK    2  A    between atoms: O_2  and  C_3
REMARK    3  A    between atoms: C_7  and  C_10
REMARK    4  A    between atoms: C_8  and  O_9
REMARK    5  A    between atoms: C_21  and  C_26
REMARK                            x       y       z     vdW  Elec       q    Type
REMARK                         _______ _______ _______ _____ _____    ______ ____
ROOT
ATOM      1  C   UNL     1      -1.187   1.587  -0.029  0.00  0.00    +0.109 C 
ATOM      2  C   UNL     1      -1.231   2.058   1.432  0.00  0.00    +0.029 C 
ATOM      3  C   UNL     1      -2.610   2.748   1.652  0.00  0.00    +0.033 C 
ATOM      4  C   UNL     1      -2.393   4.147   1.110  0.00  0.00    -0.030 C 
ATOM      5  C   UNL     1      -1.115   4.440   1.093  0.00  0.00    -0.023 C 
ATOM      6  C   UNL     1      -0.305   3.277   1.614  0.00  0.00    +0.049 C 
ATOM      7  C   UNL     1       0.990   3.139   0.879  0.00  0.00    -0.019 A 
ATOM      8  C   UNL     1       2.007   4.035   1.156  0.00  0.00    +0.019 A 
ATOM      9  C   UNL     1       3.235   3.937   0.501  0.00  0.00    +0.037 A 
ATOM     10  C   UNL     1       3.443   2.926  -0.443  0.00  0.00    +0.015 A 
ATOM     11  C   UNL     1       2.431   2.038  -0.720  0.00  0.00    +0.024 A 
ATOM     12  C   UNL     1       1.207   2.142  -0.065  0.00  0.00    +0.031 A 
ATOM     13  N   UNL     1       0.196   1.231  -0.365  0.00  0.00    -0.336 N 
ATOM     14  H   UNL     1       0.401   0.384  -0.789  0.00  0.00    +0.147 HD
ENDROOT
BRANCH   9  15
ATOM     15  C   UNL     1       4.312   4.898   0.803  0.00  0.00    +0.247 C 
ATOM     16  O   UNL     1       4.073   6.090   0.832  0.00  0.00    -0.270 OA
ATOM     17  N   UNL     1       5.562   4.456   1.047  0.00  0.00    -0.293 N 
ATOM     18  C   UNL     1       6.635   5.388   1.426  0.00  0.00    +0.136 C 
ATOM     19  C   UNL     1       7.319   4.844   2.690  0.00  0.00    +0.179 C 
ATOM     20  O   UNL     1       7.708   3.487   2.465  0.00  0.00    -0.377 OA
ATOM     21  C   UNL     1       6.615   2.598   2.221  0.00  0.00    +0.179 C 
ATOM     22  C   UNL     1       5.894   3.026   0.938  0.00  0.00    +0.136 C 
ENDBRANCH   9  15
BRANCH   1  27
ATOM     23  C   UNL     1      -3.414   3.768  -2.176  0.00  0.00    +0.162 A 
ATOM     24  C   UNL     1      -2.517   4.734  -2.603  0.00  0.00    +0.049 A 
ATOM     25  C   UNL     1      -1.196   4.679  -2.198  0.00  0.00    +0.004 A 
ATOM     26  C   UNL     1      -0.769   3.664  -1.362  0.00  0.00    +0.009 A 
ATOM     27  C   UNL     1      -1.657   2.694  -0.936  0.00  0.00    +0.018 A 
ATOM     28  C   UNL     1      -2.982   2.744  -1.339  0.00  0.00    +0.163 A 
BRANCH  23  30
ATOM     29  C   UNL     1      -5.085   4.901  -3.433  0.00  0.00    +0.277 C 
ATOM     30  O   UNL     1      -4.713   3.821  -2.574  0.00  0.00    -0.491 OA
ENDBRANCH  23  30
BRANCH  28  31
ATOM     31  O   UNL     1      -3.859   1.793  -0.917  0.00  0.00    -0.503 OA
ATOM     32  H   UNL     1      -4.381   2.054  -0.147  0.00  0.00    +0.292 HD
ENDBRANCH  28  31
ENDBRANCH   1  27
TORSDOF 4
