REMARK  Name = ZINC40323010
REMARK  5 active torsions:
REMARK  status: ('A' for Active; 'I' for Inactive)
REMARK    1  A    between atoms: C_5  and  C_7
REMARK    2  A    between atoms: C_7  and  N_8
REMARK    3  A    between atoms: C_15  and  C_17
REMARK    4  A    between atoms: C_20  and  S_22
REMARK    5  A    between atoms: S_22  and  C_25
REMARK                            x       y       z     vdW  Elec       q    Type
REMARK                         _______ _______ _______ _____ _____    ______ ____
ROOT
ATOM      1  N   UNL     1       1.630  -2.647   1.340  0.00  0.00    -0.245 N 
ATOM      2  C   UNL     1       0.640  -2.996   2.256  0.00  0.00    +0.128 A 
ATOM      3  C   UNL     1      -0.689  -3.039   1.850  0.00  0.00    +0.044 A 
ATOM      4  C   UNL     1      -1.662  -3.387   2.770  0.00  0.00    +0.005 A 
ATOM      5  C   UNL     1      -1.271  -3.682   4.069  0.00  0.00    +0.020 A 
ATOM      6  C   UNL     1       0.068  -3.620   4.402  0.00  0.00    +0.113 A 
ATOM      7  N   UNL     1       0.974  -3.289   3.502  0.00  0.00    -0.240 NA
ATOM      8  C   UNL     1       2.930  -2.793   1.664  0.00  0.00    +0.288 C 
ATOM      9  O   UNL     1       3.241  -3.141   2.788  0.00  0.00    -0.266 OA
ENDROOT
BRANCH   8  10
ATOM     10  C   UNL     1       3.969  -2.535   0.663  0.00  0.00    +0.192 A 
ATOM     11  C   UNL     1       5.313  -2.705   0.838  0.00  0.00    +0.056 A 
ATOM     12  C   UNL     1       5.926  -2.340  -0.370  0.00  0.00    +0.070 A 
ATOM     13  C   UNL     1       4.943  -1.968  -1.220  0.00  0.00    +0.246 A 
ATOM     14  O   UNL     1       3.765  -2.092  -0.595  0.00  0.00    -0.433 OA
BRANCH  13  15
ATOM     15  S   UNL     1       5.173  -1.417  -2.877  0.00  0.00    +0.058 S 
ATOM     16  O   UNL     1       4.097  -0.534  -3.165  0.00  0.00    -0.161 OA
ATOM     17  O   UNL     1       6.533  -1.021  -2.989  0.00  0.00    -0.161 OA
BRANCH  15  18
ATOM     18  C   UNL     1       4.968  -2.818  -3.926  0.00  0.00    +0.097 A 
ATOM     19  C   UNL     1       6.058  -3.605  -4.247  0.00  0.00    +0.028 A 
ATOM     20  C   UNL     1       5.898  -4.705  -5.069  0.00  0.00    +0.017 A 
ATOM     21  C   UNL     1       4.647  -5.018  -5.570  0.00  0.00    +0.018 A 
ATOM     22  C   UNL     1       3.557  -4.230  -5.247  0.00  0.00    +0.017 A 
ATOM     23  C   UNL     1       3.717  -3.134  -4.421  0.00  0.00    +0.028 A 
ATOM     24 BR   UNL     1       4.428  -6.522  -6.695  0.00  0.00    -0.050 Br
ENDBRANCH  15  18
ENDBRANCH  13  15
ENDBRANCH   8  10
BRANCH   1  25
ATOM     25  C   UNL     1       1.258  -2.119   0.025  0.00  0.00    +0.153 C 
BRANCH  25  30
ATOM     26  C   UNL     1      -0.563   1.184   0.188  0.00  0.00    +0.000 A 
ATOM     27  C   UNL     1       0.487   2.072   0.336  0.00  0.00    +0.003 A 
ATOM     28  C   UNL     1       1.786   1.605   0.383  0.00  0.00    +0.038 A 
ATOM     29  C   UNL     1       2.038   0.247   0.283  0.00  0.00    +0.128 A 
ATOM     30  C   UNL     1       0.986  -0.641   0.135  0.00  0.00    +0.005 A 
ATOM     31  C   UNL     1      -0.313  -0.172   0.088  0.00  0.00    +0.008 A 
ATOM     32  F   UNL     1       3.308  -0.210   0.328  0.00  0.00    -0.205 F 
ENDBRANCH  25  30
ENDBRANCH   1  25
TORSDOF 5
