REMARK  Name = ZINC27573912
REMARK  8 active torsions:
REMARK  status: ('A' for Active; 'I' for Inactive)
REMARK    1  A    between atoms: C_1  and  C_2
REMARK    2  A    between atoms: N_5  and  C_8
REMARK    3  A    between atoms: C_8  and  C_10
REMARK    4  A    between atoms: C_8  and  C_28
REMARK    5  A    between atoms: C_10  and  N_11
REMARK    6  A    between atoms: C_12  and  C_14
REMARK    7  A    between atoms: C_14  and  N_15
REMARK    8  A    between atoms: N_24  and  C_27
REMARK                            x       y       z     vdW  Elec       q    Type
REMARK                         _______ _______ _______ _____ _____    ______ ____
ROOT
ATOM      1  N   UNL     1      -1.529   2.598  -3.820  0.00  0.00    -0.315 N 
ATOM      2  C   UNL     1      -2.343   3.139  -4.748  0.00  0.00    +0.231 C 
ATOM      3  O   UNL     1      -3.026   2.421  -5.447  0.00  0.00    -0.274 OA
ATOM      4  H   UNL     1      -0.910   3.249  -3.185  0.00  0.00    +0.149 HD
ENDROOT
BRANCH   1   5
ATOM      5  C   UNL     1      -1.470   1.144  -3.655  0.00  0.00    +0.094 C 
BRANCH   5   6
ATOM      6  C   UNL     1      -0.393   0.790  -2.628  0.00  0.00    -0.013 C 
BRANCH   6  11
ATOM      7  C   UNL     1      -1.463   2.748   2.634  0.00  0.00    +0.007 C 
ATOM      8  C   UNL     1      -1.214   1.828   1.438  0.00  0.00    -0.018 C 
ATOM      9  C   UNL     1      -2.276   2.083   0.365  0.00  0.00    -0.015 C 
ATOM     10  C   UNL     1      -1.986   1.203  -0.853  0.00  0.00    -0.078 C 
ATOM     11  N   UNL     1      -0.651   1.516  -1.377  0.00  0.00    +0.386 N 
ATOM     12  C   UNL     1       0.391   1.234  -0.381  0.00  0.00    -0.078 C 
ATOM     13  C   UNL     1       0.171   2.115   0.851  0.00  0.00    -0.015 C 
ATOM     14  H   UNL     1      -0.621   2.593  -1.598  0.00  0.00    -0.081 HD
ENDBRANCH   6  11
BRANCH   6  15
ATOM     15  C   UNL     1      -0.419  -0.693  -2.363  0.00  0.00    -0.022 A 
ATOM     16  C   UNL     1       0.522  -1.628  -2.643  0.00  0.00    +0.009 A 
ATOM     17  C   UNL     1       0.280  -2.946  -2.305  0.00  0.00    +0.008 A 
ATOM     18  C   UNL     1      -0.892  -3.265  -1.702  0.00  0.00    +0.045 A 
ATOM     19  S   UNL     1      -1.695  -1.675  -1.591  0.00  0.00    -0.103 S 
ENDBRANCH   6  15
ENDBRANCH   5   6
ENDBRANCH   1   5
BRANCH   2  20
ATOM     20  C   UNL     1      -2.404   4.635  -4.917  0.00  0.00    +0.213 C 
BRANCH  20  21
ATOM     21  N   UNL     1      -3.354   4.968  -5.981  0.00  0.00    -0.215 N 
ATOM     22  C   UNL     1      -4.669   5.192  -5.781  0.00  0.00    +0.247 C 
ATOM     23  O   UNL     1      -5.267   5.157  -4.727  0.00  0.00    -0.273 OA
ATOM     24  C   UNL     1      -5.240   5.495  -7.147  0.00  0.00    +0.115 C 
ATOM     25  C   UNL     1      -5.827   6.902  -7.178  0.00  0.00    +0.035 C 
ATOM     26  C   UNL     1      -6.374   7.200  -8.576  0.00  0.00    +0.003 C 
ATOM     27  C   UNL     1      -7.451   6.172  -8.930  0.00  0.00    +0.000 C 
ATOM     28  C   UNL     1      -6.841   4.769  -8.920  0.00  0.00    +0.003 C 
ATOM     29  C   UNL     1      -6.296   4.461  -7.523  0.00  0.00    +0.035 C 
ATOM     30  N   UNL     1      -4.083   5.400  -8.046  0.00  0.00    -0.274 N 
ATOM     31  C   UNL     1      -3.024   5.093  -7.273  0.00  0.00    +0.312 C 
ATOM     32  O   UNL     1      -1.896   4.944  -7.700  0.00  0.00    -0.252 OA
ATOM     33  C   UNL     1      -4.080   5.605  -9.497  0.00  0.00    +0.134 C 
ENDBRANCH  20  21
ENDBRANCH   2  20
TORSDOF 6
