REMARK  Name = ZINC66924963
REMARK  8 active torsions:
REMARK  status: ('A' for Active; 'I' for Inactive)
REMARK    1  A    between atoms: C_1  and  C_2
REMARK    2  A    between atoms: C_5  and  C_30
REMARK    3  A    between atoms: N_8  and  C_10
REMARK    4  A    between atoms: C_10  and  C_11
REMARK    5  A    between atoms: C_11  and  N_12
REMARK    6  A    between atoms: C_18  and  N_21
REMARK    7  A    between atoms: C_22  and  C_24
REMARK    8  A    between atoms: C_24  and  C_25
REMARK                            x       y       z     vdW  Elec       q    Type
REMARK                         _______ _______ _______ _____ _____    ______ ____
ROOT
ATOM      1  N   UNL     1       2.926  -0.201   4.830  0.00  0.00    -0.301 N 
ATOM      2  C   UNL     1       4.167   0.278   5.047  0.00  0.00    +0.302 C 
ATOM      3  O   UNL     1       4.699   0.989   4.215  0.00  0.00    -0.253 OA
ATOM      4  N   UNL     1       4.820  -0.031   6.185  0.00  0.00    -0.286 N 
ATOM      5  C   UNL     1       4.241  -0.981   7.145  0.00  0.00    +0.111 C 
ATOM      6  C   UNL     1       4.196  -0.319   8.526  0.00  0.00    +0.041 C 
ATOM      7  C   UNL     1       5.595   0.175   8.897  0.00  0.00    +0.076 C 
ATOM      8  C   UNL     1       6.057   1.219   7.877  0.00  0.00    +0.041 C 
ATOM      9  C   UNL     1       6.126   0.570   6.486  0.00  0.00    +0.111 C 
ATOM     10  H   UNL     1       2.531  -0.826   5.458  0.00  0.00    +0.150 HD
ENDROOT
BRANCH   7  11
ATOM     11  N   UNL     1       5.562   0.779  10.231  0.00  0.00    -0.312 N 
ATOM     12  C   UNL     1       6.683   0.827  10.978  0.00  0.00    +0.214 C 
ATOM     13  O   UNL     1       7.720   0.370  10.545  0.00  0.00    -0.276 OA
ATOM     14  H   UNL     1       4.733   1.145  10.577  0.00  0.00    +0.149 HD
BRANCH  12  15
ATOM     15  C   UNL     1       6.649   1.448  12.350  0.00  0.00    +0.099 C 
BRANCH  15  16
ATOM     16  C   UNL     1       8.042   1.374  12.979  0.00  0.00    -0.002 C 
ATOM     17  C   UNL     1       8.408  -0.094  13.280  0.00  0.00    +0.004 C 
ATOM     18  C   UNL     1       9.188  -0.025  14.616  0.00  0.00    +0.000 C 
ATOM     19  C   UNL     1       8.424   1.071  15.400  0.00  0.00    +0.000 C 
ATOM     20  C   UNL     1       8.052   2.115  14.327  0.00  0.00    +0.004 C 
ENDBRANCH  15  16
ENDBRANCH  12  15
ENDBRANCH   7  11
BRANCH   1  21
ATOM     21  C   UNL     1       2.174   0.223   3.647  0.00  0.00    +0.087 C 
BRANCH  21  22
ATOM     22  C   UNL     1       0.805  -0.462   3.640  0.00  0.00    -0.060 C 
BRANCH  22  28
ATOM     23  C   UNL     1      -0.021   1.532   0.014  0.00  0.00    +0.005 C 
ATOM     24  C   UNL     1      -0.001   0.002   0.004  0.00  0.00    -0.031 C 
ATOM     25  C   UNL     1      -1.438  -0.529   0.018  0.00  0.00    +0.003 C 
ATOM     26  C   UNL     1      -2.120  -0.093   1.318  0.00  0.00    -0.031 C 
ATOM     27  C   UNL     1      -1.304  -0.599   2.510  0.00  0.00    -0.076 C 
ATOM     28  N   UNL     1       0.051  -0.036   2.454  0.00  0.00    +0.381 N 
ATOM     29  C   UNL     1       0.737  -0.507   1.244  0.00  0.00    -0.076 C 
ATOM     30  C   UNL     1      -3.531  -0.683   1.377  0.00  0.00    +0.005 C 
ATOM     31  H   UNL     1      -0.005   0.971   2.437  0.00  0.00    -0.082 HD
ENDBRANCH  22  28
ENDBRANCH  21  22
ENDBRANCH   1  21
TORSDOF 6
