REMARK  Name = ZINC66876624
REMARK  7 active torsions:
REMARK  status: ('A' for Active; 'I' for Inactive)
REMARK    1  A    between atoms: C_1  and  C_2
REMARK    2  A    between atoms: C_3  and  C_11
REMARK    3  A    between atoms: C_7  and  N_8
REMARK    4  A    between atoms: C_11  and  N_12
REMARK    5  A    between atoms: C_15  and  N_18
REMARK    6  A    between atoms: C_19  and  C_21
REMARK    7  A    between atoms: C_21  and  C_22
REMARK                            x       y       z     vdW  Elec       q    Type
REMARK                         _______ _______ _______ _____ _____    ______ ____
ROOT
ATOM      1  N   UNL     1       1.827   0.276  -2.938  0.00  0.00    +0.382 N 
ATOM      2  C   UNL     1       2.193   1.394  -2.061  0.00  0.00    -0.077 C 
ATOM      3  C   UNL     1       3.667   1.750  -2.270  0.00  0.00    +0.003 C 
ATOM      4  C   UNL     1       3.886   2.152  -3.731  0.00  0.00    +0.069 C 
ATOM      5  C   UNL     1       3.431   1.006  -4.640  0.00  0.00    +0.003 C 
ATOM      6  C   UNL     1       1.966   0.678  -4.343  0.00  0.00    -0.077 C 
ATOM      7  H   UNL     1       2.434  -0.508  -2.752  0.00  0.00    -0.081 HD
ENDROOT
BRANCH   4   8
ATOM      8  N   UNL     1       5.309   2.421  -3.957  0.00  0.00    -0.313 N 
ATOM      9  C   UNL     1       5.689   3.244  -4.954  0.00  0.00    +0.213 C 
ATOM     10  O   UNL     1       4.854   3.762  -5.665  0.00  0.00    -0.276 OA
ATOM     11  H   UNL     1       5.977   2.006  -3.389  0.00  0.00    +0.149 HD
BRANCH   9  12
ATOM     12  C   UNL     1       7.152   3.520  -5.186  0.00  0.00    +0.099 C 
BRANCH  12  13
ATOM     13  C   UNL     1       7.309   4.478  -6.369  0.00  0.00    -0.002 C 
ATOM     14  C   UNL     1       6.884   3.777  -7.676  0.00  0.00    +0.004 C 
ATOM     15  C   UNL     1       7.880   4.312  -8.735  0.00  0.00    +0.000 C 
ATOM     16  C   UNL     1       9.210   4.390  -7.944  0.00  0.00    +0.000 C 
ATOM     17  C   UNL     1       8.788   4.867  -6.540  0.00  0.00    +0.004 C 
ENDBRANCH  12  13
ENDBRANCH   9  12
ENDBRANCH   4   8
BRANCH   1  18
ATOM     18  C   UNL     1       0.434  -0.113  -2.678  0.00  0.00    -0.043 C 
BRANCH  18  21
ATOM     19  C   UNL     1       1.291  -2.824  -2.162  0.00  0.00    +0.046 C 
ATOM     20  C   UNL     1       0.734  -1.984  -1.042  0.00  0.00    -0.019 A 
ATOM     21  C   UNL     1       0.324  -0.687  -1.289  0.00  0.00    -0.059 A 
ATOM     22  C   UNL     1      -0.187   0.084  -0.261  0.00  0.00    +0.002 A 
ATOM     23  C   UNL     1      -0.288  -0.443   1.013  0.00  0.00    +0.002 A 
ATOM     24  C   UNL     1       0.122  -1.740   1.260  0.00  0.00    +0.033 A 
ATOM     25  C   UNL     1       0.629  -2.512   0.231  0.00  0.00    +0.129 A 
BRANCH  25  26
ATOM     26  N   UNL     1       1.062  -3.902   0.494  0.00  0.00    +0.057 N 
ATOM     27  O   UNL     1       0.930  -4.379   1.597  0.00  0.00    -0.126 OA
ATOM     28  O   UNL     1       1.549  -4.562  -0.395  0.00  0.00    -0.126 OA
ENDBRANCH  25  26
ENDBRANCH  18  21
ENDBRANCH   1  18
TORSDOF 6
