REMARK  Name = ZINC04222337
REMARK  15 active torsions:
REMARK  status: ('A' for Active; 'I' for Inactive)
REMARK    1  A    between atoms: C_1  and  C_2
REMARK    2  A    between atoms: C_2  and  C_3
REMARK    3  A    between atoms: C_2  and  N_4
REMARK    4  A    between atoms: C_5  and  C_7
REMARK    5  A    between atoms: C_7  and  C_8
REMARK    6  A    between atoms: C_16  and  C_18
REMARK    7  A    between atoms: C_21  and  C_24
REMARK    8  A    between atoms: C_24  and  C_25
REMARK    9  A    between atoms: C_24  and  C_26
REMARK   10  A    between atoms: C_24  and  C_27
REMARK   11  A    between atoms: C_31  and  C_41
REMARK   12  A    between atoms: C_34  and  O_40
REMARK   13  A    between atoms: C_36  and  C_37
REMARK   14  A    between atoms: C_36  and  C_38
REMARK   15  A    between atoms: C_38  and  O_39
REMARK                            x       y       z     vdW  Elec       q    Type
REMARK                         _______ _______ _______ _____ _____    ______ ____
ROOT
ATOM      1  C   UNL     1       4.567   3.927   1.316  0.00  0.00    +0.054 C 
ATOM      2  C   UNL     1       4.380   5.426   1.136  0.00  0.00    +0.058 A 
ATOM      3  C   UNL     1       3.252   5.907   0.553  0.00  0.00    +0.015 A 
ATOM      4  S   UNL     1       3.518   7.659   0.578  0.00  0.00    -0.057 S 
ATOM      5  C   UNL     1       5.077   7.627   1.345  0.00  0.00    +0.165 A 
ATOM      6  N   UNL     1       5.272   6.336   1.519  0.00  0.00    -0.229 NA
ATOM      7  N   UNL     1       5.904   8.689   1.687  0.00  0.00    -0.261 N 
ATOM      8  C   UNL     1       5.521   9.954   1.421  0.00  0.00    +0.250 C 
ATOM      9  O   UNL     1       4.452  10.165   0.884  0.00  0.00    -0.270 OA
ATOM     10  C   UNL     1       2.094   5.130   0.034  0.00  0.00    +0.049 C 
ATOM     11  C   UNL     1       2.497   3.647  -0.082  0.00  0.00    +0.011 C 
ATOM     12  C   UNL     1       3.208   3.223   1.205  0.00  0.00    -0.019 C 
ATOM     13  C   UNL     1       3.474   1.714   1.188  0.00  0.00    +0.010 C 
ATOM     14  C   UNL     1       2.164   0.944   1.028  0.00  0.00    +0.032 C 
ATOM     15  C   UNL     1       1.517   1.345  -0.301  0.00  0.00    +0.123 C 
ATOM     16  C   UNL     1       1.207   2.840  -0.265  0.00  0.00    +0.021 C 
ATOM     17  C   UNL     1       0.540   3.251  -1.580  0.00  0.00    +0.016 C 
ATOM     18  C   UNL     1       2.337   3.577   2.412  0.00  0.00    +0.012 C 
ATOM     19  H   UNL     1       6.758   8.521   2.116  0.00  0.00    +0.157 HD
ENDROOT
BRANCH   8  20
ATOM     20  C   UNL     1       6.402  11.084   1.785  0.00  0.00    +0.037 A 
ATOM     21  C   UNL     1       7.628  10.845   2.408  0.00  0.00    +0.013 A 
ATOM     22  C   UNL     1       8.448  11.904   2.738  0.00  0.00    +0.005 A 
ATOM     23  C   UNL     1       8.052  13.202   2.465  0.00  0.00    -0.042 A 
ATOM     24  C   UNL     1       6.835  13.445   1.853  0.00  0.00    +0.005 A 
ATOM     25  C   UNL     1       6.008  12.395   1.512  0.00  0.00    +0.013 A 
BRANCH  23  26
ATOM     26  C   UNL     1       8.950  14.354   2.835  0.00  0.00    -0.013 C 
ATOM     27  C   UNL     1       8.220  15.275   3.814  0.00  0.00    +0.015 C 
ATOM     28  C   UNL     1      10.223  13.818   3.492  0.00  0.00    +0.015 C 
ATOM     29  C   UNL     1       9.318  15.139   1.574  0.00  0.00    +0.015 C 
ENDBRANCH  23  26
ENDBRANCH   8  20
BRANCH  15  30
ATOM     30  O   UNL     1       0.305   0.609  -0.485  0.00  0.00    -0.391 OA
ATOM     31  H   UNL     1       0.429  -0.349  -0.517  0.00  0.00    +0.210 HD
ENDBRANCH  15  30
BRANCH   1  32
ATOM     32  C   UNL     1       5.173   3.651   2.694  0.00  0.00    +0.106 C 
BRANCH  32  34
ATOM     33  N   UNL     1       7.321   4.041   3.857  0.00  0.00    -0.313 N 
ATOM     34  C   UNL     1       6.585   4.173   2.735  0.00  0.00    +0.214 C 
ATOM     35  O   UNL     1       7.061   4.713   1.759  0.00  0.00    -0.276 OA
ATOM     36  H   UNL     1       6.940   3.609   4.638  0.00  0.00    +0.149 HD
BRANCH  33  38
ATOM     37  C   UNL     1       9.083   4.854   5.345  0.00  0.00    +0.027 C 
ATOM     38  C   UNL     1       8.694   4.548   3.897  0.00  0.00    +0.067 C 
ATOM     39  C   UNL     1       9.644   3.494   3.325  0.00  0.00    +0.027 C 
ENDBRANCH  33  38
ENDBRANCH  32  34
ENDBRANCH   1  32
BRANCH  16  40
ATOM     40  C   UNL     1       0.258   3.133   0.898  0.00  0.00    +0.165 C 
BRANCH  40  41
ATOM     41  O   UNL     1      -1.011   2.528   0.641  0.00  0.00    -0.394 OA
ATOM     42  H   UNL     1      -1.665   2.673   1.339  0.00  0.00    +0.209 HD
ENDBRANCH  40  41
ENDBRANCH  16  40
TORSDOF 8
