REMARK  Name = ZINC13000558
REMARK  9 active torsions:
REMARK  status: ('A' for Active; 'I' for Inactive)
REMARK    1  A    between atoms: C_1  and  C_2
REMARK    2  A    between atoms: C_2  and  C_3
REMARK    3  A    between atoms: C_3  and  O_27
REMARK    4  A    between atoms: C_23  and  N_26
REMARK    5  A    between atoms: O_27  and  C_28
REMARK    6  A    between atoms: C_28  and  C_30
REMARK    7  A    between atoms: C_30  and  N_57
REMARK    8  A    between atoms: C_31  and  N_57
REMARK    9  A    between atoms: C_32  and  N_57
REMARK                            x       y       z     vdW  Elec       q    Type
REMARK                         _______ _______ _______ _____ _____    ______ ____
ROOT
ATOM      1  C   UNL     1       6.123  -3.510  -0.025  0.00  0.00    +0.234 C 
ATOM      2  C   UNL     1       5.504  -2.135  -0.063  0.00  0.00    +0.020 A 
ATOM      3  C   UNL     1       4.108  -2.026  -0.022  0.00  0.00    +0.036 A 
ATOM      4  C   UNL     1       3.507  -0.787  -0.080  0.00  0.00    +0.071 A 
ATOM      5  N   UNL     1       4.277   0.337  -0.181  0.00  0.00    -0.302 N 
ATOM      6  C   UNL     1       5.620   0.245  -0.222  0.00  0.00    +0.259 A 
ATOM      7  O   UNL     1       6.291   1.260  -0.321  0.00  0.00    -0.267 OA
ATOM      8  C   UNL     1       6.261  -1.010  -0.152  0.00  0.00    +0.062 A 
ATOM      9  C   UNL     1       7.766  -1.047  -0.174  0.00  0.00    +0.273 C 
ATOM     10  O   UNL     1       8.241  -2.385  -0.476  0.00  0.00    -0.457 OA
ATOM     11  C   UNL     1       7.612  -3.375   0.198  0.00  0.00    +0.357 C 
ATOM     12  O   UNL     1       8.211  -4.114   0.942  0.00  0.00    -0.246 OA
ATOM     13  C   UNL     1       3.393   1.509  -0.225  0.00  0.00    +0.162 C 
ATOM     14  C   UNL     1       1.983   0.986  -0.139  0.00  0.00    +0.000 A 
ATOM     15  C   UNL     1       2.073  -0.413  -0.052  0.00  0.00    +0.093 A 
ATOM     16  N   UNL     1       0.982  -1.158   0.034  0.00  0.00    -0.245 NA
ATOM     17  C   UNL     1      -0.235  -0.611   0.043  0.00  0.00    +0.073 A 
ATOM     18  C   UNL     1      -1.386  -1.415   0.133  0.00  0.00    +0.028 A 
ATOM     19  C   UNL     1      -2.621  -0.841   0.142  0.00  0.00    +0.004 A 
ATOM     20  C   UNL     1      -2.775   0.539   0.062  0.00  0.00    +0.023 A 
ATOM     21  C   UNL     1      -1.673   1.365  -0.034  0.00  0.00    +0.034 A 
ATOM     22  C   UNL     1      -0.382   0.797  -0.040  0.00  0.00    +0.021 A 
ATOM     23  C   UNL     1       0.769   1.601  -0.133  0.00  0.00    +0.019 A 
ENDROOT
BRANCH  21  24
ATOM     24  N   UNL     1      -1.834   2.745  -0.114  0.00  0.00    -0.357 N 
ATOM     25  H   UNL     1      -1.056   3.322  -0.173  0.00  0.00    +0.142 HD
ATOM     26  H   UNL     1      -2.724   3.131  -0.109  0.00  0.00    +0.142 HD
ENDBRANCH  21  24
BRANCH   1  28
ATOM     27  C   UNL     1       4.363  -4.431  -1.540  0.00  0.00    +0.009 C 
ATOM     28  C   UNL     1       5.868  -4.224  -1.354  0.00  0.00    +0.061 C 
ENDBRANCH   1  28
BRANCH   1  29
ATOM     29  O   UNL     1       5.538  -4.276   1.061  0.00  0.00    -0.443 OA
BRANCH  29  30
ATOM     30  C   UNL     1       5.954  -5.544   1.205  0.00  0.00    +0.292 C 
ATOM     31  O   UNL     1       6.719  -6.024   0.403  0.00  0.00    -0.253 OA
BRANCH  30  32
ATOM     32  C   UNL     1       5.466  -6.369   2.368  0.00  0.00    +0.043 C 
BRANCH  32  35
ATOM     33  C   UNL     1       7.516  -7.651   2.501  0.00  0.00    -0.096 C 
ATOM     34  C   UNL     1       5.434  -8.615   3.273  0.00  0.00    -0.096 C 
ATOM     35  N   UNL     1       6.057  -7.721   2.275  0.00  0.00    +0.383 N 
ATOM     36  H   UNL     1       5.883  -8.097   1.335  0.00  0.00    -0.082 HD
ENDBRANCH  32  35
ENDBRANCH  30  32
ENDBRANCH  29  30
ENDBRANCH   1  29
TORSDOF 6
