REMARK  Name = ZINC39637135
REMARK  8 active torsions:
REMARK  status: ('A' for Active; 'I' for Inactive)
REMARK    1  A    between atoms: C_1  and  C_2
REMARK    2  A    between atoms: C_7  and  N_12
REMARK    3  A    between atoms: C_9  and  C_11
REMARK    4  A    between atoms: C_13  and  C_15
REMARK    5  A    between atoms: C_26  and  C_28
REMARK    6  A    between atoms: C_33  and  O_34
REMARK    7  A    between atoms: O_34  and  C_35
REMARK    8  A    between atoms: C_35  and  C_37
REMARK                            x       y       z     vdW  Elec       q    Type
REMARK                         _______ _______ _______ _____ _____    ______ ____
ROOT
ATOM      1  C   UNL     1       1.740  -0.217   6.326  0.00  0.00    +0.100 C 
ATOM      2  C   UNL     1       1.037  -1.560   6.628  0.00  0.00    +0.121 C 
ATOM      3  N   UNL     1       0.878  -1.576   8.101  0.00  0.00    -0.296 N 
ATOM      4  C   UNL     1       0.520  -0.180   8.449  0.00  0.00    +0.115 C 
ATOM      5  C   UNL     1       1.398   0.686   7.524  0.00  0.00    -0.004 C 
ATOM      6  C   UNL     1       2.672   1.108   8.248  0.00  0.00    -0.010 C 
ATOM      7  C   UNL     1       2.311   2.050   9.400  0.00  0.00    -0.082 C 
ATOM      8  N   UNL     1       1.612   3.228   8.870  0.00  0.00    +0.379 N 
ATOM      9  C   UNL     1       0.342   2.822   8.256  0.00  0.00    -0.082 C 
ATOM     10  C   UNL     1       0.620   1.912   7.056  0.00  0.00    -0.010 C 
ATOM     11  C   UNL     1       1.026  -2.624   8.937  0.00  0.00    +0.250 C 
ATOM     12  O   UNL     1       0.768  -2.500  10.118  0.00  0.00    -0.270 OA
ATOM     13  H   UNL     1       1.429   3.875   9.622  0.00  0.00    -0.086 HD
ATOM     14  H   UNL     1       2.191   3.677   8.176  0.00  0.00    -0.086 HD
ENDROOT
BRANCH  11  15
ATOM     15  C   UNL     1       1.500  -3.921   8.416  0.00  0.00    +0.079 A 
ATOM     16  C   UNL     1       1.127  -4.344   7.139  0.00  0.00    +0.017 A 
ATOM     17  C   UNL     1       1.574  -5.556   6.659  0.00  0.00    +0.001 A 
ATOM     18  C   UNL     1       2.391  -6.358   7.438  0.00  0.00    +0.004 A 
ATOM     19  C   UNL     1       2.767  -5.952   8.703  0.00  0.00    +0.047 A 
ATOM     20  C   UNL     1       2.331  -4.732   9.200  0.00  0.00    +0.144 A 
BRANCH  20  21
ATOM     21  O   UNL     1       2.704  -4.330  10.441  0.00  0.00    -0.425 OA
BRANCH  21  22
ATOM     22  C   UNL     1       3.803  -3.566  10.552  0.00  0.00    +0.309 C 
ATOM     23  O   UNL     1       4.375  -3.181   9.560  0.00  0.00    -0.251 OA
ATOM     24  C   UNL     1       4.323  -3.188  11.915  0.00  0.00    +0.136 C 
ENDBRANCH  21  22
ENDBRANCH  20  21
ENDBRANCH  11  15
BRANCH   1  26
ATOM     25  N   UNL     1       1.974   1.216   4.324  0.00  0.00    -0.312 N 
ATOM     26  C   UNL     1       1.206   0.380   5.050  0.00  0.00    +0.218 C 
ATOM     27  O   UNL     1       0.084   0.107   4.676  0.00  0.00    -0.275 OA
ATOM     28  H   UNL     1       2.870   1.433   4.622  0.00  0.00    +0.149 HD
BRANCH  25  34
ATOM     29  C   UNL     1       0.141   3.984   1.645  0.00  0.00    +0.008 C 
ATOM     30  C   UNL     1       1.639   3.715   1.494  0.00  0.00    -0.009 C 
ATOM     31  C   UNL     1       1.868   2.737   0.339  0.00  0.00    +0.003 C 
ATOM     32  C   UNL     1       1.140   1.424   0.632  0.00  0.00    +0.002 C 
ATOM     33  C   UNL     1       1.683   0.818   1.928  0.00  0.00    +0.022 C 
ATOM     34  C   UNL     1       1.454   1.796   3.083  0.00  0.00    +0.076 C 
ATOM     35  C   UNL     1       2.182   3.109   2.790  0.00  0.00    +0.009 C 
ATOM     36  C   UNL     1       1.953   4.087   3.945  0.00  0.00    +0.009 C 
ENDBRANCH  25  34
ENDBRANCH   1  26
TORSDOF 5
