REMARK  Name = ZINC15680152
REMARK  8 active torsions:
REMARK  status: ('A' for Active; 'I' for Inactive)
REMARK    1  A    between atoms: C_1  and  C_2
REMARK    2  A    between atoms: C_2  and  C_3
REMARK    3  A    between atoms: C_6  and  N_9
REMARK    4  A    between atoms: N_13  and  S_28
REMARK    5  A    between atoms: C_15  and  C_16
REMARK    6  A    between atoms: C_15  and  C_17
REMARK    7  A    between atoms: N_19  and  C_20
REMARK    8  A    between atoms: S_28  and  C_31
REMARK                            x       y       z     vdW  Elec       q    Type
REMARK                         _______ _______ _______ _____ _____    ______ ____
ROOT
ATOM      1  N   UNL     1       3.352   4.995   4.563  0.00  0.00    -0.255 N 
ATOM      2  C   UNL     1       4.636   5.301   4.369  0.00  0.00    +0.236 C 
ATOM      3  O   UNL     1       5.465   4.810   5.105  0.00  0.00    -0.274 OA
ATOM      4  C   UNL     1       5.102   6.229   3.280  0.00  0.00    +0.205 C 
ATOM      5  N   UNL     1       3.993   6.456   2.341  0.00  0.00    -0.170 NA
ATOM      6  C   UNL     1       2.657   6.684   2.917  0.00  0.00    +0.145 C 
ATOM      7  C   UNL     1       2.259   5.436   3.707  0.00  0.00    +0.129 C 
ATOM      8  C   UNL     1       1.040   5.756   4.574  0.00  0.00    +0.043 C 
ENDROOT
BRANCH   1  12
ATOM      9  C   UNL     1       2.403   2.612   7.846  0.00  0.00    -0.048 A 
ATOM     10  C   UNL     1       3.125   2.080   6.793  0.00  0.00    +0.005 A 
ATOM     11  C   UNL     1       3.442   2.868   5.703  0.00  0.00    +0.024 A 
ATOM     12  C   UNL     1       3.033   4.195   5.666  0.00  0.00    +0.037 A 
ATOM     13  C   UNL     1       2.313   4.727   6.727  0.00  0.00    +0.024 A 
ATOM     14  C   UNL     1       1.995   3.933   7.811  0.00  0.00    +0.005 A 
BRANCH   9  16
ATOM     15  C   UNL     1       3.173   1.854  10.078  0.00  0.00    +0.009 C 
ATOM     16  C   UNL     1       2.060   1.750   9.033  0.00  0.00    +0.032 C 
ENDBRANCH   9  16
ENDBRANCH   1  12
BRANCH   7  17
ATOM     17  C   UNL     1       1.906   4.331   2.745  0.00  0.00    +0.238 C 
ATOM     18  O   UNL     1       1.526   4.600   1.625  0.00  0.00    -0.273 OA
ATOM     19  N   UNL     1       2.013   3.043   3.129  0.00  0.00    -0.311 N 
ATOM     20  H   UNL     1       2.317   2.828   4.024  0.00  0.00    +0.149 HD
BRANCH  19  21
ATOM     21  C   UNL     1       1.670   1.969   2.193  0.00  0.00    +0.073 C 
ATOM     22  C   UNL     1       2.881   1.654   1.313  0.00  0.00    +0.022 C 
ATOM     23  C   UNL     1       2.471   1.718  -0.160  0.00  0.00    +0.002 C 
ATOM     24  C   UNL     1       1.129   1.007  -0.347  0.00  0.00    +0.000 C 
ATOM     25  C   UNL     1       1.344  -0.508  -0.306  0.00  0.00    +0.000 C 
ATOM     26  C   UNL     1       1.561  -0.952   1.142  0.00  0.00    +0.000 C 
ATOM     27  C   UNL     1       0.544  -0.256   2.048  0.00  0.00    +0.002 C 
ATOM     28  C   UNL     1       1.271   0.718   2.978  0.00  0.00    +0.022 C 
ENDBRANCH  19  21
ENDBRANCH   7  17
BRANCH   5  29
ATOM     29  S   UNL     1       4.237   6.456   0.704  0.00  0.00    +0.029 S 
ATOM     30  O   UNL     1       5.384   5.640   0.508  0.00  0.00    -0.158 OA
ATOM     31  O   UNL     1       2.982   6.086   0.150  0.00  0.00    -0.158 OA
ATOM     32  C   UNL     1       4.620   8.180   0.289  0.00  0.00    +0.215 C 
ENDBRANCH   5  29
TORSDOF 5
