REMARK  Name = ZINC37100539
REMARK  3 active torsions:
REMARK  status: ('A' for Active; 'I' for Inactive)
REMARK    1  A    between atoms: C_1  and  C_2
REMARK    2  A    between atoms: C_7  and  C_24
REMARK    3  A    between atoms: C_14  and  C_22
REMARK                            x       y       z     vdW  Elec       q    Type
REMARK                         _______ _______ _______ _____ _____    ______ ____
ROOT
ATOM      1  C   UNL     1      -0.069   1.435   0.145  0.00  0.00    +0.028 C 
ATOM      2  C   UNL     1       0.044  -0.090   0.097  0.00  0.00    +0.073 C 
ATOM      3  C   UNL     1       0.711  -0.515  -1.215  0.00  0.00    +0.022 C 
ATOM      4  C   UNL     1       2.153  -0.003  -1.239  0.00  0.00    +0.004 C 
ATOM      5  C   UNL     1       2.935  -0.622  -0.078  0.00  0.00    +0.022 C 
ATOM      6  C   UNL     1       2.294  -0.198   1.247  0.00  0.00    +0.073 C 
ATOM      7  N   UNL     1       0.867  -0.558   1.222  0.00  0.00    -0.298 N 
ATOM      8  C   UNL     1       0.314  -1.317   2.225  0.00  0.00    +0.186 C 
ATOM      9  N   UNL     1      -0.989  -1.753   2.102  0.00  0.00    -0.257 N 
ATOM     10  C   UNL     1      -1.676  -2.159   3.189  0.00  0.00    +0.239 C 
ATOM     11  O   UNL     1      -2.823  -2.537   3.082  0.00  0.00    -0.274 OA
ATOM     12  C   UNL     1      -1.003  -2.137   4.540  0.00  0.00    +0.205 C 
ATOM     13  C   UNL     1       0.488  -2.415   4.358  0.00  0.00    +0.089 C 
ATOM     14  N   UNL     1       1.031  -1.614   3.265  0.00  0.00    -0.247 NA
ATOM     15  C   UNL     1       0.704  -3.911   4.060  0.00  0.00    +0.032 C 
ATOM     16  C   UNL     1       2.012  -4.261   4.814  0.00  0.00    +0.002 C 
ATOM     17  C   UNL     1       1.889  -3.432   6.117  0.00  0.00    +0.002 C 
ATOM     18  C   UNL     1       1.239  -2.108   5.663  0.00  0.00    +0.032 C 
ATOM     19  C   UNL     1       2.986  -0.920   2.405  0.00  0.00    +0.028 C 
ATOM     20  H   UNL     1      -1.412  -1.768   1.230  0.00  0.00    +0.157 HD
ENDROOT
BRANCH  12  21
ATOM     21  C   UNL     1      -1.188  -0.816   5.161  0.00  0.00    +0.078 C 
ATOM     22  N   UNL     1      -1.330   0.204   5.640  0.00  0.00    -0.196 NA
ENDBRANCH  12  21
TORSDOF 1
