REMARK  Name = ZINC09667303
REMARK  7 active torsions:
REMARK  status: ('A' for Active; 'I' for Inactive)
REMARK    1  A    between atoms: C_1  and  C_2
REMARK    2  A    between atoms: C_5  and  C_7
REMARK    3  A    between atoms: C_7  and  N_8
REMARK    4  A    between atoms: C_9  and  C_11
REMARK    5  A    between atoms: C_11  and  C_13
REMARK    6  A    between atoms: C_11  and  N_14
REMARK    7  A    between atoms: C_15  and  C_25
REMARK                            x       y       z     vdW  Elec       q    Type
REMARK                         _______ _______ _______ _____ _____    ______ ____
ROOT
ATOM      1  N   UNL     1      -4.502  -0.123   0.588  0.00  0.00    -0.275 N 
ATOM      2  C   UNL     1      -3.142  -0.093   0.038  0.00  0.00    +0.140 C 
ATOM      3  C   UNL     1      -3.249  -0.596  -1.380  0.00  0.00    -0.010 A 
ATOM      4  C   UNL     1      -2.327  -0.791  -2.383  0.00  0.00    +0.006 A 
ATOM      5  C   UNL     1      -2.736  -1.279  -3.612  0.00  0.00    +0.000 A 
ATOM      6  C   UNL     1      -4.071  -1.570  -3.837  0.00  0.00    +0.001 A 
ATOM      7  C   UNL     1      -5.003  -1.378  -2.838  0.00  0.00    +0.013 A 
ATOM      8  C   UNL     1      -4.598  -0.887  -1.595  0.00  0.00    +0.042 A 
ATOM      9  C   UNL     1      -5.340  -0.581  -0.357  0.00  0.00    +0.248 C 
ATOM     10  O   UNL     1      -6.539  -0.724  -0.213  0.00  0.00    -0.270 OA
ENDROOT
BRANCH   2  11
ATOM     11  C   UNL     1      -2.610   1.317   0.048  0.00  0.00    +0.002 A 
ATOM     12  C   UNL     1      -3.338   2.445   0.042  0.00  0.00    +0.089 A 
ATOM     13  N   UNL     1      -2.510   3.535   0.055  0.00  0.00    -0.360 N 
ATOM     14  H   UNL     1      -2.805   4.459   0.053  0.00  0.00    +0.165 HD
ATOM     15  C   UNL     1      -1.196   3.124   0.071  0.00  0.00    +0.047 A 
ATOM     16  C   UNL     1      -1.201   1.717   0.062  0.00  0.00    +0.005 A 
ATOM     17  C   UNL     1       0.006   1.016   0.080  0.00  0.00    +0.010 A 
ATOM     18  C   UNL     1       1.189   1.701   0.097  0.00  0.00    +0.001 A 
ATOM     19  C   UNL     1       1.199   3.089   0.101  0.00  0.00    +0.002 A 
ATOM     20  C   UNL     1       0.019   3.801   0.088  0.00  0.00    +0.026 A 
ENDBRANCH   2  11
BRANCH   1  21
ATOM     21  C   UNL     1      -4.883   0.280   1.944  0.00  0.00    +0.160 C 
ATOM     22  C   UNL     1      -5.997   1.326   1.871  0.00  0.00    +0.038 C 
BRANCH  21  24
ATOM     23  N   UNL     1      -5.780  -0.792   3.984  0.00  0.00    -0.307 N 
ATOM     24  C   UNL     1      -5.373  -0.924   2.706  0.00  0.00    +0.234 C 
ATOM     25  O   UNL     1      -5.402  -2.011   2.170  0.00  0.00    -0.274 OA
ATOM     26  H   UNL     1      -5.758   0.077   4.413  0.00  0.00    +0.149 HD
BRANCH  23  27
ATOM     27  C   UNL     1      -6.257  -1.963   4.725  0.00  0.00    +0.178 C 
BRANCH  27  32
ATOM     28  C   UNL     1      -5.972  -0.944   9.657  0.00  0.00    +0.086 C 
ATOM     29  C   UNL     1      -6.525  -1.106   8.265  0.00  0.00    +0.102 A 
ATOM     30  C   UNL     1      -7.791  -0.850   7.887  0.00  0.00    +0.045 A 
ATOM     31  C   UNL     1      -7.869  -1.131   6.503  0.00  0.00    +0.046 A 
ATOM     32  C   UNL     1      -6.649  -1.548   6.120  0.00  0.00    +0.122 A 
ATOM     33  O   UNL     1      -5.838  -1.528   7.191  0.00  0.00    -0.463 OA
ENDBRANCH  27  32
ENDBRANCH  23  27
ENDBRANCH  21  24
ENDBRANCH   1  21
TORSDOF 5
