REMARK  Name = ZINC40702417
REMARK  5 active torsions:
REMARK  status: ('A' for Active; 'I' for Inactive)
REMARK    1  A    between atoms: C_1  and  O_2
REMARK    2  A    between atoms: O_2  and  C_3
REMARK    3  A    between atoms: C_8  and  N_9
REMARK    4  A    between atoms: C_11  and  N_22
REMARK    5  A    between atoms: C_12  and  N_16
REMARK                            x       y       z     vdW  Elec       q    Type
REMARK                         _______ _______ _______ _____ _____    ______ ____
ROOT
ATOM      1  N   UNL     1       0.096  -2.777  -0.113  0.00  0.00    -0.295 N 
ATOM      2  C   UNL     1       0.060  -4.161  -0.236  0.00  0.00    +0.149 A 
ATOM      3  C   UNL     1      -0.599  -4.941   0.717  0.00  0.00    +0.106 A 
ATOM      4  C   UNL     1      -0.605  -6.326   0.544  0.00  0.00    +0.150 A 
ATOM      5  N   UNL     1       0.012  -6.847  -0.514  0.00  0.00    -0.219 NA
ATOM      6  C   UNL     1       0.622  -6.075  -1.391  0.00  0.00    +0.225 A 
ATOM      7  N   UNL     1       0.647  -4.763  -1.268  0.00  0.00    -0.219 NA
ATOM      8  H   UNL     1      -0.416  -2.338   0.584  0.00  0.00    +0.154 HD
ENDROOT
BRANCH   1  14
ATOM      9  C   UNL     1       0.534  -0.689  -1.256  0.00  0.00    +0.141 A 
ATOM     10  C   UNL     1       1.309   0.062  -2.124  0.00  0.00    +0.049 A 
ATOM     11  C   UNL     1       2.411  -0.506  -2.736  0.00  0.00    +0.024 A 
ATOM     12  C   UNL     1       2.744  -1.825  -2.482  0.00  0.00    +0.043 A 
ATOM     13  C   UNL     1       1.976  -2.581  -1.616  0.00  0.00    +0.047 A 
ATOM     14  C   UNL     1       0.872  -2.015  -0.995  0.00  0.00    +0.076 A 
ATOM     15 CL   UNL     1       4.130  -2.532  -3.254  0.00  0.00    -0.083 Cl
BRANCH   9  17
ATOM     16  C   UNL     1      -0.837   1.233  -0.969  0.00  0.00    +0.277 C 
ATOM     17  O   UNL     1      -0.550  -0.131  -0.654  0.00  0.00    -0.493 OA
ENDBRANCH   9  17
ENDBRANCH   1  14
BRANCH   4  18
ATOM     18  N   UNL     1      -1.246  -7.150   1.464  0.00  0.00    -0.277 N 
ATOM     19  C   UNL     1      -1.245  -8.525   1.282  0.00  0.00    +0.163 A 
ATOM     20  N   UNL     1      -0.692  -9.221   0.312  0.00  0.00    -0.233 NA
ATOM     21  C   UNL     1      -0.781 -10.539   0.282  0.00  0.00    +0.120 A 
ATOM     22  C   UNL     1      -1.465 -11.133   1.290  0.00  0.00    +0.068 A 
ATOM     23  S   UNL     1      -1.946  -9.708   2.252  0.00  0.00    -0.061 S 
ATOM     24  H   UNL     1      -1.692  -6.762   2.233  0.00  0.00    +0.156 HD
ENDBRANCH   4  18
BRANCH   3  25
ATOM     25  N   UNL     1      -1.236  -4.349   1.818  0.00  0.00    -0.353 N 
ATOM     26  H   UNL     1      -1.223  -3.385   1.925  0.00  0.00    +0.143 HD
ATOM     27  H   UNL     1      -1.689  -4.903   2.472  0.00  0.00    +0.143 HD
ENDBRANCH   3  25
TORSDOF 4
