REMARK  Name = ZINC39695688
REMARK  6 active torsions:
REMARK  status: ('A' for Active; 'I' for Inactive)
REMARK    1  A    between atoms: C_1  and  C_2
REMARK    2  A    between atoms: C_9  and  C_11
REMARK    3  A    between atoms: C_11  and  C_13
REMARK    4  A    between atoms: C_11  and  N_14
REMARK    5  A    between atoms: C_15  and  C_17
REMARK    6  A    between atoms: C_28  and  C_30
REMARK                            x       y       z     vdW  Elec       q    Type
REMARK                         _______ _______ _______ _____ _____    ______ ____
ROOT
ATOM      1  C   UNL     1       2.431  -8.777   0.746  0.00  0.00    +0.100 C 
ATOM      2  C   UNL     1       1.185  -9.371   0.051  0.00  0.00    +0.121 C 
ATOM      3  N   UNL     1       1.423 -10.834   0.042  0.00  0.00    -0.296 N 
ATOM      4  C   UNL     1       2.039 -11.115   1.360  0.00  0.00    +0.115 C 
ATOM      5  C   UNL     1       2.988  -9.925   1.605  0.00  0.00    -0.004 C 
ATOM      6  C   UNL     1       2.975  -9.535   3.080  0.00  0.00    -0.010 C 
ATOM      7  C   UNL     1       3.587 -10.668   3.909  0.00  0.00    -0.082 C 
ATOM      8  N   UNL     1       4.962 -10.917   3.460  0.00  0.00    +0.379 N 
ATOM      9  C   UNL     1       4.958 -11.382   2.067  0.00  0.00    -0.082 C 
ATOM     10  C   UNL     1       4.404 -10.279   1.161  0.00  0.00    -0.010 C 
ATOM     11  C   UNL     1       1.142 -11.710  -0.943  0.00  0.00    +0.249 C 
ATOM     12  O   UNL     1       1.311 -12.900  -0.764  0.00  0.00    -0.270 OA
ATOM     13  H   UNL     1       5.496 -10.064   3.527  0.00  0.00    -0.086 HD
ATOM     14  H   UNL     1       5.384 -11.622   4.046  0.00  0.00    -0.086 HD
ENDROOT
BRANCH  11  15
ATOM     15  C   UNL     1       0.629 -11.224  -2.240  0.00  0.00    +0.072 A 
ATOM     16  C   UNL     1      -0.224 -10.119  -2.288  0.00  0.00    +0.016 A 
ATOM     17  C   UNL     1      -0.699  -9.670  -3.502  0.00  0.00    +0.001 A 
ATOM     18  C   UNL     1      -0.334 -10.312  -4.673  0.00  0.00    +0.003 A 
ATOM     19  C   UNL     1       0.509 -11.406  -4.636  0.00  0.00    +0.039 A 
ATOM     20  C   UNL     1       0.999 -11.864  -3.426  0.00  0.00    +0.135 A 
ATOM     21  F   UNL     1       1.828 -12.931  -3.391  0.00  0.00    -0.205 F 
ENDBRANCH  11  15
BRANCH   1  23
ATOM     22  N   UNL     1       2.919  -6.615   1.843  0.00  0.00    -0.305 N 
ATOM     23  C   UNL     1       2.041  -7.612   1.617  0.00  0.00    +0.219 C 
ATOM     24  O   UNL     1       0.935  -7.570   2.115  0.00  0.00    -0.275 OA
ATOM     25  H   UNL     1       3.803  -6.648   1.445  0.00  0.00    +0.149 HD
BRANCH  22  26
ATOM     26  C   UNL     1       2.539  -5.481   2.690  0.00  0.00    +0.136 C 
ATOM     27  C   UNL     1       1.800  -4.441   1.847  0.00  0.00    +0.036 C 
BRANCH  26  36
ATOM     28  C   UNL     1       7.835  -1.993   6.585  0.00  0.00    +0.044 C 
ATOM     29  C   UNL     1       7.128  -2.791   5.520  0.00  0.00    -0.048 A 
ATOM     30  C   UNL     1       7.847  -3.298   4.447  0.00  0.00    +0.005 A 
ATOM     31  C   UNL     1       7.225  -4.024   3.472  0.00  0.00    +0.030 A 
ATOM     32  C   UNL     1       5.850  -4.263   3.551  0.00  0.00    +0.089 A 
ATOM     33  C   UNL     1       5.122  -3.751   4.638  0.00  0.00    +0.067 A 
ATOM     34  C   UNL     1       5.772  -3.018   5.622  0.00  0.00    +0.031 A 
ATOM     35  N   UNL     1       3.814  -4.145   4.439  0.00  0.00    -0.340 N 
ATOM     36  C   UNL     1       3.778  -4.860   3.283  0.00  0.00    +0.128 A 
ATOM     37  N   UNL     1       4.968  -4.929   2.763  0.00  0.00    -0.231 NA
ATOM     38  H   UNL     1       3.060  -3.949   5.018  0.00  0.00    +0.167 HD
ENDBRANCH  26  36
ENDBRANCH  22  26
ENDBRANCH   1  23
TORSDOF 4
