REMARK  Name = ZINC12468777
REMARK  7 active torsions:
REMARK  status: ('A' for Active; 'I' for Inactive)
REMARK    1  A    between atoms: C_1  and  C_2
REMARK    2  A    between atoms: C_7  and  C_8
REMARK    3  A    between atoms: C_18  and  C_20
REMARK    4  A    between atoms: C_23  and  S_26
REMARK    5  A    between atoms: S_26  and  N_29
REMARK    6  A    between atoms: C_31  and  C_38
REMARK    7  A    between atoms: C_34  and  C_37
REMARK                            x       y       z     vdW  Elec       q    Type
REMARK                         _______ _______ _______ _____ _____    ______ ____
ROOT
ATOM      1  C   UNL     1      -2.485   1.737  -1.750  0.00  0.00    +0.044 C 
ATOM      2  C   UNL     1      -1.071   1.273  -1.508  0.00  0.00    -0.045 A 
ATOM      3  C   UNL     1      -0.073   2.204  -1.377  0.00  0.00    +0.032 A 
ATOM      4  C   UNL     1       1.263   1.804  -1.151  0.00  0.00    +0.081 A 
ATOM      5  C   UNL     1       1.492   0.411  -1.071  0.00  0.00    +0.041 A 
ATOM      6  C   UNL     1       0.488  -0.514  -1.203  0.00  0.00    +0.021 A 
ATOM      7  C   UNL     1      -0.808  -0.086  -1.430  0.00  0.00    -0.046 A 
ATOM      8  C   UNL     1      -1.924  -1.088  -1.585  0.00  0.00    +0.044 C 
ATOM      9  S   UNL     1       3.245   0.332  -0.787  0.00  0.00    -0.052 S 
ATOM     10  C   UNL     1       3.553   2.092  -0.791  0.00  0.00    +0.162 A 
ATOM     11  N   UNL     1       2.354   2.587  -1.000  0.00  0.00    -0.225 NA
ATOM     12  N   UNL     1       4.747   2.762  -0.619  0.00  0.00    -0.307 N 
ATOM     13  C   UNL     1       5.016   3.659  -1.751  0.00  0.00    +0.126 C 
ATOM     14  C   UNL     1       6.250   4.513  -1.440  0.00  0.00    +0.127 C 
ATOM     15  N   UNL     1       7.359   3.618  -1.080  0.00  0.00    -0.295 N 
ATOM     16  C   UNL     1       7.123   2.598  -0.047  0.00  0.00    +0.127 C 
ATOM     17  C   UNL     1       5.855   1.819  -0.413  0.00  0.00    +0.126 C 
ATOM     18  C   UNL     1       8.560   3.728  -1.681  0.00  0.00    +0.247 C 
ATOM     19  O   UNL     1       9.486   3.026  -1.323  0.00  0.00    -0.270 OA
ENDROOT
BRANCH  18  20
ATOM     20  C   UNL     1       8.753   4.703  -2.776  0.00  0.00    +0.037 A 
ATOM     21  C   UNL     1       9.352   4.305  -3.972  0.00  0.00    +0.015 A 
ATOM     22  C   UNL     1       9.524   5.219  -4.991  0.00  0.00    +0.029 A 
ATOM     23  C   UNL     1       9.114   6.530  -4.825  0.00  0.00    +0.106 A 
ATOM     24  C   UNL     1       8.523   6.932  -3.640  0.00  0.00    +0.029 A 
ATOM     25  C   UNL     1       8.341   6.027  -2.615  0.00  0.00    +0.015 A 
BRANCH  23  26
ATOM     26  S   UNL     1       9.343   7.692  -6.130  0.00  0.00    +0.061 S 
ATOM     27  O   UNL     1       9.420   6.941  -7.334  0.00  0.00    -0.153 OA
ATOM     28  O   UNL     1       8.381   8.719  -5.933  0.00  0.00    -0.153 OA
BRANCH  26  29
ATOM     29  N   UNL     1      10.830   8.388  -5.910  0.00  0.00    -0.172 NA
ATOM     30  C   UNL     1      10.982   9.610  -5.104  0.00  0.00    +0.140 C 
ATOM     31  C   UNL     1      12.103   9.372  -4.080  0.00  0.00    +0.131 C 
ATOM     32  O   UNL     1      13.272   8.912  -4.761  0.00  0.00    -0.371 OA
ATOM     33  C   UNL     1      13.104   7.659  -5.429  0.00  0.00    +0.131 C 
ATOM     34  C   UNL     1      12.036   7.806  -6.519  0.00  0.00    +0.140 C 
ATOM     35  C   UNL     1      12.663   6.597  -4.420  0.00  0.00    +0.039 C 
ATOM     36  C   UNL     1      12.417  10.682  -3.354  0.00  0.00    +0.039 C 
ENDBRANCH  26  29
ENDBRANCH  23  26
ENDBRANCH  18  20
TORSDOF 3
