REMARK  Name = ZINC08845440
REMARK  8 active torsions:
REMARK  status: ('A' for Active; 'I' for Inactive)
REMARK    1  A    between atoms: C_1  and  C_2
REMARK    2  A    between atoms: C_5  and  O_35
REMARK    3  A    between atoms: C_6  and  C_8
REMARK    4  A    between atoms: C_10  and  C_14
REMARK    5  A    between atoms: N_16  and  C_17
REMARK    6  A    between atoms: C_18  and  C_25
REMARK    7  A    between atoms: N_27  and  C_28
REMARK    8  A    between atoms: C_28  and  C_29
REMARK                            x       y       z     vdW  Elec       q    Type
REMARK                         _______ _______ _______ _____ _____    ______ ____
ROOT
ATOM      1  C   UNL     1       0.106  -5.777   4.648  0.00  0.00    +0.266 C 
ATOM      2  O   UNL     1       0.121  -6.800   3.991  0.00  0.00    -0.268 OA
ATOM      3  N   UNL     1       0.110  -5.840   5.995  0.00  0.00    -0.274 N 
ATOM      4  H   UNL     1       0.098  -5.024   6.519  0.00  0.00    +0.156 HD
ENDROOT
BRANCH   3   5
ATOM      5  C   UNL     1       0.132  -7.071   6.630  0.00  0.00    +0.085 A 
ATOM      6  C   UNL     1       0.134  -7.327   7.989  0.00  0.00    +0.069 A 
ATOM      7  C   UNL     1       0.159  -8.728   8.406  0.00  0.00    -0.023 A 
ATOM      8  C   UNL     1       0.179  -9.604   7.386  0.00  0.00    -0.004 A 
ATOM      9  S   UNL     1       0.155  -8.594   5.927  0.00  0.00    -0.077 S 
ATOM     10  C   UNL     1       0.209 -11.029   7.870  0.00  0.00    +0.043 C 
ATOM     11  C   UNL     1       0.638 -10.928   9.351  0.00  0.00    +0.010 C 
ATOM     12  C   UNL     1       0.167  -9.507   9.720  0.00  0.00    +0.037 C 
BRANCH   6  13
ATOM     13  C   UNL     1       0.112  -6.239   8.970  0.00  0.00    +0.247 C 
ATOM     14  O   UNL     1      -0.951  -5.806   9.376  0.00  0.00    -0.270 OA
ATOM     15  N   UNL     1       1.269  -5.717   9.424  0.00  0.00    -0.309 N 
ATOM     16  H   UNL     1       2.116  -6.061   9.100  0.00  0.00    +0.149 HD
BRANCH  15  17
ATOM     17  C   UNL     1       1.247  -4.629  10.405  0.00  0.00    +0.136 C 
BRANCH  17  18
ATOM     18  C   UNL     1       2.681  -4.223  10.749  0.00  0.00    +0.135 C 
ATOM     19  C   UNL     1       2.681  -3.096  11.812  0.00  0.00    +0.035 C 
ATOM     20  C   UNL     1       4.079  -3.299  12.457  0.00  0.00    +0.031 C 
ATOM     21  C   UNL     1       4.254  -4.832  12.385  0.00  0.00    +0.160 C 
ATOM     22  O   UNL     1       3.376  -5.321  11.362  0.00  0.00    -0.375 OA
ENDBRANCH  17  18
ENDBRANCH  15  17
ENDBRANCH   6  13
ENDBRANCH   3   5
BRANCH   1  25
ATOM     23  C   UNL     1       0.051  -2.842   2.468  0.00  0.00    +0.097 A 
ATOM     24  C   UNL     1       0.076  -4.241   2.611  0.00  0.00    +0.062 A 
ATOM     25  C   UNL     1       0.083  -4.469   3.974  0.00  0.00    +0.121 A 
ATOM     26  N   UNL     1       0.063  -3.240   4.572  0.00  0.00    -0.272 N 
ATOM     27  H   UNL     1       0.063  -3.087   5.530  0.00  0.00    +0.189 HD
ATOM     28  N   UNL     1       0.051  -2.319   3.677  0.00  0.00    -0.173 NA
BRANCH  23  34
ATOM     29  C   UNL     1      -0.018   1.503   0.010  0.00  0.00    +0.044 C 
ATOM     30  C   UNL     1       0.002  -0.004   0.002  0.00  0.00    -0.050 A 
ATOM     31  C   UNL     1       0.006  -0.687  -1.202  0.00  0.00    +0.007 A 
ATOM     32  C   UNL     1       0.024  -2.069  -1.219  0.00  0.00    +0.046 A 
ATOM     33  C   UNL     1       0.039  -2.778  -0.029  0.00  0.00    +0.126 A 
ATOM     34  C   UNL     1       0.036  -2.091   1.188  0.00  0.00    +0.044 A 
ATOM     35  C   UNL     1       0.023  -0.698   1.195  0.00  0.00    +0.017 A 
BRANCH  33  36
ATOM     36  O   UNL     1       0.056  -4.136  -0.044  0.00  0.00    -0.506 OA
ATOM     37  H   UNL     1       0.944  -4.518  -0.053  0.00  0.00    +0.292 HD
ENDBRANCH  33  36
ENDBRANCH  23  34
ENDBRANCH   1  25
TORSDOF 7
