REMARK  Name = ZINC13495915
REMARK  15 active torsions:
REMARK  status: ('A' for Active; 'I' for Inactive)
REMARK    1  A    between atoms: C_1  and  C_2
REMARK    2  A    between atoms: C_2  and  C_3
REMARK    3  A    between atoms: C_3  and  C_5
REMARK    4  A    between atoms: C_3  and  N_78
REMARK    5  A    between atoms: N_9  and  C_10
REMARK    6  A    between atoms: C_10  and  C_11
REMARK    7  A    between atoms: C_11  and  C_12
REMARK    8  A    between atoms: C_18  and  C_19
REMARK    9  A    between atoms: C_18  and  N_78
REMARK   10  A    between atoms: C_19  and  C_20
REMARK   11  A    between atoms: C_25  and  C_26
REMARK   12  A    between atoms: C_27  and  C_28
REMARK   13  A    between atoms: C_27  and  N_78
REMARK   14  A    between atoms: C_32  and  C_41
REMARK   15  A    between atoms: C_34  and  C_40
REMARK                            x       y       z     vdW  Elec       q    Type
REMARK                         _______ _______ _______ _____ _____    ______ ____
ROOT
ATOM      1  N   UNL     1      -2.371   1.465  -1.312  0.00  0.00    +0.389 N 
ATOM      2  H   UNL     1      -2.943   0.616  -1.226  0.00  0.00    -0.080 HD
ENDROOT
BRANCH   1   3
ATOM      3  C   UNL     1      -1.217   1.361  -0.395  0.00  0.00    +0.003 C 
BRANCH   3   4
ATOM      4  C   UNL     1      -0.255   0.330  -0.925  0.00  0.00    +0.138 A 
ATOM      5  N   UNL     1      -0.562  -0.848  -1.412  0.00  0.00    -0.115 NA
ATOM      6  N   UNL     1       0.533  -1.430  -1.764  0.00  0.00    -0.023 NA
ATOM      7  N   UNL     1       1.529  -0.654  -1.514  0.00  0.00    -0.044 NA
ATOM      8  N   UNL     1       1.084   0.441  -0.996  0.00  0.00    -0.231 N 
BRANCH   8   9
ATOM      9  C   UNL     1       1.886   1.589  -0.567  0.00  0.00    +0.152 C 
BRANCH   9  10
ATOM     10  C   UNL     1       2.283   1.413   0.901  0.00  0.00    +0.058 C 
BRANCH  10  11
ATOM     11  C   UNL     1       3.108   2.595   1.343  0.00  0.00    -0.046 A 
ATOM     12  C   UNL     1       4.484   2.564   1.213  0.00  0.00    +0.004 A 
ATOM     13  C   UNL     1       5.240   3.650   1.613  0.00  0.00    +0.000 A 
ATOM     14  C   UNL     1       4.621   4.761   2.154  0.00  0.00    +0.000 A 
ATOM     15  C   UNL     1       3.246   4.790   2.289  0.00  0.00    +0.000 A 
ATOM     16  C   UNL     1       2.489   3.706   1.883  0.00  0.00    +0.004 A 
ENDBRANCH  10  11
ENDBRANCH   9  10
ENDBRANCH   8   9
ENDBRANCH   3   4
BRANCH   3  18
ATOM     17  C   UNL     1      -2.387  -0.445   0.875  0.00  0.00    +0.002 C 
ATOM     18  C   UNL     1      -1.720   0.928   0.984  0.00  0.00    -0.011 C 
ENDBRANCH   3  18
ENDBRANCH   1   3
BRANCH   1  19
ATOM     19  C   UNL     1      -1.899   1.586  -2.707  0.00  0.00    -0.073 C 
BRANCH  19  20
ATOM     20  C   UNL     1      -3.094   1.423  -3.648  0.00  0.00    +0.017 C 
BRANCH  20  21
ATOM     21  C   UNL     1      -2.612   1.412  -5.076  0.00  0.00    -0.046 A 
ATOM     22  C   UNL     1      -2.601   2.583  -5.811  0.00  0.00    +0.004 A 
ATOM     23  C   UNL     1      -2.154   2.574  -7.118  0.00  0.00    +0.000 A 
ATOM     24  C   UNL     1      -1.727   1.392  -7.695  0.00  0.00    +0.000 A 
ATOM     25  C   UNL     1      -1.743   0.221  -6.962  0.00  0.00    +0.003 A 
ATOM     26  C   UNL     1      -2.185   0.230  -5.652  0.00  0.00    -0.047 A 
ATOM     27  C   UNL     1      -2.202  -1.047  -4.853  0.00  0.00    +0.044 C 
ENDBRANCH  20  21
ENDBRANCH  19  20
ENDBRANCH   1  19
BRANCH   1  28
ATOM     28  C   UNL     1      -3.197   2.638  -0.955  0.00  0.00    -0.037 C 
BRANCH  28  29
ATOM     29  C   UNL     1      -2.424   3.913  -1.170  0.00  0.00    +0.001 A 
ATOM     30  C   UNL     1      -2.537   4.581  -2.345  0.00  0.00    +0.017 A 
ATOM     31  C   UNL     1      -1.773   5.817  -2.523  0.00  0.00    -0.001 A 
ATOM     32  C   UNL     1      -1.849   6.550  -3.712  0.00  0.00    +0.013 A 
ATOM     33  C   UNL     1      -1.124   7.700  -3.847  0.00  0.00    -0.050 A 
ATOM     34  C   UNL     1      -0.311   8.148  -2.814  0.00  0.00    +0.008 A 
ATOM     35  C   UNL     1      -0.221   7.442  -1.633  0.00  0.00    -0.026 A 
ATOM     36  C   UNL     1      -0.951   6.268  -1.474  0.00  0.00    +0.052 A 
ATOM     37  N   UNL     1      -0.880   5.543  -0.303  0.00  0.00    -0.322 N 
ATOM     38  H   UNL     1      -0.312   5.855   0.419  0.00  0.00    +0.169 HD
ATOM     39  C   UNL     1      -1.589   4.412  -0.147  0.00  0.00    +0.251 A 
ATOM     40  O   UNL     1      -1.506   3.798   0.903  0.00  0.00    -0.268 OA
ATOM     41  C   UNL     1       0.664   7.940  -0.521  0.00  0.00    +0.046 C 
ATOM     42  C   UNL     1      -1.206   8.489  -5.128  0.00  0.00    +0.044 C 
ENDBRANCH  28  29
ENDBRANCH   1  28
TORSDOF 11
