REMARK  Name = ZINC04027865
REMARK  4 active torsions:
REMARK  status: ('A' for Active; 'I' for Inactive)
REMARK    1  A    between atoms: C_1  and  O_2
REMARK    2  A    between atoms: O_2  and  C_3
REMARK    3  A    between atoms: C_3  and  C_5
REMARK    4  A    between atoms: C_18  and  C_20
REMARK                            x       y       z     vdW  Elec       q    Type
REMARK                         _______ _______ _______ _____ _____    ______ ____
ROOT
ATOM      1  C   UNL     1      -4.927   2.017   0.317  0.00  0.00    +0.045 C 
ATOM      2  C   UNL     1      -5.277   1.972  -1.176  0.00  0.00    +0.033 C 
ATOM      3  C   UNL     1      -4.085   1.420  -1.917  0.00  0.00    -0.021 A 
ATOM      4  C   UNL     1      -4.005   0.895  -3.262  0.00  0.00    +0.003 A 
ATOM      5  C   UNL     1      -4.953   0.733  -4.277  0.00  0.00    +0.010 A 
ATOM      6  C   UNL     1      -4.512   0.185  -5.457  0.00  0.00    +0.001 A 
ATOM      7  C   UNL     1      -3.192  -0.192  -5.646  0.00  0.00    +0.002 A 
ATOM      8  C   UNL     1      -2.233  -0.042  -4.659  0.00  0.00    +0.026 A 
ATOM      9  C   UNL     1      -2.652   0.511  -3.450  0.00  0.00    +0.047 A 
ATOM     10  N   UNL     1      -1.983   0.792  -2.293  0.00  0.00    -0.359 N 
ATOM     11  H   UNL     1      -1.039   0.631  -2.140  0.00  0.00    +0.166 HD
ATOM     12  C   UNL     1      -2.846   1.336  -1.381  0.00  0.00    +0.010 A 
ATOM     13  C   UNL     1      -2.525   1.791   0.023  0.00  0.00    +0.009 C 
ATOM     14  N   UNL     1      -3.614   2.670   0.503  0.00  0.00    +0.396 N 
ATOM     15  H   UNL     1      -3.474   2.868   1.501  0.00  0.00    -0.083 HD
ATOM     16  H   UNL     1      -3.597   3.550  -0.025  0.00  0.00    -0.083 HD
ENDROOT
BRANCH  13  17
ATOM     17  C   UNL     1      -1.230   2.562   0.022  0.00  0.00    -0.042 A 
ATOM     18  C   UNL     1      -1.249   3.944   0.035  0.00  0.00    +0.003 A 
ATOM     19  C   UNL     1      -0.061   4.651   0.027  0.00  0.00    +0.000 A 
ATOM     20  C   UNL     1       1.146   3.977   0.013  0.00  0.00    +0.001 A 
ATOM     21  C   UNL     1       1.165   2.595   0.005  0.00  0.00    +0.015 A 
ATOM     22  C   UNL     1      -0.024   1.887   0.012  0.00  0.00    +0.020 A 
ATOM     23 BR   UNL     1       0.002  -0.004   0.002  0.00  0.00    -0.050 Br
ENDBRANCH  13  17
BRANCH   1  24
ATOM     24  C   UNL     1      -5.977   2.806   1.056  0.00  0.00    +0.293 C 
ATOM     25  O   UNL     1      -5.768   3.958   1.355  0.00  0.00    -0.253 OA
BRANCH  24  27
ATOM     26  C   UNL     1      -8.110   3.050   2.092  0.00  0.00    +0.280 C 
ATOM     27  O   UNL     1      -7.145   2.230   1.381  0.00  0.00    -0.469 OA
ENDBRANCH  24  27
ENDBRANCH   1  24
TORSDOF 3
