REMARK  Name = ZINC08115326
REMARK  4 active torsions:
REMARK  status: ('A' for Active; 'I' for Inactive)
REMARK    1  A    between atoms: C_5  and  C_7
REMARK    2  A    between atoms: N_13  and  C_14
REMARK    3  A    between atoms: C_14  and  C_16
REMARK    4  A    between atoms: C_17  and  C_18
REMARK                            x       y       z     vdW  Elec       q    Type
REMARK                         _______ _______ _______ _____ _____    ______ ____
ROOT
ATOM      1  C   UNL     1       1.248  -2.162  -0.021  0.00  0.00    +0.162 A 
ATOM      2  N   UNL     1       0.143  -2.986  -0.020  0.00  0.00    -0.310 N 
ATOM      3  H   UNL     1      -0.783  -2.696  -0.014  0.00  0.00    +0.170 HD
ATOM      4  C   UNL     1       0.577  -4.276  -0.029  0.00  0.00    +0.216 A 
ATOM      5  N   UNL     1       1.929  -4.247  -0.036  0.00  0.00    -0.246 N 
ATOM      6  N   UNL     1       2.322  -2.902  -0.036  0.00  0.00    -0.153 NA
ATOM      7  N   UNL     1      -0.188  -5.364  -0.032  0.00  0.00    -0.142 NA
ATOM      8  H   UNL     1       2.519  -5.017  -0.043  0.00  0.00    +0.192 HD
ENDROOT
BRANCH   1  13
ATOM      9  C   UNL     1      -0.017   1.375   0.010  0.00  0.00    +0.001 A 
ATOM     10  C   UNL     1       1.170   2.087   0.002  0.00  0.00    +0.001 A 
ATOM     11  C   UNL     1       2.382   1.421  -0.013  0.00  0.00    +0.016 A 
ATOM     12  C   UNL     1       2.415   0.041  -0.021  0.00  0.00    +0.029 A 
ATOM     13  C   UNL     1       1.221  -0.682  -0.013  0.00  0.00    +0.033 A 
ATOM     14  C   UNL     1       0.002  -0.004   0.002  0.00  0.00    +0.013 A 
ATOM     15 BR   UNL     1       4.073  -0.868  -0.043  0.00  0.00    -0.050 Br
ENDBRANCH   1  13
BRANCH   7  16
ATOM     16  C   UNL     1      -1.522  -5.245  -0.024  0.00  0.00    +0.263 C 
ATOM     17  O   UNL     1      -2.035  -4.138  -0.016  0.00  0.00    -0.269 OA
BRANCH  16  18
ATOM     18  C   UNL     1      -2.366  -6.446  -0.026  0.00  0.00    +0.070 C 
ATOM     19  C   UNL     1      -3.707  -6.327  -0.019  0.00  0.00    +0.013 C 
BRANCH  19  20
ATOM     20  C   UNL     1      -4.554  -7.531  -0.021  0.00  0.00    -0.025 A 
ATOM     21  C   UNL     1      -3.968  -8.801  -0.025  0.00  0.00    +0.011 A 
ATOM     22  C   UNL     1      -4.766  -9.924  -0.028  0.00  0.00    +0.039 A 
ATOM     23  C   UNL     1      -6.147  -9.798  -0.026  0.00  0.00    +0.123 A 
ATOM     24  C   UNL     1      -6.734  -8.541  -0.022  0.00  0.00    +0.039 A 
ATOM     25  C   UNL     1      -5.947  -7.410  -0.014  0.00  0.00    +0.011 A 
ATOM     26  F   UNL     1      -6.923 -10.903  -0.028  0.00  0.00    -0.205 F 
ENDBRANCH  19  20
ENDBRANCH  16  18
ENDBRANCH   7  16
TORSDOF 4
