REMARK  Name = ZINC43218687
REMARK  7 active torsions:
REMARK  status: ('A' for Active; 'I' for Inactive)
REMARK    1  A    between atoms: C_1  and  O_2
REMARK    2  A    between atoms: O_2  and  C_3
REMARK    3  A    between atoms: C_8  and  C_9
REMARK    4  A    between atoms: N_17  and  C_20
REMARK    5  A    between atoms: C_26  and  C_28
REMARK    6  A    between atoms: C_26  and  C_39
REMARK    7  A    between atoms: C_28  and  C_29
REMARK                            x       y       z     vdW  Elec       q    Type
REMARK                         _______ _______ _______ _____ _____    ______ ____
ROOT
ATOM      1  C   UNL     1       0.052  -2.828   0.005  0.00  0.00    -0.023 C 
ATOM      2  C   UNL     1      -1.420  -3.058   0.303  0.00  0.00    +0.077 C 
ATOM      3  C   UNL     1      -1.278  -4.335   1.216  0.00  0.00    +0.086 C 
ATOM      4  C   UNL     1      -2.571  -4.385   1.852  0.00  0.00    +0.225 C 
ATOM      5  O   UNL     1      -3.194  -5.373   2.178  0.00  0.00    -0.275 OA
ATOM      6  N   UNL     1      -2.943  -3.073   2.010  0.00  0.00    -0.239 N 
ATOM      7  C   UNL     1      -2.162  -2.203   1.282  0.00  0.00    +0.225 C 
ATOM      8  O   UNL     1      -2.084  -0.999   1.407  0.00  0.00    -0.275 OA
ATOM      9  C   UNL     1      -0.378  -5.183   0.416  0.00  0.00    +0.052 C 
ATOM     10  N   UNL     1       0.670  -4.188  -0.037  0.00  0.00    +0.396 N 
ATOM     11  H   UNL     1       0.956  -4.404  -0.981  0.00  0.00    -0.083 HD
ATOM     12  H   UNL     1       1.470  -4.219   0.578  0.00  0.00    -0.083 HD
ENDROOT
BRANCH   1  18
ATOM     13  C   UNL     1       0.717  -0.621   0.990  0.00  0.00    +0.122 A 
ATOM     14  C   UNL     1       1.294   0.137   2.000  0.00  0.00    +0.046 A 
ATOM     15  C   UNL     1       1.835  -0.488   3.107  0.00  0.00    +0.004 A 
ATOM     16  C   UNL     1       1.803  -1.867   3.209  0.00  0.00    +0.000 A 
ATOM     17  C   UNL     1       1.230  -2.623   2.204  0.00  0.00    +0.005 A 
ATOM     18  C   UNL     1       0.682  -2.003   1.097  0.00  0.00    -0.019 A 
BRANCH  13  20
ATOM     19  C   UNL     1       0.255   1.418  -0.142  0.00  0.00    +0.277 C 
ATOM     20  O   UNL     1       0.183  -0.009  -0.099  0.00  0.00    -0.495 OA
ENDBRANCH  13  20
ENDBRANCH   1  18
BRANCH   6  21
ATOM     21  C   UNL     1      -4.060  -2.642   2.853  0.00  0.00    +0.084 C 
ATOM     22  C   UNL     1      -5.093  -1.908   1.995  0.00  0.00    +0.023 C 
ATOM     23  C   UNL     1      -6.260  -1.458   2.876  0.00  0.00    +0.002 C 
ATOM     24  C   UNL     1      -5.743  -0.518   3.967  0.00  0.00    +0.000 C 
ATOM     25  C   UNL     1      -4.710  -1.252   4.824  0.00  0.00    +0.002 C 
ATOM     26  C   UNL     1      -3.543  -1.702   3.944  0.00  0.00    +0.023 C 
ENDBRANCH   6  21
BRANCH   9  27
ATOM     27  C   UNL     1      -1.111  -5.786  -0.754  0.00  0.00    +0.347 C 
ATOM     28  O   UNL     1      -0.740  -5.553  -1.892  0.00  0.00    -0.248 OA
ATOM     29  O   UNL     1      -2.076  -6.508  -0.564  0.00  0.00    -0.248 OA
ENDBRANCH   9  27
BRANCH   9  30
ATOM     30  C   UNL     1       0.255  -6.273   1.283  0.00  0.00    +0.037 C 
BRANCH  30  31
ATOM     31  C   UNL     1       1.260  -7.044   0.466  0.00  0.00    -0.023 A 
ATOM     32  C   UNL     1       1.038  -8.190  -0.197  0.00  0.00    +0.087 A 
ATOM     33  N   UNL     1       2.185  -8.595  -0.825  0.00  0.00    -0.360 N 
ATOM     34  H   UNL     1       2.271  -9.396  -1.365  0.00  0.00    +0.165 HD
ATOM     35  C   UNL     1       3.198  -7.696  -0.575  0.00  0.00    +0.047 A 
ATOM     36  C   UNL     1       2.661  -6.682   0.239  0.00  0.00    +0.003 A 
ATOM     37  C   UNL     1       3.467  -5.619   0.651  0.00  0.00    +0.010 A 
ATOM     38  C   UNL     1       4.775  -5.568   0.258  0.00  0.00    +0.001 A 
ATOM     39  C   UNL     1       5.308  -6.564  -0.549  0.00  0.00    +0.002 A 
ATOM     40  C   UNL     1       4.532  -7.626  -0.959  0.00  0.00    +0.026 A 
ENDBRANCH  30  31
ENDBRANCH   9  30
TORSDOF 6
