REMARK  Name = ZINC63411407
REMARK  6 active torsions:
REMARK  status: ('A' for Active; 'I' for Inactive)
REMARK    1  A    between atoms: C_1  and  C_2
REMARK    2  A    between atoms: C_2  and  C_4
REMARK    3  A    between atoms: C_2  and  N_18
REMARK    4  A    between atoms: N_6  and  N_7
REMARK    5  A    between atoms: C_8  and  C_9
REMARK    6  A    between atoms: N_18  and  C_19
REMARK                            x       y       z     vdW  Elec       q    Type
REMARK                         _______ _______ _______ _____ _____    ______ ____
ROOT
ATOM      1  C   UNL     1      -1.412  -0.526   0.013  0.00  0.00    +0.252 C 
ATOM      2  O   UNL     1      -1.790  -1.233   0.922  0.00  0.00    -0.272 OA
ATOM      3  N   UNL     1      -2.256  -0.206  -0.988  0.00  0.00    -0.205 N 
ATOM      4  H   UNL     1      -1.953   0.360  -1.716  0.00  0.00    +0.177 HD
ENDROOT
BRANCH   1   6
ATOM      5  C   UNL     1      -0.019   1.526   0.010  0.00  0.00    +0.038 C 
ATOM      6  C   UNL     1       0.002  -0.004   0.002  0.00  0.00    +0.155 C 
BRANCH   6   7
ATOM      7  N   UNL     1       0.711  -0.489   1.189  0.00  0.00    -0.333 N 
ATOM      8  H   UNL     1       0.213  -0.731   1.986  0.00  0.00    +0.147 HD
BRANCH   7   9
ATOM      9  C   UNL     1       2.099  -0.604   1.173  0.00  0.00    +0.035 A 
ATOM     10  C   UNL     1       2.813  -0.256   0.046  0.00  0.00    +0.023 A 
ATOM     11  C   UNL     1       4.200  -0.366   0.020  0.00  0.00    +0.002 A 
ATOM     12  C   UNL     1       4.889  -0.819   1.104  0.00  0.00    +0.008 A 
ATOM     13  C   UNL     1       4.200  -1.183   2.272  0.00  0.00    -0.016 A 
ATOM     14  C   UNL     1       2.788  -1.070   2.313  0.00  0.00    +0.003 A 
ATOM     15  C   UNL     1       2.101  -1.430   3.483  0.00  0.00    +0.010 A 
ATOM     16  C   UNL     1       2.799  -1.877   4.564  0.00  0.00    +0.001 A 
ATOM     17  C   UNL     1       4.188  -1.983   4.527  0.00  0.00    +0.001 A 
ATOM     18  C   UNL     1       4.886  -1.654   3.405  0.00  0.00    +0.008 A 
ENDBRANCH   7   9
ENDBRANCH   6   7
ENDBRANCH   1   6
BRANCH   3  19
ATOM     19  N   UNL     1      -3.570  -0.691  -0.978  0.00  0.00    -0.188 NA
ATOM     20  C   UNL     1      -4.390  -0.380  -1.951  0.00  0.00    +0.136 C 
BRANCH  20  21
ATOM     21  C   UNL     1      -5.705  -0.866  -1.941  0.00  0.00    +0.000 C 
ATOM     22  C   UNL     1      -6.695  -0.636  -2.894  0.00  0.00    +0.004 A 
ATOM     23  C   UNL     1      -6.708   0.104  -4.097  0.00  0.00    +0.010 A 
ATOM     24  C   UNL     1      -7.840   0.155  -4.843  0.00  0.00    +0.001 A 
ATOM     25  C   UNL     1      -9.005  -0.511  -4.453  0.00  0.00    +0.002 A 
ATOM     26  C   UNL     1      -9.065  -1.240  -3.313  0.00  0.00    +0.026 A 
ATOM     27  C   UNL     1      -7.920  -1.340  -2.478  0.00  0.00    +0.043 A 
ATOM     28  N   UNL     1      -7.724  -1.973  -1.341  0.00  0.00    -0.380 N 
ATOM     29  C   UNL     1      -6.345  -1.754  -0.896  0.00  0.00    +0.150 C 
ATOM     30  H   UNL     1      -8.387  -2.504  -0.872  0.00  0.00    +0.160 HD
ENDBRANCH  20  21
ENDBRANCH   3  19
TORSDOF 5
