REMARK  Name = ZINC15555877
REMARK  11 active torsions:
REMARK  status: ('A' for Active; 'I' for Inactive)
REMARK    1  A    between atoms: C_1  and  C_2
REMARK    2  A    between atoms: C_2  and  C_4
REMARK    3  A    between atoms: C_2  and  N_14
REMARK    4  A    between atoms: C_7  and  S_10
REMARK    5  A    between atoms: S_10  and  N_13
REMARK    6  A    between atoms: C_15  and  C_17
REMARK    7  A    between atoms: C_20  and  O_25
REMARK    8  A    between atoms: C_21  and  O_23
REMARK    9  A    between atoms: O_23  and  C_24
REMARK   10  A    between atoms: O_25  and  C_26
REMARK   11  A    between atoms: C_26  and  C_27
REMARK                            x       y       z     vdW  Elec       q    Type
REMARK                         _______ _______ _______ _____ _____    ______ ____
ROOT
ATOM      1  N   UNL     1      -3.470   1.634   0.915  0.00  0.00    -0.305 N 
ATOM      2  C   UNL     1      -4.466   0.919   1.476  0.00  0.00    +0.245 C 
ATOM      3  O   UNL     1      -4.571  -0.269   1.238  0.00  0.00    -0.270 OA
ATOM      4  H   UNL     1      -3.387   2.581   1.105  0.00  0.00    +0.150 HD
ENDROOT
BRANCH   2   5
ATOM      5  C   UNL     1      -5.430   1.578   2.378  0.00  0.00    +0.040 A 
ATOM      6  C   UNL     1      -5.308   2.942   2.658  0.00  0.00    +0.017 A 
ATOM      7  C   UNL     1      -6.212   3.557   3.497  0.00  0.00    +0.050 A 
ATOM      8  C   UNL     1      -7.238   2.822   4.075  0.00  0.00    +0.162 A 
ATOM      9  C   UNL     1      -7.362   1.460   3.805  0.00  0.00    +0.162 A 
ATOM     10  C   UNL     1      -6.463   0.839   2.960  0.00  0.00    +0.062 A 
BRANCH   9  11
ATOM     11  O   UNL     1      -8.369   0.744   4.372  0.00  0.00    -0.491 OA
ATOM     12  C   UNL     1      -8.437  -0.647   4.051  0.00  0.00    +0.277 C 
ENDBRANCH   9  11
BRANCH   8  13
ATOM     13  O   UNL     1      -8.123   3.432   4.905  0.00  0.00    -0.484 OA
BRANCH  13  14
ATOM     14  C   UNL     1      -7.938   4.830   5.138  0.00  0.00    +0.264 C 
BRANCH  14  15
ATOM     15  C   UNL     1      -9.006   5.329   6.076  0.00  0.00    -0.010 A 
ATOM     16  C   UNL     1     -10.198   5.813   5.571  0.00  0.00    +0.008 A 
ATOM     17  C   UNL     1     -11.180   6.265   6.432  0.00  0.00    +0.020 A 
ATOM     18  C   UNL     1     -10.966   6.245   7.798  0.00  0.00    +0.041 A 
ATOM     19  C   UNL     1      -9.770   5.766   8.303  0.00  0.00    +0.020 A 
ATOM     20  C   UNL     1      -8.790   5.308   7.442  0.00  0.00    +0.008 A 
ATOM     21 CL   UNL     1     -12.196   6.819   8.880  0.00  0.00    -0.084 Cl
ENDBRANCH  14  15
ENDBRANCH  13  14
ENDBRANCH   8  13
ENDBRANCH   2   5
BRANCH   1  23
ATOM     22  C   UNL     1      -3.087   0.941  -1.399  0.00  0.00    +0.033 C 
ATOM     23  C   UNL     1      -2.514   0.980   0.019  0.00  0.00    +0.100 C 
BRANCH  23  24
ATOM     24  C   UNL     1      -1.219   1.751   0.017  0.00  0.00    -0.027 A 
ATOM     25  C   UNL     1      -0.013   1.076   0.008  0.00  0.00    +0.007 A 
ATOM     26  C   UNL     1       1.175   1.783   0.000  0.00  0.00    +0.029 A 
ATOM     27  C   UNL     1       1.156   3.165   0.008  0.00  0.00    +0.105 A 
ATOM     28  C   UNL     1      -0.050   3.840   0.022  0.00  0.00    +0.029 A 
ATOM     29  C   UNL     1      -1.238   3.133   0.030  0.00  0.00    +0.007 A 
BRANCH  27  30
ATOM     30  S   UNL     1       2.670   4.067  -0.003  0.00  0.00    +0.056 S 
ATOM     31  O   UNL     1       2.387   5.342   0.557  0.00  0.00    -0.153 OA
ATOM     32  O   UNL     1       3.662   3.202   0.534  0.00  0.00    -0.153 OA
BRANCH  30  33
ATOM     33  N   UNL     1       3.075   4.326  -1.587  0.00  0.00    -0.204 NA
ATOM     34  H   UNL     1       2.502   3.992  -2.295  0.00  0.00    +0.144 HD
ATOM     35  H   UNL     1       3.886   4.811  -1.808  0.00  0.00    +0.144 HD
ENDBRANCH  30  33
ENDBRANCH  27  30
ENDBRANCH  23  24
ENDBRANCH   1  23
TORSDOF 9
