REMARK  Name = ZINC09002125
REMARK  3 active torsions:
REMARK  status: ('A' for Active; 'I' for Inactive)
REMARK    1  A    between atoms: C_3  and  C_6
REMARK    2  A    between atoms: C_8  and  C_12
REMARK    3  A    between atoms: C_14  and  C_17
REMARK                            x       y       z     vdW  Elec       q    Type
REMARK                         _______ _______ _______ _____ _____    ______ ____
ROOT
ATOM      1  C   UNL     1       3.741   1.826  -0.024  0.00  0.00    +0.100 A 
ATOM      2  C   UNL     1       4.897   1.028  -0.045  0.00  0.00    +0.063 A 
ATOM      3  C   UNL     1       5.979   1.864  -0.050  0.00  0.00    +0.123 A 
ATOM      4  N   UNL     1       5.508   3.147  -0.032  0.00  0.00    -0.272 N 
ATOM      5  H   UNL     1       6.048   3.953  -0.031  0.00  0.00    +0.189 HD
ATOM      6  N   UNL     1       4.109   3.092  -0.022  0.00  0.00    -0.173 NA
ENDROOT
BRANCH   1   9
ATOM      7  C   UNL     1      -0.016   1.353   0.009  0.00  0.00    +0.008 A 
ATOM      8  C   UNL     1       1.178   2.041   0.002  0.00  0.00    +0.018 A 
ATOM      9  C   UNL     1       2.347   1.329  -0.013  0.00  0.00    +0.039 A 
ATOM     10  S   UNL     1       1.752  -0.354  -0.017  0.00  0.00    -0.095 S 
ATOM     11  C   UNL     1       0.002  -0.004   0.002  0.00  0.00    +0.046 A 
ENDBRANCH   1   9
BRANCH   3  12
ATOM     12  C   UNL     1       7.395   1.456  -0.070  0.00  0.00    +0.277 A 
ATOM     13  N   UNL     1       8.429   2.266  -0.069  0.00  0.00    -0.185 NA
ATOM     14  C   UNL     1       9.568   1.553  -0.089  0.00  0.00    +0.209 A 
ATOM     15  N   UNL     1       9.267   0.274  -0.104  0.00  0.00    -0.055 NA
ATOM     16  O   UNL     1       7.850   0.190  -0.086  0.00  0.00    -0.331 OA
BRANCH  14  17
ATOM     17  C   UNL     1      10.935   2.115  -0.096  0.00  0.00    +0.060 A 
ATOM     18  C   UNL     1      12.137   1.460  -0.121  0.00  0.00    +0.019 A 
ATOM     19  C   UNL     1      13.296   2.203  -0.123  0.00  0.00    +0.008 A 
ATOM     20  C   UNL     1      13.213   3.559  -0.098  0.00  0.00    +0.046 A 
ATOM     21  S   UNL     1      11.448   3.825  -0.079  0.00  0.00    -0.093 S 
ENDBRANCH  14  17
ENDBRANCH   3  12
TORSDOF 3
