REMARK  Name = ZINC08891545
REMARK  8 active torsions:
REMARK  status: ('A' for Active; 'I' for Inactive)
REMARK    1  A    between atoms: C_1  and  C_2
REMARK    2  A    between atoms: C_2  and  C_3
REMARK    3  A    between atoms: C_3  and  C_27
REMARK    4  A    between atoms: N_6  and  C_10
REMARK    5  A    between atoms: C_10  and  C_11
REMARK    6  A    between atoms: N_13  and  C_14
REMARK    7  A    between atoms: C_14  and  C_16
REMARK    8  A    between atoms: C_14  and  C_17
REMARK                            x       y       z     vdW  Elec       q    Type
REMARK                         _______ _______ _______ _____ _____    ______ ____
ROOT
ATOM      1  C   UNL     1      -5.426  10.416  -1.470  0.00  0.00    +0.138 C 
ATOM      2  C   UNL     1      -5.302   8.909  -1.574  0.00  0.00    +0.251 C 
ATOM      3  O   UNL     1      -6.133   8.083  -1.263  0.00  0.00    -0.272 OA
ATOM      4  N   UNL     1      -4.076   8.679  -2.083  0.00  0.00    -0.215 N 
ATOM      5  C   UNL     1      -3.417   9.819  -2.320  0.00  0.00    +0.310 C 
ATOM      6  O   UNL     1      -2.294   9.867  -2.782  0.00  0.00    -0.252 OA
ATOM      7  N   UNL     1      -4.137  10.906  -1.988  0.00  0.00    -0.281 N 
ATOM      8  H   UNL     1      -3.861  11.832  -2.074  0.00  0.00    +0.152 HD
ENDROOT
BRANCH   1   9
ATOM      9  C   UNL     1      -5.617  10.839  -0.037  0.00  0.00    -0.015 A 
ATOM     10  C   UNL     1      -6.891  11.051   0.457  0.00  0.00    +0.009 A 
ATOM     11  C   UNL     1      -7.067  11.433   1.774  0.00  0.00    +0.039 A 
ATOM     12  C   UNL     1      -5.967  11.616   2.594  0.00  0.00    +0.123 A 
ATOM     13  C   UNL     1      -4.692  11.409   2.097  0.00  0.00    +0.039 A 
ATOM     14  C   UNL     1      -4.518  11.021   0.782  0.00  0.00    +0.009 A 
ATOM     15  F   UNL     1      -6.138  11.996   3.879  0.00  0.00    -0.205 F 
ENDBRANCH   1   9
BRANCH   1  17
ATOM     16  C   UNL     1      -6.389  10.428  -3.776  0.00  0.00    +0.007 C 
ATOM     17  C   UNL     1      -6.581  10.918  -2.340  0.00  0.00    +0.037 C 
ENDBRANCH   1  17
BRANCH   4  18
ATOM     18  C   UNL     1      -3.533   7.344  -2.350  0.00  0.00    +0.213 C 
BRANCH  18  19
ATOM     19  C   UNL     1      -2.804   6.845  -1.129  0.00  0.00    +0.231 C 
ATOM     20  O   UNL     1      -2.744   7.536  -0.134  0.00  0.00    -0.274 OA
ATOM     21  N   UNL     1      -2.219   5.631  -1.143  0.00  0.00    -0.311 N 
ATOM     22  H   UNL     1      -2.267   5.079  -1.939  0.00  0.00    +0.149 HD
BRANCH  21  23
ATOM     23  C   UNL     1      -1.510   5.146   0.044  0.00  0.00    +0.076 C 
ATOM     24  C   UNL     1      -0.075   5.675   0.033  0.00  0.00    +0.028 C 
BRANCH  23  25
ATOM     25  C   UNL     1      -1.490   3.616   0.036  0.00  0.00    -0.010 C 
ATOM     26  C   UNL     1      -0.773   3.123  -1.223  0.00  0.00    +0.012 C 
ATOM     27  C   UNL     1      -0.753   1.593  -1.232  0.00  0.00    -0.010 C 
ATOM     28  C   UNL     1      -0.013   1.086   0.008  0.00  0.00    +0.007 C 
ATOM     29  C   UNL     1      -0.729   1.579   1.267  0.00  0.00    -0.010 C 
ATOM     30  C   UNL     1      -0.750   3.109   1.275  0.00  0.00    +0.012 C 
ATOM     31  C   UNL     1      -2.164   1.050   1.278  0.00  0.00    +0.007 C 
ATOM     32  C   UNL     1      -2.904   1.556   0.038  0.00  0.00    -0.010 C 
ATOM     33  C   UNL     1      -2.188   1.063  -1.221  0.00  0.00    +0.007 C 
ATOM     34  C   UNL     1      -2.925   3.086   0.047  0.00  0.00    +0.012 C 
ENDBRANCH  23  25
ENDBRANCH  21  23
ENDBRANCH  18  19
ENDBRANCH   4  18
TORSDOF 6
