REMARK  Name = ZINC39714063
REMARK  4 active torsions:
REMARK  status: ('A' for Active; 'I' for Inactive)
REMARK    1  A    between atoms: C_8  and  C_10
REMARK    2  A    between atoms: N_12  and  N_23
REMARK    3  A    between atoms: C_24  and  C_25
REMARK    4  A    between atoms: C_28  and  N_31
REMARK                            x       y       z     vdW  Elec       q    Type
REMARK                         _______ _______ _______ _____ _____    ______ ____
ROOT
ATOM      1  C   UNL     1       3.134  -4.029   0.037  0.00  0.00    +0.280 C 
ATOM      2  O   UNL     1       2.310  -4.925   0.040  0.00  0.00    -0.267 OA
ATOM      3  N   UNL     1       4.446  -4.321  -0.063  0.00  0.00    -0.131 N 
ATOM      4  C   UNL     1       4.857  -5.640  -0.162  0.00  0.00    +0.189 A 
ATOM      5  N   UNL     1       4.135  -6.735  -0.093  0.00  0.00    -0.223 NA
ATOM      6  C   UNL     1       4.674  -7.968  -0.208  0.00  0.00    +0.081 A 
ATOM      7  C   UNL     1       4.013  -9.217  -0.151  0.00  0.00    +0.032 A 
ATOM      8  C   UNL     1       4.714 -10.387  -0.287  0.00  0.00    +0.040 A 
ATOM      9  C   UNL     1       6.090 -10.390  -0.483  0.00  0.00    +0.125 A 
ATOM     10  C   UNL     1       6.768  -9.185  -0.543  0.00  0.00    +0.055 A 
ATOM     11  C   UNL     1       6.072  -8.009  -0.408  0.00  0.00    +0.044 A 
ATOM     12  S   UNL     1       6.503  -6.285  -0.424  0.00  0.00    -0.050 S 
ATOM     13  F   UNL     1       6.758 -11.557  -0.613  0.00  0.00    -0.205 F 
ENDROOT
BRANCH   1  21
ATOM     14  C   UNL     1      -0.035   1.297   0.531  0.00  0.00    +0.001 A 
ATOM     15  C   UNL     1       1.131   2.052   0.498  0.00  0.00    +0.001 A 
ATOM     16  C   UNL     1       2.350   1.415   0.385  0.00  0.00    +0.016 A 
ATOM     17  C   UNL     1       2.393   0.039   0.307  0.00  0.00    +0.021 A 
ATOM     18  C   UNL     1       1.222  -0.755   0.339  0.00  0.00    +0.008 A 
ATOM     19  C   UNL     1      -0.009  -0.059   0.456  0.00  0.00    +0.010 A 
ATOM     20  C   UNL     1       1.432  -2.143   0.249  0.00  0.00    +0.068 A 
ATOM     21  C   UNL     1       2.699  -2.632   0.141  0.00  0.00    +0.096 A 
ATOM     22  S   UNL     1       3.699  -1.154   0.158  0.00  0.00    -0.082 S 
ATOM     23 CL   UNL     1       0.080  -3.231   0.277  0.00  0.00    -0.082 Cl
ENDBRANCH   1  21
BRANCH   3  24
ATOM     24  N   UNL     1       5.394  -3.289  -0.067  0.00  0.00    -0.178 NA
ATOM     25  C   UNL     1       6.107  -3.067  -1.129  0.00  0.00    +0.139 C 
BRANCH  25  26
ATOM     26  C   UNL     1       7.186  -2.063  -1.096  0.00  0.00    -0.005 A 
ATOM     27  C   UNL     1       7.448  -1.353   0.078  0.00  0.00    +0.012 A 
ATOM     28  C   UNL     1       8.459  -0.415   0.102  0.00  0.00    +0.033 A 
ATOM     29  C   UNL     1       9.213  -0.177  -1.034  0.00  0.00    +0.126 A 
ATOM     30  C   UNL     1       8.959  -0.876  -2.200  0.00  0.00    +0.033 A 
ATOM     31  C   UNL     1       7.955  -1.821  -2.237  0.00  0.00    +0.012 A 
BRANCH  29  32
ATOM     32  N   UNL     1      10.296   0.832  -1.000  0.00  0.00    +0.056 N 
ATOM     33  O   UNL     1      10.521   1.444   0.018  0.00  0.00    -0.126 OA
ATOM     34  O   UNL     1      10.957   1.042  -1.991  0.00  0.00    -0.126 OA
ENDBRANCH  29  32
ENDBRANCH  25  26
ENDBRANCH   3  24
TORSDOF 4
