REMARK  Name = ZINC08595737
REMARK  4 active torsions:
REMARK  status: ('A' for Active; 'I' for Inactive)
REMARK    1  A    between atoms: N_10  and  C_11
REMARK    2  A    between atoms: C_11  and  C_12
REMARK    3  A    between atoms: N_14  and  C_15
REMARK    4  A    between atoms: N_21  and  C_26
REMARK                            x       y       z     vdW  Elec       q    Type
REMARK                         _______ _______ _______ _____ _____    ______ ____
ROOT
ATOM      1  C   UNL     1      -1.456   0.813   0.258  0.00  0.00    +0.000 A 
ATOM      2  C   UNL     1      -0.566   1.864   0.129  0.00  0.00    +0.002 A 
ATOM      3  C   UNL     1       0.780   1.618  -0.048  0.00  0.00    +0.024 A 
ATOM      4  C   UNL     1       1.253   0.309  -0.097  0.00  0.00    +0.043 A 
ATOM      5  C   UNL     1       0.347  -0.742   0.033  0.00  0.00    +0.017 A 
ATOM      6  C   UNL     1      -0.995  -0.490   0.209  0.00  0.00    +0.009 A 
ATOM      7  C   UNL     1       1.166  -1.991  -0.067  0.00  0.00    +0.192 C 
ATOM      8  C   UNL     1       2.581  -1.536  -0.256  0.00  0.00    +0.259 C 
ATOM      9  O   UNL     1       3.561  -2.240  -0.378  0.00  0.00    -0.272 OA
ATOM     10  N   UNL     1       2.549  -0.187  -0.263  0.00  0.00    -0.259 N 
ATOM     11  N   UNL     1       0.993  -2.892   1.067  0.00  0.00    -0.243 N 
ATOM     12  C   UNL     1       0.803  -4.190   0.834  0.00  0.00    +0.231 C 
ATOM     13  O   UNL     1       0.644  -4.977   1.743  0.00  0.00    -0.274 OA
ATOM     14  C   UNL     1       0.793  -4.648  -0.618  0.00  0.00    +0.168 C 
ATOM     15  S   UNL     1       0.617  -3.024  -1.481  0.00  0.00    -0.111 S 
ENDROOT
BRANCH  11  16
ATOM     16  C   UNL     1       1.026  -2.402   2.378  0.00  0.00    +0.039 A 
ATOM     17  C   UNL     1      -0.157  -2.079   3.030  0.00  0.00    +0.026 A 
ATOM     18  C   UNL     1      -0.121  -1.595   4.323  0.00  0.00    +0.040 A 
ATOM     19  C   UNL     1       1.092  -1.432   4.970  0.00  0.00    +0.124 A 
ATOM     20  C   UNL     1       2.273  -1.754   4.322  0.00  0.00    +0.040 A 
ATOM     21  C   UNL     1       2.242  -2.244   3.031  0.00  0.00    +0.026 A 
ATOM     22  F   UNL     1       1.125  -0.958   6.235  0.00  0.00    -0.205 F 
ENDBRANCH  11  16
BRANCH  10  23
ATOM     23  C   UNL     1       3.734   0.658  -0.425  0.00  0.00    +0.209 C 
BRANCH  23  24
ATOM     24  C   UNL     1       4.325   0.960   0.928  0.00  0.00    +0.231 C 
ATOM     25  O   UNL     1       3.807   0.513   1.929  0.00  0.00    -0.274 OA
ATOM     26  N   UNL     1       5.429   1.727   1.026  0.00  0.00    -0.311 N 
ATOM     27  H   UNL     1       5.843   2.084   0.225  0.00  0.00    +0.149 HD
BRANCH  26  28
ATOM     28  C   UNL     1       6.003   2.020   2.341  0.00  0.00    +0.073 C 
ATOM     29  C   UNL     1       5.289   3.228   2.951  0.00  0.00    +0.022 C 
ATOM     30  C   UNL     1       5.889   3.534   4.325  0.00  0.00    +0.002 C 
ATOM     31  C   UNL     1       7.379   3.846   4.173  0.00  0.00    +0.000 C 
ATOM     32  C   UNL     1       8.093   2.639   3.563  0.00  0.00    +0.002 C 
ATOM     33  C   UNL     1       7.493   2.332   2.189  0.00  0.00    +0.022 C 
ENDBRANCH  26  28
ENDBRANCH  23  24
ENDBRANCH  10  23
TORSDOF 4
