REMARK  Name = ZINC13064880
REMARK  11 active torsions:
REMARK  status: ('A' for Active; 'I' for Inactive)
REMARK    1  A    between atoms: C_1  and  C_2
REMARK    2  A    between atoms: C_2  and  C_3
REMARK    3  A    between atoms: C_3  and  C_5
REMARK    4  A    between atoms: C_3  and  N_72
REMARK    5  A    between atoms: N_9  and  C_10
REMARK    6  A    between atoms: C_10  and  C_11
REMARK    7  A    between atoms: C_17  and  C_18
REMARK    8  A    between atoms: C_17  and  N_72
REMARK    9  A    between atoms: C_21  and  C_31
REMARK   10  A    between atoms: C_23  and  C_30
REMARK   11  A    between atoms: C_32  and  N_72
REMARK                            x       y       z     vdW  Elec       q    Type
REMARK                         _______ _______ _______ _____ _____    ______ ____
ROOT
ATOM      1  N   UNL     1      -2.962   0.416  -2.425  0.00  0.00    +0.391 N 
ATOM      2  H   UNL     1      -2.128  -0.067  -2.777  0.00  0.00    -0.080 HD
ENDROOT
BRANCH   1   3
ATOM      3  C   UNL     1      -3.228   1.597  -3.273  0.00  0.00    -0.067 C 
ATOM      4  C   UNL     1      -4.080   1.181  -4.473  0.00  0.00    -0.015 C 
ATOM      5  C   UNL     1      -4.333   2.397  -5.366  0.00  0.00    -0.002 C 
ATOM      6  C   UNL     1      -2.995   2.953  -5.859  0.00  0.00    -0.000 C 
ATOM      7  C   UNL     1      -2.143   3.370  -4.659  0.00  0.00    -0.002 C 
ATOM      8  C   UNL     1      -1.891   2.154  -3.766  0.00  0.00    -0.015 C 
ENDBRANCH   1   3
BRANCH   1   9
ATOM      9  C   UNL     1      -4.112  -0.512  -2.477  0.00  0.00    +0.003 C 
BRANCH   9  10
ATOM     10  C   UNL     1      -3.628  -1.897  -2.133  0.00  0.00    +0.138 A 
ATOM     11  N   UNL     1      -2.712  -2.209  -1.249  0.00  0.00    -0.115 NA
ATOM     12  N   UNL     1      -2.581  -3.491  -1.247  0.00  0.00    -0.023 NA
ATOM     13  N   UNL     1      -3.391  -4.005  -2.105  0.00  0.00    -0.044 NA
ATOM     14  N   UNL     1      -4.058  -3.054  -2.668  0.00  0.00    -0.226 N 
BRANCH  14  15
ATOM     15  C   UNL     1      -5.088  -3.207  -3.700  0.00  0.00    +0.182 C 
BRANCH  15  16
ATOM     16  C   UNL     1      -4.438  -3.224  -5.059  0.00  0.00    -0.026 A 
ATOM     17  C   UNL     1      -4.293  -2.048  -5.771  0.00  0.00    +0.005 A 
ATOM     18  C   UNL     1      -3.692  -2.063  -7.016  0.00  0.00    +0.000 A 
ATOM     19  C   UNL     1      -3.246  -3.256  -7.554  0.00  0.00    +0.000 A 
ATOM     20  C   UNL     1      -3.396  -4.433  -6.844  0.00  0.00    +0.000 A 
ATOM     21  C   UNL     1      -3.991  -4.417  -5.597  0.00  0.00    +0.005 A 
ENDBRANCH  15  16
ENDBRANCH  14  15
ENDBRANCH   9  10
BRANCH   9  23
ATOM     22  C   UNL     1      -5.774   1.263  -1.904  0.00  0.00    +0.002 C 
ATOM     23  C   UNL     1      -5.189  -0.085  -1.478  0.00  0.00    -0.011 C 
ENDBRANCH   9  23
ENDBRANCH   1   9
BRANCH   1  24
ATOM     24  C   UNL     1      -2.718   0.840  -1.030  0.00  0.00    -0.036 C 
BRANCH  24  25
ATOM     25  C   UNL     1      -1.375   1.520  -0.958  0.00  0.00    +0.001 A 
ATOM     26  C   UNL     1      -1.304   2.873  -0.927  0.00  0.00    +0.017 A 
ATOM     27  C   UNL     1       0.017   3.503  -0.864  0.00  0.00    +0.002 A 
ATOM     28  C   UNL     1       0.154   4.895  -0.836  0.00  0.00    -0.041 A 
ATOM     29  C   UNL     1       1.400   5.451  -0.776  0.00  0.00    +0.007 A 
ATOM     30  C   UNL     1       2.532   4.648  -0.744  0.00  0.00    -0.048 A 
ATOM     31  C   UNL     1       2.420   3.275  -0.770  0.00  0.00    +0.029 A 
ATOM     32  C   UNL     1       1.161   2.685  -0.831  0.00  0.00    +0.050 A 
ATOM     33  N   UNL     1       1.021   1.314  -0.859  0.00  0.00    -0.322 N 
ATOM     34  H   UNL     1       1.811   0.752  -0.836  0.00  0.00    +0.169 HD
ATOM     35  C   UNL     1      -0.196   0.745  -0.918  0.00  0.00    +0.251 A 
ATOM     36  O   UNL     1      -0.283  -0.471  -0.942  0.00  0.00    -0.268 OA
ATOM     37  C   UNL     1       3.896   5.284  -0.678  0.00  0.00    +0.044 C 
ATOM     38  C   UNL     1      -1.068   5.777  -0.871  0.00  0.00    +0.044 C 
ENDBRANCH  24  25
ENDBRANCH   1  24
TORSDOF 8
