REMARK  Name = ZINC06510115
REMARK  7 active torsions:
REMARK  status: ('A' for Active; 'I' for Inactive)
REMARK    1  A    between atoms: C_1  and  C_2
REMARK    2  A    between atoms: C_5  and  C_8
REMARK    3  A    between atoms: C_11  and  S_14
REMARK    4  A    between atoms: N_12  and  N_13
REMARK    5  A    between atoms: S_14  and  C_15
REMARK    6  A    between atoms: C_15  and  C_17
REMARK    7  A    between atoms: C_15  and  C_18
REMARK                            x       y       z     vdW  Elec       q    Type
REMARK                         _______ _______ _______ _____ _____    ______ ____
ROOT
ATOM      1  C   UNL     1       1.068   2.208   0.004  0.00  0.00    +0.182 A 
ATOM      2  N   UNL     1       0.601   3.434   0.014  0.00  0.00    -0.127 NA
ATOM      3  N   UNL     1      -0.684   3.414   0.026  0.00  0.00    -0.121 NA
ATOM      4  C   UNL     1      -1.116   2.172   0.018  0.00  0.00    +0.209 A 
ATOM      5  N   UNL     1      -0.016   1.362   0.009  0.00  0.00    -0.224 N 
ENDROOT
BRANCH   1  10
ATOM      6  C   UNL     1       6.611   0.662  -0.055  0.00  0.00    +0.044 C 
ATOM      7  C   UNL     1       5.160   1.067  -0.040  0.00  0.00    -0.050 A 
ATOM      8  C   UNL     1       4.805   2.370  -0.340  0.00  0.00    +0.004 A 
ATOM      9  C   UNL     1       3.478   2.747  -0.328  0.00  0.00    +0.012 A 
ATOM     10  C   UNL     1       2.492   1.811  -0.012  0.00  0.00    +0.021 A 
ATOM     11  C   UNL     1       2.858   0.499   0.296  0.00  0.00    +0.012 A 
ATOM     12  C   UNL     1       4.188   0.134   0.275  0.00  0.00    +0.004 A 
ENDBRANCH   1  10
BRANCH   5  13
ATOM     13  N   UNL     1       0.002  -0.004   0.002  0.00  0.00    -0.295 N 
ATOM     14  H   UNL     1       0.016  -0.371   0.942  0.00  0.00    +0.163 HD
ATOM     15  H   UNL     1      -0.779  -0.373  -0.519  0.00  0.00    +0.163 HD
ENDBRANCH   5  13
BRANCH   4  16
ATOM     16  S   UNL     1      -2.799   1.650   0.022  0.00  0.00    -0.077 S 
BRANCH  16  17
ATOM     17  C   UNL     1      -3.627   3.260   0.034  0.00  0.00    +0.081 C 
ATOM     18  C   UNL     1      -3.323   4.000  -1.270  0.00  0.00    +0.024 C 
BRANCH  17  19
ATOM     19  C   UNL     1      -5.115   3.058   0.163  0.00  0.00    -0.034 A 
ATOM     20  C   UNL     1      -5.801   2.342  -0.800  0.00  0.00    +0.005 A 
ATOM     21  C   UNL     1      -7.165   2.154  -0.680  0.00  0.00    +0.000 A 
ATOM     22  C   UNL     1      -7.844   2.689   0.398  0.00  0.00    +0.000 A 
ATOM     23  C   UNL     1      -7.159   3.409   1.358  0.00  0.00    +0.000 A 
ATOM     24  C   UNL     1      -5.794   3.594   1.240  0.00  0.00    +0.005 A 
ENDBRANCH  17  19
ENDBRANCH  16  17
ENDBRANCH   4  16
TORSDOF 5
