REMARK  Name = ZINC40920124
REMARK  8 active torsions:
REMARK  status: ('A' for Active; 'I' for Inactive)
REMARK    1  A    between atoms: C_1  and  C_2
REMARK    2  A    between atoms: C_2  and  C_35
REMARK    3  A    between atoms: C_6  and  C_14
REMARK    4  A    between atoms: C_17  and  O_22
REMARK    5  A    between atoms: C_18  and  O_20
REMARK    6  A    between atoms: O_20  and  C_21
REMARK    7  A    between atoms: O_22  and  C_23
REMARK    8  A    between atoms: C_23  and  C_24
REMARK                            x       y       z     vdW  Elec       q    Type
REMARK                         _______ _______ _______ _____ _____    ______ ____
ROOT
ATOM      1  C   UNL     1       5.148  -0.485   0.390  0.00  0.00    -0.015 A 
ATOM      2  C   UNL     1       5.207  -1.608  -0.415  0.00  0.00    +0.010 A 
ATOM      3  C   UNL     1       6.030  -2.665  -0.073  0.00  0.00    +0.050 A 
ATOM      4  C   UNL     1       6.798  -2.600   1.079  0.00  0.00    +0.162 A 
ATOM      5  C   UNL     1       6.738  -1.470   1.889  0.00  0.00    +0.162 A 
ATOM      6  C   UNL     1       5.915  -0.413   1.537  0.00  0.00    +0.055 A 
ENDROOT
BRANCH   1  12
ATOM      7  C   UNL     1      -0.019   1.526   0.010  0.00  0.00    +0.011 C 
ATOM      8  C   UNL     1       0.002  -0.004   0.002  0.00  0.00    -0.023 C 
ATOM      9  C   UNL     1       0.742  -0.503  -1.241  0.00  0.00    +0.058 C 
ATOM     10  C   UNL     1       2.168  -0.005  -1.216  0.00  0.00    +0.020 C 
ATOM     11  C   UNL     1       2.816   0.183  -0.046  0.00  0.00    +0.041 C 
ATOM     12  C   UNL     1       4.250   0.664   0.012  0.00  0.00    +0.177 C 
ATOM     13  N   UNL     1       4.652   1.183  -1.287  0.00  0.00    -0.201 N 
ATOM     14  C   UNL     1       3.946   0.976  -2.429  0.00  0.00    +0.240 A 
ATOM     15  N   UNL     1       4.589   1.569  -3.393  0.00  0.00    -0.092 NA
ATOM     16  N   UNL     1       5.651   2.139  -2.938  0.00  0.00    -0.021 NA
ATOM     17  N   UNL     1       5.755   1.947  -1.663  0.00  0.00    -0.042 NA
ATOM     18  N   UNL     1       2.766   0.251  -2.427  0.00  0.00    -0.286 N 
ATOM     19  C   UNL     1       2.173  -0.060   1.181  0.00  0.00    +0.164 C 
ATOM     20  O   UNL     1       2.788   0.103   2.216  0.00  0.00    -0.292 OA
ATOM     21  C   UNL     1       0.742  -0.517   1.242  0.00  0.00    +0.086 C 
ATOM     22  C   UNL     1      -1.431  -0.539  -0.001  0.00  0.00    +0.011 C 
ATOM     23  H   UNL     1       2.374  -0.067  -3.255  0.00  0.00    +0.155 HD
ENDBRANCH   1  12
BRANCH   5  24
ATOM     24  O   UNL     1       7.490  -1.403   3.020  0.00  0.00    -0.491 OA
ATOM     25  C   UNL     1       7.378  -0.212   3.803  0.00  0.00    +0.277 C 
ENDBRANCH   5  24
BRANCH   4  26
ATOM     26  O   UNL     1       7.607  -3.640   1.417  0.00  0.00    -0.484 OA
BRANCH  26  27
ATOM     27  C   UNL     1       7.617  -4.767   0.539  0.00  0.00    +0.269 C 
BRANCH  27  28
ATOM     28  C   UNL     1       8.565  -5.811   1.072  0.00  0.00    +0.043 A 
ATOM     29  C   UNL     1       9.897  -5.792   0.697  0.00  0.00    +0.131 A 
ATOM     30  C   UNL     1      10.767  -6.752   1.187  0.00  0.00    +0.039 A 
ATOM     31  C   UNL     1      10.305  -7.727   2.051  0.00  0.00    +0.004 A 
ATOM     32  C   UNL     1       8.974  -7.745   2.425  0.00  0.00    +0.020 A 
ATOM     33  C   UNL     1       8.105  -6.784   1.941  0.00  0.00    +0.050 A 
ATOM     34 CL   UNL     1       6.436  -6.803   2.418  0.00  0.00    -0.083 Cl
ATOM     35  F   UNL     1      10.349  -4.839  -0.148  0.00  0.00    -0.205 F 
ENDBRANCH  27  28
ENDBRANCH  26  27
ENDBRANCH   4  26
TORSDOF 5
