REMARK  Name = ZINC10109389
REMARK  9 active torsions:
REMARK  status: ('A' for Active; 'I' for Inactive)
REMARK    1  A    between atoms: C_1  and  C_2
REMARK    2  A    between atoms: C_2  and  C_3
REMARK    3  A    between atoms: C_3  and  C_34
REMARK    4  A    between atoms: N_6  and  C_10
REMARK    5  A    between atoms: C_10  and  C_11
REMARK    6  A    between atoms: N_13  and  C_14
REMARK    7  A    between atoms: C_14  and  C_15
REMARK    8  A    between atoms: C_15  and  C_17
REMARK    9  A    between atoms: C_15  and  C_24
REMARK                            x       y       z     vdW  Elec       q    Type
REMARK                         _______ _______ _______ _____ _____    ______ ____
ROOT
ATOM      1  C   UNL     1       1.150   3.592   0.010  0.00  0.00    +0.069 C 
ENDROOT
BRANCH   1   2
ATOM      2  C   UNL     1       0.421   4.091  -1.211  0.00  0.00    -0.013 A 
ATOM      3  C   UNL     1      -0.854   3.833  -1.541  0.00  0.00    +0.088 A 
ATOM      4  N   UNL     1      -1.167   4.457  -2.718  0.00  0.00    -0.360 N 
ATOM      5  H   UNL     1      -2.031   4.417  -3.157  0.00  0.00    +0.165 HD
ATOM      6  C   UNL     1      -0.072   5.148  -3.187  0.00  0.00    +0.047 A 
ATOM      7  C   UNL     1       0.969   4.955  -2.261  0.00  0.00    +0.003 A 
ATOM      8  C   UNL     1       2.216   5.541  -2.482  0.00  0.00    +0.010 A 
ATOM      9  C   UNL     1       2.416   6.310  -3.594  0.00  0.00    +0.001 A 
ATOM     10  C   UNL     1       1.391   6.509  -4.508  0.00  0.00    +0.002 A 
ATOM     11  C   UNL     1       0.153   5.935  -4.311  0.00  0.00    +0.026 A 
ENDBRANCH   1   2
BRANCH   1  12
ATOM     12  C   UNL     1       1.171   2.086   0.002  0.00  0.00    -0.020 A 
ATOM     13  C   UNL     1      -0.017   1.378   0.010  0.00  0.00    +0.006 A 
ATOM     14  C   UNL     1       0.002  -0.004   0.002  0.00  0.00    +0.000 A 
ATOM     15  C   UNL     1       1.208  -0.680  -0.014  0.00  0.00    +0.001 A 
ATOM     16  C   UNL     1       2.396   0.027  -0.021  0.00  0.00    +0.020 A 
ATOM     17  C   UNL     1       2.378   1.410  -0.013  0.00  0.00    +0.045 A 
ATOM     18 CL   UNL     1       3.870   2.298  -0.021  0.00  0.00    -0.083 Cl
ENDBRANCH   1  12
BRANCH   1  19
ATOM     19  C   UNL     1       0.434   4.086   1.268  0.00  0.00    +0.117 C 
BRANCH  19  22
ATOM     20  C   UNL     1       0.765   4.034   3.682  0.00  0.00    +0.231 C 
ATOM     21  O   UNL     1      -0.273   4.650   3.808  0.00  0.00    -0.274 OA
ATOM     22  N   UNL     1       1.207   3.703   2.452  0.00  0.00    -0.313 N 
ATOM     23  H   UNL     1       2.037   3.211   2.352  0.00  0.00    +0.149 HD
BRANCH  20  24
ATOM     24  C   UNL     1       1.560   3.640   4.900  0.00  0.00    +0.213 C 
BRANCH  24  28
ATOM     25  C   UNL     1       0.167   5.367   7.878  0.00  0.00    +0.110 C 
ATOM     26  C   UNL     1       1.086   5.316   6.674  0.00  0.00    +0.247 C 
ATOM     27  O   UNL     1       1.851   6.178   6.300  0.00  0.00    -0.273 OA
ATOM     28  N   UNL     1       0.874   4.113   6.105  0.00  0.00    -0.215 N 
ATOM     29  C   UNL     1      -0.036   3.402   6.779  0.00  0.00    +0.310 C 
ATOM     30  O   UNL     1      -0.392   2.284   6.461  0.00  0.00    -0.252 OA
ATOM     31  N   UNL     1      -0.515   4.062   7.849  0.00  0.00    -0.285 N 
ATOM     32  C   UNL     1       0.981   5.521   9.165  0.00  0.00    +0.041 C 
ATOM     33  H   UNL     1      -1.179   3.741   8.479  0.00  0.00    +0.151 HD
BRANCH  25  35
ATOM     34  C   UNL     1      -1.820   6.464   8.923  0.00  0.00    +0.006 C 
ATOM     35  C   UNL     1      -0.845   6.507   7.744  0.00  0.00    +0.031 C 
ENDBRANCH  25  35
ENDBRANCH  24  28
ENDBRANCH  20  24
ENDBRANCH  19  22
ENDBRANCH   1  19
TORSDOF 7
