REMARK  Name = ZINC36598879
REMARK  17 active torsions:
REMARK  status: ('A' for Active; 'I' for Inactive)
REMARK    1  A    between atoms: C_1  and  C_2
REMARK    2  A    between atoms: C_5  and  C_7
REMARK    3  A    between atoms: C_7  and  N_8
REMARK    4  A    between atoms: N_8  and  C_9
REMARK    5  A    between atoms: C_9  and  C_11
REMARK    6  A    between atoms: C_9  and  C_18
REMARK    7  A    between atoms: C_16  and  O_17
REMARK    8  A    between atoms: N_20  and  C_21
REMARK    9  A    between atoms: C_21  and  C_22
REMARK   10  A    between atoms: C_21  and  C_23
REMARK   11  A    between atoms: C_21  and  C_24
REMARK   12  A    between atoms: C_24  and  C_25
REMARK   13  A    between atoms: C_25  and  C_26
REMARK   14  A    between atoms: C_25  and  C_27
REMARK   15  A    between atoms: C_25  and  C_28
REMARK   16  A    between atoms: C_29  and  C_31
REMARK   17  A    between atoms: C_31  and  C_32
REMARK                            x       y       z     vdW  Elec       q    Type
REMARK                         _______ _______ _______ _____ _____    ______ ____
ROOT
ATOM      1  C   UNL     1       2.973  -1.488  -4.214  0.00  0.00    +0.196 C 
ENDROOT
BRANCH   1   2
ATOM      2  C   UNL     1       4.185  -1.937  -3.439  0.00  0.00    +0.023 A 
ATOM      3  C   UNL     1       4.603  -1.220  -2.333  0.00  0.00    +0.009 A 
ATOM      4  C   UNL     1       5.715  -1.631  -1.622  0.00  0.00    +0.001 A 
ATOM      5  C   UNL     1       6.412  -2.759  -2.014  0.00  0.00    +0.004 A 
ATOM      6  C   UNL     1       5.998  -3.479  -3.118  0.00  0.00    +0.046 A 
ATOM      7  C   UNL     1       4.879  -3.072  -3.830  0.00  0.00    +0.122 A 
BRANCH   7   8
ATOM      8  O   UNL     1       4.466  -3.782  -4.913  0.00  0.00    -0.506 OA
ATOM      9  H   UNL     1       4.918  -3.545  -5.735  0.00  0.00    +0.292 HD
ENDBRANCH   7   8
ENDBRANCH   1   2
BRANCH   1  10
ATOM     10  C   UNL     1       2.706  -0.033  -3.931  0.00  0.00    +0.239 C 
ATOM     11  O   UNL     1       1.746   0.289  -3.262  0.00  0.00    -0.273 OA
ATOM     12  N   UNL     1       3.533   0.912  -4.421  0.00  0.00    -0.308 N 
ATOM     13  H   UNL     1       4.244   0.664  -5.032  0.00  0.00    +0.149 HD
BRANCH  12  14
ATOM     14  C   UNL     1       3.358   2.313  -4.030  0.00  0.00    +0.030 C 
ATOM     15  C   UNL     1       2.071   2.859  -4.652  0.00  0.00    +0.031 C 
ATOM     16  C   UNL     1       3.268   2.411  -2.506  0.00  0.00    +0.031 C 
BRANCH  14  17
ATOM     17  C   UNL     1       4.551   3.134  -4.525  0.00  0.00    +0.031 C 
BRANCH  17  18
ATOM     18  C   UNL     1       5.811   2.707  -3.770  0.00  0.00    -0.036 C 
ATOM     19  C   UNL     1       5.777   1.195  -3.535  0.00  0.00    +0.010 C 
ATOM     20  C   UNL     1       7.047   3.066  -4.597  0.00  0.00    +0.010 C 
ATOM     21  C   UNL     1       5.870   3.431  -2.424  0.00  0.00    +0.010 C 
ENDBRANCH  17  18
ENDBRANCH  14  17
ENDBRANCH  12  14
ENDBRANCH   1  10
BRANCH   1  22
ATOM     22  N   UNL     1       1.812  -2.285  -3.809  0.00  0.00    -0.278 N 
ATOM     23  C   UNL     1       1.493  -2.397  -2.505  0.00  0.00    +0.221 C 
ATOM     24  O   UNL     1       2.166  -1.837  -1.666  0.00  0.00    -0.275 OA
BRANCH  22  25
ATOM     25  C   UNL     1       0.999  -2.962  -4.823  0.00  0.00    +0.183 C 
BRANCH  25  30
ATOM     26  C   UNL     1       3.761  -6.602  -6.958  0.00  0.00    +0.086 C 
ATOM     27  C   UNL     1       2.789  -5.900  -6.046  0.00  0.00    +0.102 A 
ATOM     28  C   UNL     1       2.069  -6.480  -5.068  0.00  0.00    +0.045 A 
ATOM     29  C   UNL     1       1.295  -5.459  -4.469  0.00  0.00    +0.046 A 
ATOM     30  C   UNL     1       1.588  -4.317  -5.117  0.00  0.00    +0.122 A 
ATOM     31  O   UNL     1       2.497  -4.590  -6.067  0.00  0.00    -0.463 OA
ENDBRANCH  25  30
ENDBRANCH  22  25
BRANCH  23  32
ATOM     32  C   UNL     1       0.299  -3.217  -2.089  0.00  0.00    +0.131 C 
BRANCH  32  33
ATOM     33  C   UNL     1       0.162  -3.179  -0.589  0.00  0.00    -0.035 A 
ATOM     34  C   UNL     1       0.801  -4.129   0.186  0.00  0.00    +0.008 A 
ATOM     35  C   UNL     1       0.678  -4.098   1.563  0.00  0.00    +0.050 A 
ATOM     36  C   UNL     1      -0.086  -3.115   2.170  0.00  0.00    +0.166 A 
ATOM     37  C   UNL     1      -0.730  -2.158   1.389  0.00  0.00    +0.166 A 
ATOM     38  C   UNL     1      -0.598  -2.192   0.010  0.00  0.00    +0.053 A 
ATOM     39  O   UNL     1      -1.412  -1.310   2.213  0.00  0.00    -0.453 OA
ATOM     40  C   UNL     1      -1.512  -1.997   3.474  0.00  0.00    +0.466 C 
ATOM     41  O   UNL     1      -0.364  -2.866   3.482  0.00  0.00    -0.453 OA
ENDBRANCH  32  33
ENDBRANCH  23  32
ENDBRANCH   1  22
TORSDOF 11
