REMARK  Name = ZINC63686615
REMARK  8 active torsions:
REMARK  status: ('A' for Active; 'I' for Inactive)
REMARK    1  A    between atoms: C_1  and  C_2
REMARK    2  A    between atoms: C_6  and  O_8
REMARK    3  A    between atoms: O_8  and  C_9
REMARK    4  A    between atoms: C_9  and  C_10
REMARK    5  A    between atoms: C_14  and  S_18
REMARK    6  A    between atoms: N_16  and  C_17
REMARK    7  A    between atoms: S_18  and  C_19
REMARK    8  A    between atoms: C_19  and  C_20
REMARK                            x       y       z     vdW  Elec       q    Type
REMARK                         _______ _______ _______ _____ _____    ______ ____
ROOT
ATOM      1  C   UNL     1       0.083  -4.796   3.683  0.00  0.00    +0.178 C 
ATOM      2  N   UNL     1       1.258  -4.296   4.433  0.00  0.00    -0.234 NA
ATOM      3  N   UNL     1       0.744  -3.152   5.202  0.00  0.00    -0.229 NA
ATOM      4  C   UNL     1      -0.614  -3.602   5.606  0.00  0.00    +0.200 C 
ATOM      5  N   UNL     1      -1.113  -4.356   4.431  0.00  0.00    -0.261 NA
ATOM      6  C   UNL     1      -1.926  -5.506   4.849  0.00  0.00    +0.109 C 
ATOM      7  H   UNL     1       1.992  -4.009   3.804  0.00  0.00    +0.142 HD
ATOM      8  H   UNL     1       1.320  -2.971   6.010  0.00  0.00    +0.143 HD
ENDROOT
BRANCH   1   9
ATOM      9  C   UNL     1       0.069  -4.202   2.274  0.00  0.00    +0.265 C 
BRANCH   9  10
ATOM     10  O   UNL     1       0.050  -2.776   2.358  0.00  0.00    -0.489 OA
BRANCH  10  16
ATOM     11  C   UNL     1      -0.018   1.503   0.010  0.00  0.00    +0.044 C 
ATOM     12  C   UNL     1       0.002  -0.004   0.002  0.00  0.00    -0.047 A 
ATOM     13  C   UNL     1       0.006  -0.688  -1.200  0.00  0.00    +0.003 A 
ATOM     14  C   UNL     1       0.024  -2.071  -1.211  0.00  0.00    +0.004 A 
ATOM     15  C   UNL     1       0.039  -2.772  -0.020  0.00  0.00    +0.045 A 
ATOM     16  C   UNL     1       0.035  -2.088   1.186  0.00  0.00    +0.121 A 
ATOM     17  C   UNL     1       0.023  -0.700   1.195  0.00  0.00    +0.049 A 
ENDBRANCH  10  16
ENDBRANCH   9  10
ENDBRANCH   1   9
BRANCH   4  18
ATOM     18  S   UNL     1      -1.680  -2.174   5.948  0.00  0.00    -0.119 S 
BRANCH  18  19
ATOM     19  C   UNL     1      -1.678  -1.242   4.391  0.00  0.00    +0.125 C 
BRANCH  19  20
ATOM     20  C   UNL     1      -2.538  -0.014   4.540  0.00  0.00    +0.030 A 
ATOM     21  N   UNL     1      -3.885  -0.159   4.543  0.00  0.00    -0.356 N 
ATOM     22  C   UNL     1      -4.728   0.923   4.675  0.00  0.00    +0.069 A 
ATOM     23  C   UNL     1      -4.183   2.212   4.811  0.00  0.00    +0.046 A 
ATOM     24  C   UNL     1      -5.025   3.316   4.944  0.00  0.00    +0.014 A 
ATOM     25  C   UNL     1      -6.381   3.138   4.942  0.00  0.00    +0.002 A 
ATOM     26  C   UNL     1      -6.926   1.869   4.808  0.00  0.00    +0.022 A 
ATOM     27  C   UNL     1      -6.111   0.764   4.675  0.00  0.00    +0.065 A 
ATOM     28 CL   UNL     1      -6.807  -0.818   4.508  0.00  0.00    -0.081 Cl
ATOM     29  C   UNL     1      -2.717   2.359   4.808  0.00  0.00    +0.190 A 
ATOM     30  O   UNL     1      -2.193   3.455   4.923  0.00  0.00    -0.287 OA
ATOM     31  C   UNL     1      -1.938   1.187   4.671  0.00  0.00    +0.073 A 
ATOM     32  H   UNL     1      -4.266  -1.046   4.449  0.00  0.00    +0.166 HD
ENDBRANCH  19  20
ENDBRANCH  18  19
ENDBRANCH   4  18
TORSDOF 6
