REMARK  Name = ZINC36876078
REMARK  6 active torsions:
REMARK  status: ('A' for Active; 'I' for Inactive)
REMARK    1  A    between atoms: C_1  and  C_2
REMARK    2  A    between atoms: C_2  and  C_3
REMARK    3  A    between atoms: C_3  and  C_24
REMARK    4  A    between atoms: N_6  and  C_10
REMARK    5  A    between atoms: C_10  and  C_11
REMARK    6  A    between atoms: N_13  and  C_14
REMARK                            x       y       z     vdW  Elec       q    Type
REMARK                         _______ _______ _______ _____ _____    ______ ____
ROOT
ATOM      1  C   UNL     1       0.742  -0.511   1.242  0.00  0.00    +0.138 C 
ATOM      2  C   UNL     1       0.055  -0.034   2.505  0.00  0.00    +0.251 C 
ATOM      3  O   UNL     1      -1.076  -0.284   2.863  0.00  0.00    -0.272 OA
ATOM      4  N   UNL     1       0.962   0.727   3.149  0.00  0.00    -0.215 N 
ATOM      5  C   UNL     1       2.116   0.796   2.474  0.00  0.00    +0.310 C 
ATOM      6  O   UNL     1       3.085   1.423   2.854  0.00  0.00    -0.252 OA
ATOM      7  N   UNL     1       2.083   0.093   1.328  0.00  0.00    -0.281 N 
ATOM      8  H   UNL     1       2.802   0.001   0.683  0.00  0.00    +0.152 HD
ENDROOT
BRANCH   1   9
ATOM      9  C   UNL     1       0.838  -2.015   1.222  0.00  0.00    -0.015 A 
ATOM     10  C   UNL     1      -0.146  -2.762   0.601  0.00  0.00    +0.007 A 
ATOM     11  C   UNL     1      -0.059  -4.141   0.583  0.00  0.00    +0.020 A 
ATOM     12  C   UNL     1       1.014  -4.774   1.186  0.00  0.00    +0.041 A 
ATOM     13  C   UNL     1       1.998  -4.026   1.807  0.00  0.00    +0.020 A 
ATOM     14  C   UNL     1       1.912  -2.647   1.820  0.00  0.00    +0.007 A 
ATOM     15 CL   UNL     1       1.124  -6.506   1.164  0.00  0.00    -0.084 Cl
ENDBRANCH   1   9
BRANCH   1  17
ATOM     16  C   UNL     1      -0.019   1.526   0.010  0.00  0.00    +0.007 C 
ATOM     17  C   UNL     1       0.002  -0.004   0.002  0.00  0.00    +0.037 C 
ENDBRANCH   1  17
BRANCH   4  18
ATOM     18  C   UNL     1       0.716   1.397   4.428  0.00  0.00    +0.213 C 
BRANCH  18  19
ATOM     19  C   UNL     1       1.104   0.478   5.559  0.00  0.00    +0.231 C 
ATOM     20  O   UNL     1       1.543  -0.627   5.319  0.00  0.00    -0.274 OA
ATOM     21  N   UNL     1       0.963   0.885   6.836  0.00  0.00    -0.308 N 
ATOM     22  H   UNL     1       0.613   1.769   7.027  0.00  0.00    +0.149 HD
BRANCH  21  23
ATOM     23  C   UNL     1       1.340  -0.008   7.934  0.00  0.00    +0.035 C 
ATOM     24  C   UNL     1       0.506  -1.288   7.860  0.00  0.00    +0.029 C 
ATOM     25  C   UNL     1       0.899  -2.221   9.008  0.00  0.00    -0.008 C 
ATOM     26  C   UNL     1       0.642  -1.522  10.344  0.00  0.00    +0.007 C 
ATOM     27  C   UNL     1       1.477  -0.241  10.418  0.00  0.00    -0.008 C 
ATOM     28  C   UNL     1       1.083   0.691   9.271  0.00  0.00    +0.029 C 
ATOM     29  C   UNL     1       2.961  -0.593  10.304  0.00  0.00    +0.007 C 
ATOM     30  C   UNL     1       3.218  -1.292   8.967  0.00  0.00    -0.008 C 
ATOM     31  C   UNL     1       2.384  -2.572   8.893  0.00  0.00    +0.007 C 
ATOM     32  C   UNL     1       2.825  -0.359   7.820  0.00  0.00    +0.029 C 
ENDBRANCH  21  23
ENDBRANCH  18  19
ENDBRANCH   4  18
TORSDOF 5
