REMARK  Name = ZINC39676447
REMARK  5 active torsions:
REMARK  status: ('A' for Active; 'I' for Inactive)
REMARK    1  A    between atoms: C_3  and  C_9
REMARK    2  A    between atoms: C_13  and  C_22
REMARK    3  A    between atoms: N_24  and  C_25
REMARK    4  A    between atoms: C_25  and  C_26
REMARK    5  A    between atoms: C_26  and  C_27
REMARK                            x       y       z     vdW  Elec       q    Type
REMARK                         _______ _______ _______ _____ _____    ______ ____
ROOT
ATOM      1  C   UNL     1       3.947   2.224   0.074  0.00  0.00    +0.249 C 
ATOM      2  O   UNL     1       5.051   1.725   0.175  0.00  0.00    -0.270 OA
ATOM      3  N   UNL     1       3.820   3.559  -0.056  0.00  0.00    -0.296 N 
ATOM      4  C   UNL     1       2.570   4.355  -0.084  0.00  0.00    +0.121 C 
ATOM      5  C   UNL     1       2.899   5.628   0.727  0.00  0.00    +0.100 C 
ATOM      6  C   UNL     1       4.429   5.762   0.644  0.00  0.00    -0.004 C 
ATOM      7  C   UNL     1       4.900   4.565  -0.196  0.00  0.00    +0.115 C 
ATOM      8  C   UNL     1       5.042   5.693   2.039  0.00  0.00    -0.010 C 
ATOM      9  C   UNL     1       6.557   5.885   1.936  0.00  0.00    -0.082 C 
ATOM     10  N   UNL     1       6.847   7.184   1.316  0.00  0.00    +0.379 N 
ATOM     11  C   UNL     1       6.334   7.207  -0.060  0.00  0.00    -0.082 C 
ATOM     12  C   UNL     1       4.809   7.071  -0.041  0.00  0.00    -0.010 C 
ATOM     13  H   UNL     1       6.405   7.916   1.851  0.00  0.00    -0.086 HD
ATOM     14  H   UNL     1       7.844   7.335   1.304  0.00  0.00    -0.086 HD
ENDROOT
BRANCH   1  17
ATOM     15  C   UNL     1       0.507   0.904  -0.649  0.00  0.00    +0.002 A 
ATOM     16  C   UNL     1       1.626   1.709  -0.671  0.00  0.00    +0.016 A 
ATOM     17  C   UNL     1       2.744   1.366   0.093  0.00  0.00    +0.073 A 
ATOM     18  C   UNL     1       2.720   0.207   0.875  0.00  0.00    +0.154 A 
ATOM     19  C   UNL     1       1.589  -0.590   0.886  0.00  0.00    +0.077 A 
ATOM     20  C   UNL     1       0.487  -0.242   0.126  0.00  0.00    +0.023 A 
ATOM     21 CL   UNL     1       1.554  -2.030   1.855  0.00  0.00    -0.081 Cl
ATOM     22  F   UNL     1       3.797  -0.132   1.617  0.00  0.00    -0.203 F 
ENDBRANCH   1  17
BRANCH   5  23
ATOM     23  C   UNL     1       2.461   5.466   2.160  0.00  0.00    +0.218 C 
ATOM     24  O   UNL     1       2.450   4.366   2.670  0.00  0.00    -0.275 OA
ATOM     25  N   UNL     1       2.081   6.544   2.874  0.00  0.00    -0.315 N 
ATOM     26  H   UNL     1       2.090   7.424   2.466  0.00  0.00    +0.149 HD
BRANCH  25  27
ATOM     27  C   UNL     1       1.655   6.387   4.267  0.00  0.00    +0.109 C 
BRANCH  27  28
ATOM     28  C   UNL     1       1.280   7.754   4.843  0.00  0.00    +0.056 C 
BRANCH  28  29
ATOM     29  C   UNL     1       0.842   7.592   6.276  0.00  0.00    -0.021 A 
ATOM     30  C   UNL     1       1.712   7.551   7.454  0.00  0.00    +0.004 A 
ATOM     31  C   UNL     1       3.092   7.639   7.643  0.00  0.00    +0.030 A 
ATOM     32  C   UNL     1       3.611   7.564   8.916  0.00  0.00    +0.042 A 
ATOM     33  C   UNL     1       2.769   7.402  10.009  0.00  0.00    +0.022 A 
ATOM     34  C   UNL     1       1.405   7.314   9.838  0.00  0.00    +0.027 A 
ATOM     35  C   UNL     1       0.860   7.388   8.561  0.00  0.00    +0.047 A 
ATOM     36  N   UNL     1      -0.429   7.334   8.077  0.00  0.00    -0.360 N 
ATOM     37  C   UNL     1      -0.420   7.463   6.715  0.00  0.00    +0.087 A 
ATOM     38 CL   UNL     1       5.327   7.672   9.157  0.00  0.00    -0.084 Cl
ATOM     39  H   UNL     1      -1.224   7.225   8.621  0.00  0.00    +0.165 HD
ENDBRANCH  28  29
ENDBRANCH  27  28
ENDBRANCH  25  27
ENDBRANCH   5  23
TORSDOF 5
