REMARK  Name = ZINC08494070
REMARK  5 active torsions:
REMARK  status: ('A' for Active; 'I' for Inactive)
REMARK    1  A    between atoms: C_1  and  O_2
REMARK    2  A    between atoms: O_2  and  C_3
REMARK    3  A    between atoms: C_6  and  C_12
REMARK    4  A    between atoms: C_8  and  N_9
REMARK    5  A    between atoms: C_24  and  O_26
REMARK                            x       y       z     vdW  Elec       q    Type
REMARK                         _______ _______ _______ _____ _____    ______ ____
ROOT
ATOM      1  C   UNL     1       2.586  -2.550   4.311  0.00  0.00    +0.224 C 
ATOM      2  N   UNL     1       3.650  -1.668   4.823  0.00  0.00    -0.313 N 
ATOM      3  C   UNL     1       4.854  -1.715   4.156  0.00  0.00    +0.080 A 
ATOM      4  C   UNL     1       5.253  -2.841   3.427  0.00  0.00    +0.068 A 
ATOM      5  C   UNL     1       6.541  -2.738   2.767  0.00  0.00    -0.023 A 
ATOM      6  C   UNL     1       7.180  -1.562   2.961  0.00  0.00    -0.005 A 
ATOM      7  S   UNL     1       6.089  -0.621   3.993  0.00  0.00    -0.078 S 
ATOM      8  C   UNL     1       8.515  -1.161   2.416  0.00  0.00    +0.043 C 
ATOM      9  C   UNL     1       9.228  -2.422   1.908  0.00  0.00    +0.005 C 
ATOM     10  C   UNL     1       8.255  -3.226   1.041  0.00  0.00    +0.005 C 
ATOM     11  C   UNL     1       7.161  -3.839   1.917  0.00  0.00    +0.037 C 
ATOM     12  C   UNL     1       4.333  -4.007   3.411  0.00  0.00    +0.220 C 
ATOM     13  N   UNL     1       3.121  -3.828   3.857  0.00  0.00    -0.223 NA
ATOM     14  H   UNL     1       3.510  -1.087   5.587  0.00  0.00    +0.149 HD
ENDROOT
BRANCH   1  18
ATOM     15  C   UNL     1       0.626  -0.618   1.042  0.00  0.00    +0.150 A 
ATOM     16  C   UNL     1       1.202   0.139   2.051  0.00  0.00    +0.048 A 
ATOM     17  C   UNL     1       1.835  -0.488   3.107  0.00  0.00    +0.011 A 
ATOM     18  C   UNL     1       1.895  -1.869   3.158  0.00  0.00    -0.003 A 
ATOM     19  C   UNL     1       1.321  -2.625   2.153  0.00  0.00    +0.043 A 
ATOM     20  C   UNL     1       0.682  -2.003   1.097  0.00  0.00    +0.168 A 
BRANCH  20  21
ATOM     21  N   UNL     1       0.063  -2.814   0.025  0.00  0.00    +0.060 N 
ATOM     22  O   UNL     1       0.113  -4.021   0.074  0.00  0.00    -0.126 OA
ATOM     23  O   UNL     1      -0.492  -2.269  -0.901  0.00  0.00    -0.126 OA
ENDBRANCH  20  21
BRANCH  15  25
ATOM     24  C   UNL     1      -0.017   1.425   0.010  0.00  0.00    +0.277 C 
ATOM     25  O   UNL     1       0.002  -0.004   0.002  0.00  0.00    -0.493 OA
ENDBRANCH  15  25
ENDBRANCH   1  18
BRANCH  12  26
ATOM     26  O   UNL     1       4.739  -5.213   2.949  0.00  0.00    -0.492 OA
ATOM     27  H   UNL     1       4.057  -5.898   2.986  0.00  0.00    +0.294 HD
ENDBRANCH  12  26
TORSDOF 4
