REMARK  Name = ZINC64461292
REMARK  9 active torsions:
REMARK  status: ('A' for Active; 'I' for Inactive)
REMARK    1  A    between atoms: C_1  and  C_2
REMARK    2  A    between atoms: C_2  and  C_3
REMARK    3  A    between atoms: C_3  and  N_4
REMARK    4  A    between atoms: C_9  and  C_19
REMARK    5  A    between atoms: C_19  and  C_20
REMARK    6  A    between atoms: C_20  and  C_21
REMARK    7  A    between atoms: N_23  and  C_24
REMARK    8  A    between atoms: C_24  and  C_25
REMARK    9  A    between atoms: C_25  and  C_26
REMARK                            x       y       z     vdW  Elec       q    Type
REMARK                         _______ _______ _______ _____ _____    ______ ____
ROOT
ATOM      1  N   UNL     1       0.762  -1.976   1.234  0.00  0.00    -0.265 N 
ATOM      2  C   UNL     1      -0.323  -2.715   1.869  0.00  0.00    +0.253 C 
ATOM      3  N   UNL     1      -1.607  -1.997   1.831  0.00  0.00    -0.219 NA
ATOM      4  N   UNL     1      -2.442  -2.721   0.858  0.00  0.00    -0.234 NA
ATOM      5  C   UNL     1      -1.984  -4.136   0.989  0.00  0.00    +0.159 C 
ATOM      6  N   UNL     1      -0.559  -3.981   1.142  0.00  0.00    -0.280 N 
ATOM      7  C   UNL     1       0.505  -4.748   0.673  0.00  0.00    +0.053 A 
ATOM      8  C   UNL     1       0.619  -6.091   0.406  0.00  0.00    +0.031 A 
ATOM      9  C   UNL     1       1.798  -6.582  -0.054  0.00  0.00    +0.048 A 
ATOM     10  S   UNL     1       2.808  -5.238  -0.146  0.00  0.00    -0.090 S 
ATOM     11  C   UNL     1       1.685  -4.009   0.425  0.00  0.00    +0.095 A 
ATOM     12  C   UNL     1       1.790  -2.631   0.628  0.00  0.00    +0.257 C 
ATOM     13  O   UNL     1       2.787  -2.028   0.274  0.00  0.00    -0.269 OA
ATOM     14  H   UNL     1      -2.041  -1.985   2.742  0.00  0.00    +0.144 HD
ATOM     15  H   UNL     1      -3.421  -2.634   1.086  0.00  0.00    +0.143 HD
ENDROOT
BRANCH   1  16
ATOM     16  C   UNL     1       0.742  -0.511   1.242  0.00  0.00    +0.111 C 
BRANCH  16  18
ATOM     17  C   UNL     1      -0.019   1.526   0.010  0.00  0.00    +0.005 C 
ATOM     18  C   UNL     1       0.002  -0.004   0.002  0.00  0.00    +0.016 C 
ENDBRANCH  16  18
ENDBRANCH   1  16
BRANCH   5  19
ATOM     19  C   UNL     1      -2.312  -4.932  -0.276  0.00  0.00    +0.049 C 
BRANCH  19  20
ATOM     20  C   UNL     1      -3.827  -4.952  -0.488  0.00  0.00    +0.099 C 
BRANCH  20  21
ATOM     21  C   UNL     1      -4.149  -5.735  -1.734  0.00  0.00    +0.213 C 
ATOM     22  O   UNL     1      -3.255  -6.229  -2.389  0.00  0.00    -0.276 OA
ATOM     23  N   UNL     1      -5.431  -5.887  -2.122  0.00  0.00    -0.315 N 
ATOM     24  H   UNL     1      -6.146  -5.492  -1.599  0.00  0.00    +0.149 HD
BRANCH  23  25
ATOM     25  C   UNL     1      -5.744  -6.649  -3.334  0.00  0.00    +0.108 C 
BRANCH  25  26
ATOM     26  C   UNL     1      -7.259  -6.669  -3.546  0.00  0.00    +0.052 C 
BRANCH  26  27
ATOM     27  C   UNL     1      -7.582  -7.452  -4.793  0.00  0.00    -0.040 C 
ATOM     28  C   UNL     1      -7.923  -8.759  -4.866  0.00  0.00    -0.001 A 
ATOM     29  C   UNL     1      -8.088  -9.802  -3.847  0.00  0.00    +0.010 A 
ATOM     30  C   UNL     1      -8.444 -11.048  -4.235  0.00  0.00    +0.001 A 
ATOM     31  C   UNL     1      -8.658 -11.367  -5.583  0.00  0.00    +0.002 A 
ATOM     32  C   UNL     1      -8.525 -10.463  -6.576  0.00  0.00    +0.026 A 
ATOM     33  C   UNL     1      -8.155  -9.122  -6.282  0.00  0.00    +0.043 A 
ATOM     34  N   UNL     1      -7.964  -8.079  -7.055  0.00  0.00    -0.380 N 
ATOM     35  C   UNL     1      -7.595  -6.935  -6.214  0.00  0.00    +0.144 C 
ATOM     36  H   UNL     1      -8.056  -8.066  -8.020  0.00  0.00    +0.160 HD
ENDBRANCH  26  27
ENDBRANCH  25  26
ENDBRANCH  23  25
ENDBRANCH  20  21
ENDBRANCH  19  20
ENDBRANCH   5  19
TORSDOF 8
