REMARK  Name = ZINC48868688
REMARK  5 active torsions:
REMARK  status: ('A' for Active; 'I' for Inactive)
REMARK    1  A    between atoms: C_1  and  N_2
REMARK    2  A    between atoms: N_2  and  C_3
REMARK    3  A    between atoms: N_2  and  S_4
REMARK    4  A    between atoms: S_4  and  N_7
REMARK    5  A    between atoms: C_8  and  C_10
REMARK                            x       y       z     vdW  Elec       q    Type
REMARK                         _______ _______ _______ _____ _____    ______ ____
ROOT
ATOM      1  N   UNL     1       1.581  -1.045  -1.877  0.00  0.00    -0.169 N 
ATOM      2  C   UNL     1       2.388  -1.819  -1.124  0.00  0.00    +0.299 C 
ATOM      3  O   UNL     1       1.955  -2.354  -0.121  0.00  0.00    -0.265 OA
ATOM      4  H   UNL     1       1.926  -0.618  -2.676  0.00  0.00    +0.178 HD
ENDROOT
BRANCH   2   5
ATOM      5  C   UNL     1       3.791  -2.015  -1.515  0.00  0.00    +0.192 A 
ATOM      6  C   UNL     1       4.692  -2.774  -0.839  0.00  0.00    +0.063 A 
ATOM      7  C   UNL     1       5.945  -2.677  -1.587  0.00  0.00    +0.022 A 
ATOM      8  C   UNL     1       7.224  -3.214  -1.417  0.00  0.00    +0.031 A 
ATOM      9  C   UNL     1       8.207  -2.921  -2.321  0.00  0.00    +0.042 A 
ATOM     10  C   UNL     1       7.942  -2.093  -3.405  0.00  0.00    +0.023 A 
ATOM     11  C   UNL     1       6.687  -1.554  -3.589  0.00  0.00    +0.048 A 
ATOM     12  C   UNL     1       5.672  -1.838  -2.683  0.00  0.00    +0.136 A 
ATOM     13  O   UNL     1       4.377  -1.472  -2.603  0.00  0.00    -0.450 OA
ATOM     14 CL   UNL     1       9.796  -3.588  -2.113  0.00  0.00    -0.084 Cl
ENDBRANCH   2   5
BRANCH   1  15
ATOM     15  S   UNL     1      -0.000  -0.824  -1.437  0.00  0.00    +0.114 S 
ATOM     16  O   UNL     1      -0.531  -2.115  -1.167  0.00  0.00    -0.138 OA
ATOM     17  O   UNL     1      -0.572   0.049  -2.401  0.00  0.00    -0.138 OA
BRANCH  15  19
ATOM     18  C   UNL     1      -0.018   1.461   0.010  0.00  0.00    +0.132 C 
ATOM     19  N   UNL     1       0.002  -0.004   0.002  0.00  0.00    -0.170 NA
ATOM     20  C   UNL     1       0.024  -0.743   1.267  0.00  0.00    +0.132 C 
ENDBRANCH  15  19
ENDBRANCH   1  15
TORSDOF 3
