REMARK  Name = ZINC01873238
REMARK  8 active torsions:
REMARK  status: ('A' for Active; 'I' for Inactive)
REMARK    1  A    between atoms: C_1  and  C_2
REMARK    2  A    between atoms: C_5  and  C_36
REMARK    3  A    between atoms: C_6  and  N_8
REMARK    4  A    between atoms: C_9  and  C_11
REMARK    5  A    between atoms: C_11  and  C_34
REMARK    6  A    between atoms: N_13  and  C_28
REMARK    7  A    between atoms: C_17  and  C_18
REMARK    8  A    between atoms: C_21  and  N_24
REMARK                            x       y       z     vdW  Elec       q    Type
REMARK                         _______ _______ _______ _____ _____    ______ ____
ROOT
ATOM      1  C   UNL     1       1.166   2.982   1.572  0.00  0.00    +0.144 C 
ATOM      2  C   UNL     1       0.162   2.605   0.675  0.00  0.00    +0.111 A 
ATOM      3  N   UNL     1       0.091   1.475  -0.101  0.00  0.00    -0.269 N 
ATOM      4  C   UNL     1      -0.938   1.270  -0.906  0.00  0.00    +0.270 A 
ATOM      5  O   UNL     1      -1.015   0.273  -1.600  0.00  0.00    -0.266 OA
ATOM      6  C   UNL     1      -1.987   2.308  -0.926  0.00  0.00    +0.079 A 
ATOM      7  C   UNL     1      -3.134   2.361  -1.650  0.00  0.00    +0.028 C 
ATOM      8  S   UNL     1      -1.340   3.478   0.260  0.00  0.00    -0.064 S 
ENDROOT
BRANCH   7   9
ATOM      9  C   UNL     1      -4.130   3.406  -1.375  0.00  0.00    -0.024 A 
ATOM     10  C   UNL     1      -3.990   4.233  -0.255  0.00  0.00    +0.010 A 
ATOM     11  C   UNL     1      -4.925   5.216  -0.007  0.00  0.00    +0.033 A 
ATOM     12  C   UNL     1      -6.006   5.378  -0.856  0.00  0.00    +0.126 A 
ATOM     13  C   UNL     1      -6.154   4.560  -1.964  0.00  0.00    +0.033 A 
ATOM     14  C   UNL     1      -5.225   3.577  -2.229  0.00  0.00    +0.010 A 
BRANCH  12  15
ATOM     15  N   UNL     1      -7.008   6.431  -0.580  0.00  0.00    +0.056 N 
ATOM     16  O   UNL     1      -7.960   6.577  -1.325  0.00  0.00    -0.126 OA
ATOM     17  O   UNL     1      -6.881   7.152   0.394  0.00  0.00    -0.126 OA
ENDBRANCH  12  15
ENDBRANCH   7   9
BRANCH   3  18
ATOM     18  C   UNL     1       1.122   0.528  -0.041  0.00  0.00    +0.051 A 
ATOM     19  C   UNL     1       2.186   0.601  -0.931  0.00  0.00    +0.026 A 
ATOM     20  C   UNL     1       3.203  -0.331  -0.866  0.00  0.00    +0.002 A 
ATOM     21  C   UNL     1       3.158  -1.342   0.077  0.00  0.00    +0.000 A 
ATOM     22  C   UNL     1       2.097  -1.419   0.961  0.00  0.00    +0.002 A 
ATOM     23  C   UNL     1       1.080  -0.487   0.905  0.00  0.00    +0.026 A 
ENDBRANCH   3  18
BRANCH   1  25
ATOM     24  N   UNL     1       2.100   4.667   3.058  0.00  0.00    -0.281 N 
ATOM     25  C   UNL     1       1.132   4.304   2.193  0.00  0.00    +0.261 C 
ATOM     26  O   UNL     1       0.229   5.078   1.930  0.00  0.00    -0.269 OA
ATOM     27  H   UNL     1       2.960   4.004   3.231  0.00  0.00    +0.155 HD
BRANCH  24  33
ATOM     28  C   UNL     1       0.463   9.299   3.234  0.00  0.00    +0.044 C 
ATOM     29  C   UNL     1       1.224   8.150   3.843  0.00  0.00    -0.049 A 
ATOM     30  C   UNL     1       1.836   8.303   5.074  0.00  0.00    +0.004 A 
ATOM     31  C   UNL     1       2.535   7.251   5.637  0.00  0.00    +0.005 A 
ATOM     32  C   UNL     1       2.625   6.044   4.971  0.00  0.00    -0.029 A 
ATOM     33  C   UNL     1       2.011   5.888   3.735  0.00  0.00    +0.037 A 
ATOM     34  C   UNL     1       1.313   6.948   3.170  0.00  0.00    +0.027 A 
ATOM     35  C   UNL     1       3.387   4.899   5.585  0.00  0.00    +0.045 C 
ENDBRANCH  24  33
ENDBRANCH   1  25
BRANCH   1  36
ATOM     36  C   UNL     1       2.227   2.072   1.882  0.00  0.00    +0.107 C 
ATOM     37  N   UNL     1       3.069   1.350   2.127  0.00  0.00    -0.191 NA
ENDBRANCH   1  36
TORSDOF 6
