REMARK  Name = ZINC39696237
REMARK  7 active torsions:
REMARK  status: ('A' for Active; 'I' for Inactive)
REMARK    1  A    between atoms: C_1  and  C_2
REMARK    2  A    between atoms: C_2  and  C_3
REMARK    3  A    between atoms: C_6  and  C_9
REMARK    4  A    between atoms: C_9  and  C_11
REMARK    5  A    between atoms: C_9  and  N_12
REMARK    6  A    between atoms: C_13  and  C_15
REMARK    7  A    between atoms: C_26  and  C_28
REMARK                            x       y       z     vdW  Elec       q    Type
REMARK                         _______ _______ _______ _____ _____    ______ ____
ROOT
ATOM      1  C   UNL     1       2.455  -0.458   8.212  0.00  0.00    +0.100 C 
ATOM      2  C   UNL     1       1.180  -1.184   8.696  0.00  0.00    +0.121 C 
ATOM      3  N   UNL     1       1.660  -2.132   9.730  0.00  0.00    -0.296 N 
ATOM      4  C   UNL     1       2.701  -1.377  10.468  0.00  0.00    +0.115 C 
ATOM      5  C   UNL     1       3.449  -0.583   9.379  0.00  0.00    -0.004 C 
ATOM      6  C   UNL     1       3.829   0.799   9.900  0.00  0.00    -0.010 C 
ATOM      7  C   UNL     1       4.863   0.651  11.020  0.00  0.00    -0.082 C 
ATOM      8  N   UNL     1       6.049  -0.044  10.506  0.00  0.00    +0.379 N 
ATOM      9  C   UNL     1       5.692  -1.406  10.092  0.00  0.00    -0.082 C 
ATOM     10  C   UNL     1       4.694  -1.345   8.933  0.00  0.00    -0.010 C 
ATOM     11  C   UNL     1       1.243  -3.395   9.949  0.00  0.00    +0.248 C 
ATOM     12  O   UNL     1       0.443  -3.912   9.193  0.00  0.00    -0.270 OA
ATOM     13  H   UNL     1       6.415   0.462   9.713  0.00  0.00    -0.086 HD
ATOM     14  H   UNL     1       6.752  -0.086  11.228  0.00  0.00    -0.086 HD
ENDROOT
BRANCH  11  15
ATOM     15  C   UNL     1       1.756  -4.147  11.101  0.00  0.00    +0.052 A 
ATOM     16  C   UNL     1       2.033  -3.525  12.277  0.00  0.00    +0.059 A 
ATOM     17  S   UNL     1       2.584  -4.733  13.302  0.00  0.00    -0.096 S 
ATOM     18  C   UNL     1       2.476  -6.134  12.222  0.00  0.00    +0.020 A 
ATOM     19  C   UNL     1       1.978  -5.593  11.021  0.00  0.00    +0.001 A 
ATOM     20  C   UNL     1       1.775  -6.482   9.949  0.00  0.00    +0.010 A 
ATOM     21  C   UNL     1       2.053  -7.818  10.092  0.00  0.00    +0.001 A 
ATOM     22  C   UNL     1       2.538  -8.327  11.288  0.00  0.00    +0.001 A 
ATOM     23  C   UNL     1       2.757  -7.477  12.354  0.00  0.00    +0.015 A 
ENDBRANCH  11  15
BRANCH   1  25
ATOM     24  N   UNL     1       3.670  -0.404   6.058  0.00  0.00    -0.308 N 
ATOM     25  C   UNL     1       3.005  -1.128   6.979  0.00  0.00    +0.219 C 
ATOM     26  O   UNL     1       2.849  -2.320   6.817  0.00  0.00    -0.275 OA
ATOM     27  H   UNL     1       3.795   0.549   6.188  0.00  0.00    +0.149 HD
BRANCH  24  28
ATOM     28  C   UNL     1       4.205  -1.056   4.860  0.00  0.00    +0.100 C 
ATOM     29  C   UNL     1       3.111  -1.137   3.793  0.00  0.00    +0.033 C 
BRANCH  28  33
ATOM     30  C   UNL     1       7.496   1.212   3.353  0.00  0.00    -0.048 A 
ATOM     31  C   UNL     1       7.551  -0.170   3.354  0.00  0.00    +0.004 A 
ATOM     32  C   UNL     1       6.486  -0.903   3.842  0.00  0.00    +0.006 A 
ATOM     33  C   UNL     1       5.366  -0.256   4.329  0.00  0.00    -0.027 A 
ATOM     34  C   UNL     1       5.312   1.125   4.328  0.00  0.00    +0.006 A 
ATOM     35  C   UNL     1       6.378   1.859   3.844  0.00  0.00    +0.004 A 
BRANCH  30  37
ATOM     36  C   UNL     1       9.640   2.301   3.957  0.00  0.00    +0.009 C 
ATOM     37  C   UNL     1       8.658   2.011   2.821  0.00  0.00    +0.032 C 
ENDBRANCH  30  37
ENDBRANCH  28  33
ENDBRANCH  24  28
ENDBRANCH   1  25
TORSDOF 5
