REMARK  Name = ZINC12661165
REMARK  7 active torsions:
REMARK  status: ('A' for Active; 'I' for Inactive)
REMARK    1  A    between atoms: C_4  and  N_7
REMARK    2  A    between atoms: C_16  and  S_17
REMARK    3  A    between atoms: S_17  and  C_18
REMARK    4  A    between atoms: C_18  and  C_19
REMARK    5  A    between atoms: N_21  and  C_22
REMARK    6  A    between atoms: C_25  and  N_30
REMARK    7  A    between atoms: C_27  and  C_28
REMARK                            x       y       z     vdW  Elec       q    Type
REMARK                         _______ _______ _______ _____ _____    ______ ____
ROOT
ATOM      1  N   UNL     1       1.371  -4.489  -0.398  0.00  0.00    -0.255 N 
ATOM      2  C   UNL     1       1.976  -3.293  -0.587  0.00  0.00    +0.268 A 
ATOM      3  O   UNL     1       3.154  -3.205  -0.887  0.00  0.00    -0.267 OA
ATOM      4  C   UNL     1       1.147  -2.138  -0.414  0.00  0.00    +0.076 A 
ATOM      5  C   UNL     1       1.550  -0.749  -0.559  0.00  0.00    -0.023 A 
ATOM      6  C   UNL     1       0.597   0.186  -0.347  0.00  0.00    -0.004 A 
ATOM      7  S   UNL     1      -0.872  -0.729   0.051  0.00  0.00    -0.073 S 
ATOM      8  C   UNL     1      -0.206  -2.359  -0.066  0.00  0.00    +0.117 A 
ATOM      9  N   UNL     1      -0.740  -3.562   0.105  0.00  0.00    -0.215 NA
ATOM     10  C   UNL     1       0.054  -4.610  -0.063  0.00  0.00    +0.178 A 
ATOM     11  C   UNL     1       0.750   1.673  -0.432  0.00  0.00    +0.043 C 
ATOM     12  C   UNL     1       2.248   2.009  -0.437  0.00  0.00    +0.005 C 
ATOM     13  C   UNL     1       2.950   1.102  -1.450  0.00  0.00    +0.005 C 
ATOM     14  C   UNL     1       2.972  -0.336  -0.932  0.00  0.00    +0.037 C 
ENDROOT
BRANCH   1  18
ATOM     15  C   UNL     1       3.632  -7.960  -0.862  0.00  0.00    +0.000 A 
ATOM     16  C   UNL     1       3.128  -7.626   0.382  0.00  0.00    +0.002 A 
ATOM     17  C   UNL     1       2.379  -6.476   0.538  0.00  0.00    +0.026 A 
ATOM     18  C   UNL     1       2.131  -5.656  -0.554  0.00  0.00    +0.052 A 
ATOM     19  C   UNL     1       2.634  -5.997  -1.803  0.00  0.00    +0.026 A 
ATOM     20  C   UNL     1       3.387  -7.145  -1.952  0.00  0.00    +0.002 A 
ENDBRANCH   1  18
BRANCH  10  21
ATOM     21  S   UNL     1      -0.618  -6.224   0.156  0.00  0.00    -0.078 S 
BRANCH  21  22
ATOM     22  C   UNL     1      -2.327  -5.799   0.573  0.00  0.00    +0.173 C 
BRANCH  22  23
ATOM     23  C   UNL     1      -3.115  -7.061   0.811  0.00  0.00    +0.228 C 
ATOM     24  O   UNL     1      -2.574  -8.142   0.708  0.00  0.00    -0.275 OA
ATOM     25  N   UNL     1      -4.420  -6.989   1.137  0.00  0.00    -0.284 N 
ATOM     26  H   UNL     1      -4.866  -6.129   1.166  0.00  0.00    +0.155 HD
BRANCH  25  27
ATOM     27  C   UNL     1      -5.130  -8.152   1.433  0.00  0.00    +0.051 A 
ATOM     28  C   UNL     1      -4.721  -9.371   0.910  0.00  0.00    +0.027 A 
ATOM     29  C   UNL     1      -5.424 -10.522   1.206  0.00  0.00    +0.034 A 
ATOM     30  C   UNL     1      -6.541 -10.471   2.024  0.00  0.00    +0.128 A 
ATOM     31  C   UNL     1      -6.962  -9.269   2.552  0.00  0.00    +0.053 A 
ATOM     32  C   UNL     1      -6.258  -8.097   2.266  0.00  0.00    +0.075 A 
BRANCH  30  33
ATOM     33  N   UNL     1      -7.285 -11.712   2.333  0.00  0.00    +0.056 N 
ATOM     34  O   UNL     1      -6.915 -12.776   1.868  0.00  0.00    -0.126 OA
ATOM     35  O   UNL     1      -8.268 -11.671   3.052  0.00  0.00    -0.126 OA
ENDBRANCH  30  33
BRANCH  32  36
ATOM     36  C   UNL     1      -6.686  -6.847   2.817  0.00  0.00    +0.101 C 
ATOM     37  N   UNL     1      -7.026  -5.855   3.253  0.00  0.00    -0.191 NA
ENDBRANCH  32  36
ENDBRANCH  25  27
ENDBRANCH  22  23
ENDBRANCH  21  22
ENDBRANCH  10  21
TORSDOF 7
