REMARK  Name = ZINC39684593
REMARK  10 active torsions:
REMARK  status: ('A' for Active; 'I' for Inactive)
REMARK    1  A    between atoms: C_1  and  C_2
REMARK    2  A    between atoms: C_2  and  C_4
REMARK    3  A    between atoms: C_2  and  N_8
REMARK    4  A    between atoms: C_4  and  C_5
REMARK    5  A    between atoms: C_4  and  C_6
REMARK    6  A    between atoms: C_4  and  C_7
REMARK    7  A    between atoms: C_9  and  C_11
REMARK    8  A    between atoms: C_22  and  C_24
REMARK    9  A    between atoms: C_29  and  S_30
REMARK   10  A    between atoms: S_30  and  C_31
REMARK                            x       y       z     vdW  Elec       q    Type
REMARK                         _______ _______ _______ _____ _____    ______ ____
ROOT
ATOM      1  C   UNL     1       0.784  -1.132   3.572  0.00  0.00    +0.100 C 
ATOM      2  C   UNL     1       1.976  -0.209   3.910  0.00  0.00    +0.121 C 
ATOM      3  N   UNL     1       1.442   0.740   4.916  0.00  0.00    -0.296 N 
ATOM      4  C   UNL     1       0.568  -0.091   5.778  0.00  0.00    +0.115 C 
ATOM      5  C   UNL     1      -0.136  -1.055   4.802  0.00  0.00    -0.004 C 
ATOM      6  C   UNL     1      -1.501  -0.500   4.407  0.00  0.00    -0.010 C 
ATOM      7  C   UNL     1      -2.416  -0.486   5.635  0.00  0.00    -0.082 C 
ATOM      8  N   UNL     1      -2.554  -1.849   6.160  0.00  0.00    +0.379 N 
ATOM      9  C   UNL     1      -1.251  -2.342   6.623  0.00  0.00    -0.082 C 
ATOM     10  C   UNL     1      -0.287  -2.434   5.438  0.00  0.00    -0.010 C 
ATOM     11  C   UNL     1       1.694   2.059   5.023  0.00  0.00    +0.249 C 
ATOM     12  O   UNL     1       2.361   2.621   4.176  0.00  0.00    -0.270 OA
ATOM     13  H   UNL     1      -3.205  -1.847   6.931  0.00  0.00    -0.086 HD
ATOM     14  H   UNL     1      -2.901  -2.455   5.432  0.00  0.00    -0.086 HD
ENDROOT
BRANCH  11  15
ATOM     15  C   UNL     1       1.160   2.821   6.166  0.00  0.00    +0.069 A 
ATOM     16  C   UNL     1       1.058   2.231   7.431  0.00  0.00    +0.017 A 
ATOM     17  C   UNL     1       0.551   2.989   8.471  0.00  0.00    +0.020 A 
ATOM     18  C   UNL     1       0.163   4.296   8.236  0.00  0.00    +0.112 A 
ATOM     19  N   UNL     1       0.267   4.835   7.038  0.00  0.00    -0.248 NA
ATOM     20  C   UNL     1       0.750   4.157   6.007  0.00  0.00    +0.114 A 
BRANCH  20  21
ATOM     21  S   UNL     1       0.873   4.930   4.429  0.00  0.00    -0.069 S 
BRANCH  21  22
ATOM     22  C   UNL     1       0.124   6.507   4.667  0.00  0.00    +0.014 A 
ATOM     23  C   UNL     1       0.910   7.613   4.963  0.00  0.00    +0.015 A 
ATOM     24  C   UNL     1       0.320   8.848   5.148  0.00  0.00    +0.001 A 
ATOM     25  C   UNL     1      -1.052   8.983   5.040  0.00  0.00    +0.000 A 
ATOM     26  C   UNL     1      -1.838   7.884   4.747  0.00  0.00    +0.001 A 
ATOM     27  C   UNL     1      -1.254   6.647   4.554  0.00  0.00    +0.015 A 
ENDBRANCH  21  22
ENDBRANCH  20  21
ENDBRANCH  11  15
BRANCH   1  29
ATOM     28  N   UNL     1      -0.555  -1.504   1.526  0.00  0.00    -0.312 N 
ATOM     29  C   UNL     1       0.064  -0.632   2.346  0.00  0.00    +0.218 C 
ATOM     30  O   UNL     1       0.042   0.554   2.097  0.00  0.00    -0.275 OA
ATOM     31  H   UNL     1      -0.538  -2.454   1.725  0.00  0.00    +0.149 HD
BRANCH  28  33
ATOM     32  C   UNL     1      -0.259  -0.870  -0.817  0.00  0.00    +0.028 C 
ATOM     33  C   UNL     1      -1.255  -1.018   0.334  0.00  0.00    +0.075 C 
BRANCH  33  34
ATOM     34  C   UNL     1      -2.345  -2.018  -0.060  0.00  0.00    -0.020 C 
ATOM     35  C   UNL     1      -1.707  -3.375  -0.361  0.00  0.00    +0.012 C 
ATOM     36  C   UNL     1      -3.341  -2.167   1.091  0.00  0.00    +0.012 C 
ATOM     37  C   UNL     1      -3.075  -1.510  -1.305  0.00  0.00    +0.012 C 
ENDBRANCH  33  34
ENDBRANCH  28  33
ENDBRANCH   1  29
TORSDOF 6
