REMARK  Name = ZINC66176462
REMARK  4 active torsions:
REMARK  status: ('A' for Active; 'I' for Inactive)
REMARK    1  A    between atoms: C_2  and  C_12
REMARK    2  A    between atoms: C_12  and  C_13
REMARK    3  A    between atoms: C_13  and  N_14
REMARK    4  A    between atoms: C_20  and  N_23
REMARK                            x       y       z     vdW  Elec       q    Type
REMARK                         _______ _______ _______ _____ _____    ______ ____
ROOT
ATOM      1  N   UNL     1       1.127   5.566   1.463  0.00  0.00    -0.299 N 
ATOM      2  C   UNL     1       1.127   6.234   2.634  0.00  0.00    +0.302 C 
ATOM      3  O   UNL     1       1.147   5.620   3.684  0.00  0.00    -0.253 OA
ATOM      4  N   UNL     1       1.105   7.581   2.641  0.00  0.00    -0.287 N 
ATOM      5  C   UNL     1       1.074   8.444   1.451  0.00  0.00    +0.108 C 
ATOM      6  C   UNL     1       1.084   9.906   1.945  0.00  0.00    +0.005 C 
ATOM      7  C   UNL     1       1.691   9.788   3.368  0.00  0.00    -0.049 C 
ATOM      8  C   UNL     1       1.103   8.434   3.844  0.00  0.00    +0.094 C 
ATOM      9  H   UNL     1       1.111   6.055   0.626  0.00  0.00    +0.150 HD
ENDROOT
BRANCH   7  10
ATOM     10  N   UNL     1       1.236  10.889   4.228  0.00  0.00    +0.383 N 
ATOM     11  C   UNL     1       1.896  10.808   5.556  0.00  0.00    -0.078 C 
ATOM     12  C   UNL     1       1.780  12.254   6.099  0.00  0.00    -0.020 C 
ATOM     13  C   UNL     1       1.991  13.116   4.833  0.00  0.00    -0.020 C 
ATOM     14  C   UNL     1       1.647  12.188   3.653  0.00  0.00    -0.078 C 
ATOM     15  H   UNL     1       0.233  10.857   4.333  0.00  0.00    -0.081 HD
ENDBRANCH   7  10
BRANCH   1  16
ATOM     16  C   UNL     1       1.151   4.101   1.455  0.00  0.00    +0.110 C 
BRANCH  16  17
ATOM     17  C   UNL     1       1.145   3.599   0.010  0.00  0.00    +0.054 C 
BRANCH  17  19
ATOM     18  C   UNL     1      -0.017   1.383   0.010  0.00  0.00    +0.053 A 
ATOM     19  C   UNL     1       1.170   2.092   0.002  0.00  0.00    -0.041 A 
ATOM     20  C   UNL     1       2.378   1.422  -0.013  0.00  0.00    +0.027 A 
ATOM     21  C   UNL     1       2.405   0.039  -0.023  0.00  0.00    +0.086 A 
ATOM     22  C   UNL     1       1.217  -0.679  -0.016  0.00  0.00    +0.180 A 
ATOM     23  C   UNL     1       0.002  -0.004   0.002  0.00  0.00    +0.164 A 
ATOM     24  O   UNL     1      -1.175  -0.688   0.016  0.00  0.00    -0.485 OA
ATOM     25  C   UNL     1      -1.122  -2.066  -0.368  0.00  0.00    +0.270 C 
ATOM     26  C   UNL     1       0.060  -2.723   0.356  0.00  0.00    +0.270 C 
ATOM     27  O   UNL     1       1.258  -2.039  -0.030  0.00  0.00    -0.483 OA
ATOM     28 CL   UNL     1       3.924  -0.800  -0.043  0.00  0.00    -0.080 Cl
ENDBRANCH  17  19
ENDBRANCH  16  17
ENDBRANCH   1  16
TORSDOF 4
