REMARK  Name = ZINC39666008
REMARK  8 active torsions:
REMARK  status: ('A' for Active; 'I' for Inactive)
REMARK    1  A    between atoms: C_1  and  C_2
REMARK    2  A    between atoms: C_5  and  O_8
REMARK    3  A    between atoms: O_8  and  C_9
REMARK    4  A    between atoms: C_9  and  C_11
REMARK    5  A    between atoms: C_9  and  C_12
REMARK    6  A    between atoms: C_12  and  N_13
REMARK    7  A    between atoms: C_14  and  C_16
REMARK    8  A    between atoms: C_27  and  C_29
REMARK                            x       y       z     vdW  Elec       q    Type
REMARK                         _______ _______ _______ _____ _____    ______ ____
ROOT
ATOM      1  C   UNL     1       4.657  -6.550   0.312  0.00  0.00    +0.100 C 
ATOM      2  C   UNL     1       4.937  -5.632  -0.900  0.00  0.00    +0.121 C 
ATOM      3  N   UNL     1       6.229  -6.114  -1.443  0.00  0.00    -0.296 N 
ATOM      4  C   UNL     1       6.152  -7.590  -1.325  0.00  0.00    +0.115 C 
ATOM      5  C   UNL     1       5.455  -7.833   0.028  0.00  0.00    -0.004 C 
ATOM      6  C   UNL     1       6.494  -8.062   1.122  0.00  0.00    -0.010 C 
ATOM      7  C   UNL     1       7.236  -9.373   0.849  0.00  0.00    -0.082 C 
ATOM      8  N   UNL     1       6.276 -10.483   0.817  0.00  0.00    +0.379 N 
ATOM      9  C   UNL     1       5.337 -10.302  -0.296  0.00  0.00    -0.082 C 
ATOM     10  C   UNL     1       4.515  -9.030  -0.071  0.00  0.00    -0.010 C 
ATOM     11  C   UNL     1       7.245  -5.376  -1.933  0.00  0.00    +0.247 C 
ATOM     12  O   UNL     1       7.136  -4.168  -2.013  0.00  0.00    -0.270 OA
ATOM     13  H   UNL     1       6.774 -11.353   0.698  0.00  0.00    -0.086 HD
ATOM     14  H   UNL     1       5.764 -10.508   1.687  0.00  0.00    -0.086 HD
ENDROOT
BRANCH  11  15
ATOM     15  C   UNL     1       8.492  -6.037  -2.374  0.00  0.00    +0.037 A 
ATOM     16  C   UNL     1       8.458  -7.344  -2.861  0.00  0.00    +0.014 A 
ATOM     17  C   UNL     1       9.624  -7.955  -3.271  0.00  0.00    +0.021 A 
ATOM     18  C   UNL     1      10.828  -7.274  -3.200  0.00  0.00    +0.041 A 
ATOM     19  C   UNL     1      10.868  -5.976  -2.717  0.00  0.00    +0.021 A 
ATOM     20  C   UNL     1       9.708  -5.353  -2.309  0.00  0.00    +0.014 A 
ATOM     21 CL   UNL     1      12.293  -8.049  -3.717  0.00  0.00    -0.084 Cl
ENDBRANCH  11  15
BRANCH   1  23
ATOM     22  N   UNL     1       2.623  -7.096   1.609  0.00  0.00    -0.312 N 
ATOM     23  C   UNL     1       3.185  -6.857   0.408  0.00  0.00    +0.218 C 
ATOM     24  O   UNL     1       2.506  -6.891  -0.597  0.00  0.00    -0.275 OA
ATOM     25  H   UNL     1       3.167  -7.070   2.412  0.00  0.00    +0.149 HD
BRANCH  22  26
ATOM     26  C   UNL     1       1.192  -7.395   1.702  0.00  0.00    +0.148 C 
BRANCH  26  27
ATOM     27  C   UNL     1       0.813  -7.624   3.167  0.00  0.00    +0.187 C 
ATOM     28  C   UNL     1      -0.651  -8.059   3.253  0.00  0.00    +0.053 C 
BRANCH  27  29
ATOM     29  O   UNL     1       0.994  -6.412   3.901  0.00  0.00    -0.488 OA
BRANCH  29  34
ATOM     30  C   UNL     1       2.249  -6.897   9.370  0.00  0.00    +0.044 C 
ATOM     31  C   UNL     1       1.913  -6.767   7.907  0.00  0.00    -0.050 A 
ATOM     32  C   UNL     1       1.617  -7.895   7.164  0.00  0.00    +0.007 A 
ATOM     33  C   UNL     1       1.309  -7.779   5.822  0.00  0.00    +0.046 A 
ATOM     34  C   UNL     1       1.296  -6.529   5.221  0.00  0.00    +0.121 A 
ATOM     35  C   UNL     1       1.593  -5.399   5.968  0.00  0.00    +0.046 A 
ATOM     36  C   UNL     1       1.896  -5.520   7.311  0.00  0.00    +0.007 A 
ENDBRANCH  29  34
ENDBRANCH  27  29
ENDBRANCH  26  27
ENDBRANCH  22  26
ENDBRANCH   1  23
TORSDOF 6
