REMARK  Name = ZINC63519392
REMARK  5 active torsions:
REMARK  status: ('A' for Active; 'I' for Inactive)
REMARK    1  A    between atoms: C_1  and  O_2
REMARK    2  A    between atoms: O_2  and  C_3
REMARK    3  A    between atoms: C_6  and  C_10
REMARK    4  A    between atoms: C_13  and  C_15
REMARK    5  A    between atoms: C_19  and  C_21
REMARK                            x       y       z     vdW  Elec       q    Type
REMARK                         _______ _______ _______ _____ _____    ______ ____
ROOT
ATOM      1  C   UNL     1       2.580  -2.540   4.298  0.00  0.00    +0.079 A 
ATOM      2  C   UNL     1       2.648  -3.908   4.354  0.00  0.00    +0.075 A 
ATOM      3  S   UNL     1       3.549  -4.131   5.883  0.00  0.00    -0.075 S 
ATOM      4  C   UNL     1       3.739  -2.400   6.284  0.00  0.00    +0.109 A 
ATOM      5  N   UNL     1       3.130  -1.824   5.259  0.00  0.00    -0.239 NA
ENDROOT
BRANCH   1   9
ATOM      6  C   UNL     1       0.626  -0.619   1.042  0.00  0.00    +0.155 A 
ATOM      7  C   UNL     1       1.202   0.141   2.050  0.00  0.00    +0.049 A 
ATOM      8  C   UNL     1       1.836  -0.480   3.107  0.00  0.00    +0.014 A 
ATOM      9  C   UNL     1       1.898  -1.871   3.162  0.00  0.00    +0.004 A 
ATOM     10  C   UNL     1       1.319  -2.632   2.149  0.00  0.00    +0.052 A 
ATOM     11  C   UNL     1       0.681  -2.006   1.096  0.00  0.00    +0.165 A 
ATOM     12  F   UNL     1       0.115  -2.743   0.115  0.00  0.00    -0.202 F 
BRANCH   6  14
ATOM     13  C   UNL     1      -0.017   1.425   0.010  0.00  0.00    +0.277 C 
ATOM     14  O   UNL     1       0.002  -0.004   0.002  0.00  0.00    -0.492 OA
ENDBRANCH   6  14
ENDBRANCH   1   9
BRANCH   4  15
ATOM     15  C   UNL     1       4.403  -1.776   7.449  0.00  0.00    +0.008 A 
ATOM     16  C   UNL     1       4.434  -0.386   7.575  0.00  0.00    +0.010 A 
ATOM     17  C   UNL     1       5.054   0.198   8.662  0.00  0.00    +0.001 A 
ATOM     18  C   UNL     1       5.647  -0.587   9.631  0.00  0.00    +0.013 A 
ATOM     19  C   UNL     1       5.623  -1.979   9.517  0.00  0.00    +0.039 A 
ATOM     20  C   UNL     1       4.995  -2.575   8.425  0.00  0.00    +0.023 A 
BRANCH  19  21
ATOM     21  C   UNL     1       6.258  -2.818  10.554  0.00  0.00    +0.250 A 
ATOM     22  N   UNL     1       6.313  -4.128  10.567  0.00  0.00    -0.106 NA
ATOM     23  N   UNL     1       6.941  -4.519  11.620  0.00  0.00    -0.093 NA
ATOM     24  C   UNL     1       7.312  -3.474  12.321  0.00  0.00    +0.305 A 
ATOM     25  O   UNL     1       6.895  -2.377  11.661  0.00  0.00    -0.405 OA
ATOM     26  N   UNL     1       8.007  -3.495  13.514  0.00  0.00    -0.312 N 
ATOM     27  H   UNL     1       8.268  -4.342  13.908  0.00  0.00    +0.147 HD
ATOM     28  H   UNL     1       8.236  -2.663  13.957  0.00  0.00    +0.147 HD
ENDBRANCH  19  21
ENDBRANCH   4  15
TORSDOF 4
