REMARK  Name = ZINC09228266
REMARK  10 active torsions:
REMARK  status: ('A' for Active; 'I' for Inactive)
REMARK    1  A    between atoms: C_1  and  C_2
REMARK    2  A    between atoms: C_4  and  C_7
REMARK    3  A    between atoms: C_10  and  C_27
REMARK    4  A    between atoms: C_11  and  S_13
REMARK    5  A    between atoms: S_13  and  N_16
REMARK    6  A    between atoms: N_16  and  C_17
REMARK    7  A    between atoms: C_20  and  S_23
REMARK    8  A    between atoms: S_23  and  N_26
REMARK    9  A    between atoms: C_27  and  C_28
REMARK   10  A    between atoms: C_27  and  C_29
REMARK                            x       y       z     vdW  Elec       q    Type
REMARK                         _______ _______ _______ _____ _____    ______ ____
ROOT
ATOM      1  S   UNL     1      -1.575   3.292   1.024  0.00  0.00    +0.073 S 
ATOM      2  O   UNL     1      -1.302   2.095   0.308  0.00  0.00    -0.150 OA
ATOM      3  O   UNL     1      -2.863   3.892   1.043  0.00  0.00    -0.150 OA
ENDROOT
BRANCH   1   8
ATOM      4  C   UNL     1      -0.057   6.707  -0.478  0.00  0.00    +0.022 A 
ATOM      5  C   UNL     1       1.307   6.419  -0.556  0.00  0.00    +0.012 A 
ATOM      6  C   UNL     1       1.772   5.185  -0.153  0.00  0.00    +0.006 A 
ATOM      7  C   UNL     1       0.891   4.233   0.329  0.00  0.00    -0.018 A 
ATOM      8  C   UNL     1      -0.462   4.511   0.409  0.00  0.00    +0.113 A 
ATOM      9  C   UNL     1      -0.941   5.740   0.003  0.00  0.00    +0.040 A 
BRANCH   4  13
ATOM     10  C   UNL     1      -0.524  11.447  -2.212  0.00  0.00    +0.069 C 
ATOM     11  C   UNL     1      -0.785  10.072  -1.654  0.00  0.00    +0.081 A 
ATOM     12  C   UNL     1       0.174   9.070  -1.399  0.00  0.00    +0.075 A 
ATOM     13  C   UNL     1      -0.563   8.027  -0.909  0.00  0.00    +0.168 A 
ATOM     14  O   UNL     1      -1.841   8.447  -0.892  0.00  0.00    -0.354 OA
ATOM     15  N   UNL     1      -1.940   9.578  -1.308  0.00  0.00    -0.083 NA
ENDBRANCH   4  13
BRANCH   7  16
ATOM     16  C   UNL     1       1.407   2.887   0.769  0.00  0.00    +0.015 C 
ATOM     17  C   UNL     1       1.968   2.136  -0.441  0.00  0.00    +0.012 C 
ATOM     18  C   UNL     1       2.514   3.080   1.808  0.00  0.00    +0.012 C 
ENDBRANCH   7  16
ENDBRANCH   1   8
BRANCH   1  19
ATOM     19  N   UNL     1      -1.164   3.004   2.602  0.00  0.00    -0.216 N 
ATOM     20  H   UNL     1      -0.804   2.141   2.860  0.00  0.00    +0.174 HD
BRANCH  19  21
ATOM     21  C   UNL     1      -1.335   4.005   3.562  0.00  0.00    +0.048 A 
ATOM     22  C   UNL     1      -0.916   5.302   3.297  0.00  0.00    +0.026 A 
ATOM     23  C   UNL     1      -1.081   6.287   4.251  0.00  0.00    +0.030 A 
ATOM     24  C   UNL     1      -1.663   5.983   5.468  0.00  0.00    +0.105 A 
ATOM     25  C   UNL     1      -2.081   4.692   5.735  0.00  0.00    +0.030 A 
ATOM     26  C   UNL     1      -1.919   3.702   4.786  0.00  0.00    +0.026 A 
BRANCH  24  27
ATOM     27  S   UNL     1      -1.872   7.243   6.681  0.00  0.00    +0.056 S 
ATOM     28  O   UNL     1      -1.897   8.480   5.982  0.00  0.00    -0.153 OA
ATOM     29  O   UNL     1      -2.937   6.823   7.524  0.00  0.00    -0.153 OA
BRANCH  27  30
ATOM     30  N   UNL     1      -0.505   7.255   7.616  0.00  0.00    -0.204 NA
ATOM     31  H   UNL     1       0.214   6.632   7.431  0.00  0.00    +0.144 HD
ATOM     32  H   UNL     1      -0.424   7.886   8.349  0.00  0.00    +0.144 HD
ENDBRANCH  27  30
ENDBRANCH  24  27
ENDBRANCH  19  21
ENDBRANCH   1  19
TORSDOF 7
