REMARK  Name = ZINC06588227
REMARK  5 active torsions:
REMARK  status: ('A' for Active; 'I' for Inactive)
REMARK    1  A    between atoms: C_9  and  S_11
REMARK    2  A    between atoms: S_11  and  C_12
REMARK    3  A    between atoms: C_12  and  C_13
REMARK    4  A    between atoms: N_18  and  C_19
REMARK    5  A    between atoms: C_19  and  C_20
REMARK                            x       y       z     vdW  Elec       q    Type
REMARK                         _______ _______ _______ _____ _____    ______ ____
ROOT
ATOM      1  C   UNL     1       7.965  -1.445   0.298  0.00  0.00    +0.231 C 
ATOM      2  O   UNL     1       8.303  -2.552  -0.062  0.00  0.00    -0.274 OA
ATOM      3  N   UNL     1       8.886  -0.575   0.758  0.00  0.00    -0.239 N 
ATOM      4  C   UNL     1      10.183  -0.935   0.818  0.00  0.00    +0.306 C 
ATOM      5  O   UNL     1      10.522  -2.045   0.457  0.00  0.00    -0.252 OA
ATOM      6  N   UNL     1      11.104  -0.065   1.278  0.00  0.00    -0.292 N 
ATOM      7  H   UNL     1       8.615   0.311   1.046  0.00  0.00    +0.159 HD
ATOM      8  H   UNL     1      10.833   0.821   1.565  0.00  0.00    +0.151 HD
ENDROOT
BRANCH   1   9
ATOM      9  C   UNL     1       6.514  -1.042   0.231  0.00  0.00    +0.172 C 
BRANCH   9  10
ATOM     10  S   UNL     1       5.534  -2.419  -0.426  0.00  0.00    -0.090 S 
BRANCH  10  19
ATOM     11  C   UNL     1      -0.017   1.377   0.010  0.00  0.00    +0.000 A 
ATOM     12  C   UNL     1       1.174   2.083   0.002  0.00  0.00    +0.002 A 
ATOM     13  C   UNL     1       2.374   1.412  -0.012  0.00  0.00    +0.028 A 
ATOM     14  C   UNL     1       2.406   0.006  -0.020  0.00  0.00    +0.070 A 
ATOM     15  C   UNL     1       1.203  -0.692  -0.014  0.00  0.00    -0.012 A 
ATOM     16  C   UNL     1       0.002  -0.004   0.002  0.00  0.00    +0.006 A 
ATOM     17  C   UNL     1       1.156  -2.201  -0.030  0.00  0.00    +0.113 C 
ATOM     18  S   UNL     1       2.556  -2.812  -1.016  0.00  0.00    -0.094 S 
ATOM     19  C   UNL     1       3.885  -1.798  -0.442  0.00  0.00    +0.132 C 
ATOM     20  N   UNL     1       3.632  -0.585  -0.030  0.00  0.00    -0.234 NA
ENDBRANCH  10  19
ENDBRANCH   9  10
ENDBRANCH   1   9
BRANCH   6  21
ATOM     21  C   UNL     1      12.514  -0.457   1.343  0.00  0.00    +0.180 C 
BRANCH  21  22
ATOM     22  C   UNL     1      13.328   0.687   1.889  0.00  0.00    +0.122 A 
ATOM     23  C   UNL     1      13.607   0.906   3.186  0.00  0.00    +0.046 A 
ATOM     24  C   UNL     1      14.392   2.081   3.244  0.00  0.00    +0.041 A 
ATOM     25  C   UNL     1      14.546   2.509   1.978  0.00  0.00    +0.195 A 
ATOM     26  O   UNL     1      13.905   1.658   1.161  0.00  0.00    -0.466 OA
ENDBRANCH  21  22
ENDBRANCH   6  21
TORSDOF 5
