REMARK  Name = ZINC59459694
REMARK  3 active torsions:
REMARK  status: ('A' for Active; 'I' for Inactive)
REMARK    1  A    between atoms: C_6  and  C_7
REMARK    2  A    between atoms: N_8  and  N_9
REMARK    3  A    between atoms: C_10  and  C_12
REMARK                            x       y       z     vdW  Elec       q    Type
REMARK                         _______ _______ _______ _____ _____    ______ ____
ROOT
ATOM      1  N   UNL     1      -2.430  -2.797   0.209  0.00  0.00    -0.199 N 
ATOM      2  C   UNL     1      -2.424  -4.126  -0.019  0.00  0.00    +0.318 C 
ATOM      3  O   UNL     1      -1.377  -4.697  -0.249  0.00  0.00    -0.263 OA
ATOM      4  H   UNL     1      -3.266  -2.341   0.393  0.00  0.00    +0.178 HD
ENDROOT
BRANCH   2   5
ATOM      5  C   UNL     1      -3.702  -4.894   0.011  0.00  0.00    +0.303 C 
ATOM      6  O   UNL     1      -4.759  -4.309   0.134  0.00  0.00    -0.265 OA
ATOM      7  N   UNL     1      -3.684  -6.237  -0.098  0.00  0.00    -0.294 N 
ATOM      8  C   UNL     1      -2.407  -6.915  -0.105  0.00  0.00    +0.108 C 
ATOM      9  C   UNL     1      -1.885  -7.023  -1.559  0.00  0.00    +0.019 C 
ATOM     10  C   UNL     1      -2.684  -7.997  -2.318  0.00  0.00    +0.002 C 
ATOM     11  C   UNL     1      -4.154  -7.620  -2.472  0.00  0.00    +0.002 C 
ATOM     12  C   UNL     1      -4.919  -8.080  -1.256  0.00  0.00    +0.019 C 
ATOM     13  C   UNL     1      -4.969  -6.956  -0.199  0.00  0.00    +0.108 C 
ENDBRANCH   2   5
BRANCH   1  15
ATOM     14  C   UNL     1      -1.236  -0.796   0.401  0.00  0.00    +0.138 C 
ATOM     15  N   UNL     1      -1.229  -2.076   0.181  0.00  0.00    -0.187 NA
BRANCH  14  21
ATOM     16  C   UNL     1       0.024   1.341   0.607  0.00  0.00    +0.012 A 
ATOM     17  C   UNL     1       1.209   2.045   0.578  0.00  0.00    +0.039 A 
ATOM     18  C   UNL     1       2.402   1.390   0.315  0.00  0.00    +0.123 A 
ATOM     19  C   UNL     1       2.412   0.024   0.080  0.00  0.00    +0.039 A 
ATOM     20  C   UNL     1       1.233  -0.692   0.106  0.00  0.00    +0.012 A 
ATOM     21  C   UNL     1       0.028  -0.037   0.371  0.00  0.00    -0.005 A 
ATOM     22  F   UNL     1       3.559   2.086   0.287  0.00  0.00    -0.205 F 
ENDBRANCH  14  21
ENDBRANCH   1  15
TORSDOF 3
