REMARK  Name = ZINC33668218
REMARK  8 active torsions:
REMARK  status: ('A' for Active; 'I' for Inactive)
REMARK    1  A    between atoms: C_1  and  C_2
REMARK    2  A    between atoms: C_2  and  C_3
REMARK    3  A    between atoms: C_3  and  C_5
REMARK    4  A    between atoms: C_3  and  C_6
REMARK    5  A    between atoms: C_6  and  C_8
REMARK    6  A    between atoms: C_6  and  N_23
REMARK    7  A    between atoms: C_14  and  C_16
REMARK    8  A    between atoms: N_26  and  C_27
REMARK                            x       y       z     vdW  Elec       q    Type
REMARK                         _______ _______ _______ _____ _____    ______ ____
ROOT
ATOM      1  C   UNL     1       0.574   3.173   0.472  0.00  0.00    +0.163 C 
ENDROOT
BRANCH   1   2
ATOM      2  C   UNL     1       1.989   3.369   0.953  0.00  0.00    +0.239 C 
ATOM      3  O   UNL     1       2.685   2.407   1.196  0.00  0.00    -0.273 OA
ATOM      4  N   UNL     1       2.480   4.614   1.112  0.00  0.00    -0.262 N 
ATOM      5  C   UNL     1       3.815   4.796   1.454  0.00  0.00    +0.188 A 
ATOM      6  N   UNL     1       4.768   3.900   1.676  0.00  0.00    -0.125 NA
ATOM      7  N   UNL     1       5.945   4.238   1.976  0.00  0.00    -0.140 NA
ATOM      8  C   UNL     1       6.297   5.512   2.101  0.00  0.00    +0.134 A 
ATOM      9  S   UNL     1       4.736   6.306   1.729  0.00  0.00    -0.030 S 
ATOM     10  H   UNL     1       1.825   5.486   0.971  0.00  0.00    +0.157 HD
BRANCH   8  11
ATOM     11  C   UNL     1       7.606   6.106   2.449  0.00  0.00    +0.009 A 
ATOM     12  C   UNL     1       7.750   7.492   2.518  0.00  0.00    +0.013 A 
ATOM     13  C   UNL     1       8.971   8.041   2.849  0.00  0.00    +0.039 A 
ATOM     14  C   UNL     1      10.058   7.218   3.100  0.00  0.00    +0.123 A 
ATOM     15  C   UNL     1       9.922   5.841   3.026  0.00  0.00    +0.039 A 
ATOM     16  C   UNL     1       8.704   5.282   2.703  0.00  0.00    +0.013 A 
ATOM     17  F   UNL     1      11.254   7.761   3.417  0.00  0.00    -0.205 F 
ENDBRANCH   8  11
ENDBRANCH   1   2
BRANCH   1  18
ATOM     18  N   UNL     1       0.293   1.740   0.351  0.00  0.00    -0.288 N 
ATOM     19  C   UNL     1      -0.947   1.274   0.594  0.00  0.00    +0.305 C 
ATOM     20  O   UNL     1      -1.855   2.050   0.822  0.00  0.00    -0.252 OA
ATOM     21  N   UNL     1      -1.183  -0.053   0.579  0.00  0.00    -0.267 N 
ATOM     22  H   UNL     1       1.096   1.045   0.062  0.00  0.00    +0.151 HD
ATOM     23  H   UNL     1      -0.389  -0.750   0.274  0.00  0.00    +0.156 HD
BRANCH  21  24
ATOM     24  C   UNL     1      -2.441  -0.545   0.953  0.00  0.00    +0.070 A 
ATOM     25  C   UNL     1      -3.264   0.206   1.781  0.00  0.00    +0.026 A 
ATOM     26  C   UNL     1      -4.505  -0.279   2.144  0.00  0.00    +0.002 A 
ATOM     27  C   UNL     1      -4.925  -1.517   1.692  0.00  0.00    +0.003 A 
ATOM     28  C   UNL     1      -4.106  -2.272   0.872  0.00  0.00    +0.040 A 
ATOM     29  C   UNL     1      -2.865  -1.790   0.501  0.00  0.00    +0.145 A 
ATOM     30  F   UNL     1      -2.064  -2.527  -0.300  0.00  0.00    -0.204 F 
ENDBRANCH  21  24
ENDBRANCH   1  18
BRANCH   1  31
ATOM     31  C   UNL     1       0.401   3.844  -0.892  0.00  0.00    +0.015 C 
ATOM     32  C   UNL     1      -1.071   3.789  -1.305  0.00  0.00    +0.010 C 
BRANCH  31  34
ATOM     33  C   UNL     1       2.733   3.342  -1.636  0.00  0.00    +0.004 C 
ATOM     34  C   UNL     1       1.250   3.110  -1.932  0.00  0.00    +0.002 C 
ENDBRANCH  31  34
ENDBRANCH   1  31
TORSDOF 6
