REMARK  Name = ZINC20970152
REMARK  6 active torsions:
REMARK  status: ('A' for Active; 'I' for Inactive)
REMARK    1  A    between atoms: C_1  and  C_2
REMARK    2  A    between atoms: C_3  and  C_7
REMARK    3  A    between atoms: C_10  and  S_13
REMARK    4  A    between atoms: N_11  and  N_12
REMARK    5  A    between atoms: S_13  and  C_14
REMARK    6  A    between atoms: C_14  and  C_15
REMARK                            x       y       z     vdW  Elec       q    Type
REMARK                         _______ _______ _______ _____ _____    ______ ____
ROOT
ATOM      1  C   UNL     1      -0.280   1.806  -2.297  0.00  0.00    +0.185 A 
ATOM      2  N   UNL     1      -1.311   2.233  -2.989  0.00  0.00    -0.127 NA
ATOM      3  N   UNL     1      -2.368   2.214  -2.259  0.00  0.00    -0.121 NA
ATOM      4  C   UNL     1      -2.079   1.769  -1.058  0.00  0.00    +0.209 A 
ATOM      5  N   UNL     1      -0.741   1.490  -1.041  0.00  0.00    -0.224 N 
ENDROOT
BRANCH   1   8
ATOM      6  C   UNL     1       0.761   2.518  -5.168  0.00  0.00    +0.087 C 
ATOM      7  C   UNL     1       1.582   1.989  -4.020  0.00  0.00    +0.112 A 
ATOM      8  C   UNL     1       1.113   1.686  -2.780  0.00  0.00    +0.061 A 
ATOM      9  C   UNL     1       2.275   1.207  -2.021  0.00  0.00    +0.053 A 
ATOM     10  C   UNL     1       3.320   1.272  -2.863  0.00  0.00    +0.196 A 
ATOM     11  O   UNL     1       2.899   1.740  -4.047  0.00  0.00    -0.467 OA
ENDBRANCH   1   8
BRANCH   5  12
ATOM     12  N   UNL     1      -0.012   1.005   0.008  0.00  0.00    -0.295 N 
ATOM     13  H   UNL     1      -0.504   0.791   0.968  0.00  0.00    +0.163 HD
ATOM     14  H   UNL     1       1.068   0.827  -0.108  0.00  0.00    +0.163 HD
ENDBRANCH   5  12
BRANCH   4  15
ATOM     15  S   UNL     1      -3.206   1.569   0.282  0.00  0.00    -0.080 S 
BRANCH  15  16
ATOM     16  C   UNL     1      -4.734   2.133  -0.506  0.00  0.00    +0.114 C 
BRANCH  16  17
ATOM     17  C   UNL     1      -5.869   2.048   0.482  0.00  0.00    -0.019 A 
ATOM     18  C   UNL     1      -6.622   0.892   0.572  0.00  0.00    +0.006 A 
ATOM     19  C   UNL     1      -7.660   0.812   1.481  0.00  0.00    +0.000 A 
ATOM     20  C   UNL     1      -7.953   1.892   2.293  0.00  0.00    +0.001 A 
ATOM     21  C   UNL     1      -7.205   3.050   2.201  0.00  0.00    +0.020 A 
ATOM     22  C   UNL     1      -6.162   3.129   1.294  0.00  0.00    +0.045 A 
ATOM     23 CL   UNL     1      -5.222   4.583   1.177  0.00  0.00    -0.083 Cl
ENDBRANCH  16  17
ENDBRANCH  15  16
ENDBRANCH   4  15
TORSDOF 5
