REMARK  Name = ZINC03771004
REMARK  13 active torsions:
REMARK  status: ('A' for Active; 'I' for Inactive)
REMARK    1  A    between atoms: C_1  and  C_2
REMARK    2  A    between atoms: C_2  and  C_3
REMARK    3  A    between atoms: C_2  and  C_4
REMARK    4  A    between atoms: C_2  and  C_5
REMARK    5  A    between atoms: C_7  and  S_16
REMARK    6  A    between atoms: C_9  and  C_12
REMARK    7  A    between atoms: C_10  and  O_11
REMARK    8  A    between atoms: C_12  and  C_13
REMARK    9  A    between atoms: C_12  and  C_14
REMARK   10  A    between atoms: C_12  and  C_15
REMARK   11  A    between atoms: S_16  and  C_17
REMARK   12  A    between atoms: C_19  and  N_25
REMARK   13  A    between atoms: C_30  and  N_64
REMARK                            x       y       z     vdW  Elec       q    Type
REMARK                         _______ _______ _______ _____ _____    ______ ____
ROOT
ATOM      1  S   UNL     1      -2.371   7.157  -3.909  0.00  0.00    -0.083 S 
ENDROOT
BRANCH   1   2
ATOM      2  C   UNL     1      -2.164   5.425  -3.662  0.00  0.00    +0.091 A 
ATOM      3  C   UNL     1      -1.560   4.936  -2.505  0.00  0.00    +0.180 A 
ATOM      4  C   UNL     1      -1.412   3.564  -2.350  0.00  0.00    +0.161 A 
ATOM      5  N   UNL     1      -1.845   2.727  -3.282  0.00  0.00    -0.199 NA
ATOM      6  C   UNL     1      -2.426   3.156  -4.390  0.00  0.00    +0.252 A 
ATOM      7  C   UNL     1      -2.605   4.508  -4.618  0.00  0.00    +0.194 A 
ATOM      8  F   UNL     1      -3.200   4.936  -5.753  0.00  0.00    -0.200 F 
ATOM      9  F   UNL     1      -2.851   2.263  -5.310  0.00  0.00    -0.181 F 
ATOM     10  F   UNL     1      -1.122   5.784  -1.550  0.00  0.00    -0.201 F 
BRANCH   4  11
ATOM     11  N   UNL     1      -0.806   3.062  -1.200  0.00  0.00    -0.316 N 
ATOM     12  C   UNL     1      -0.754   1.593  -1.231  0.00  0.00    +0.088 C 
ATOM     13  C   UNL     1      -0.013   1.086   0.008  0.00  0.00    -0.060 C 
ATOM     14  C   UNL     1      -0.754   3.029   1.247  0.00  0.00    -0.060 C 
ATOM     15  C   UNL     1      -1.495   3.536   0.008  0.00  0.00    +0.088 C 
ATOM     16  C   UNL     1      -0.062   1.031   2.429  0.00  0.00    -0.096 C 
ATOM     17  N   UNL     1      -0.728   1.551   1.215  0.00  0.00    +0.380 N 
ATOM     18  H   UNL     1      -1.692   1.200   1.187  0.00  0.00    -0.082 HD
ENDBRANCH   4  11
ENDBRANCH   1   2
BRANCH   1  21
ATOM     19  C   UNL     1      -5.676   9.072  -2.650  0.00  0.00    +0.001 A 
ATOM     20  C   UNL     1      -4.443   8.801  -3.210  0.00  0.00    +0.022 A 
ATOM     21  C   UNL     1      -3.944   7.504  -3.196  0.00  0.00    +0.014 A 
ATOM     22  C   UNL     1      -4.689   6.480  -2.624  0.00  0.00    +0.022 A 
ATOM     23  C   UNL     1      -5.920   6.755  -2.060  0.00  0.00    +0.001 A 
ATOM     24  C   UNL     1      -6.417   8.050  -2.075  0.00  0.00    +0.124 A 
BRANCH  19  26
ATOM     25  C   UNL     1      -5.212  11.404  -3.353  0.00  0.00    +0.015 C 
ATOM     26  C   UNL     1      -6.217  10.478  -2.666  0.00  0.00    -0.009 C 
ATOM     27  C   UNL     1      -7.543  10.506  -3.430  0.00  0.00    +0.015 C 
ATOM     28  C   UNL     1      -6.447  10.951  -1.229  0.00  0.00    +0.015 C 
ENDBRANCH  19  26
BRANCH  23  29
ATOM     29  C   UNL     1      -6.725   5.645  -1.435  0.00  0.00    -0.009 C 
ATOM     30  C   UNL     1      -5.956   4.328  -1.551  0.00  0.00    +0.015 C 
ATOM     31  C   UNL     1      -6.971   5.964   0.042  0.00  0.00    +0.015 C 
ATOM     32  C   UNL     1      -8.067   5.518  -2.159  0.00  0.00    +0.015 C 
ENDBRANCH  23  29
BRANCH  24  33
ATOM     33  O   UNL     1      -7.631   8.317  -1.525  0.00  0.00    -0.506 OA
ATOM     34  H   UNL     1      -8.370   8.238  -2.144  0.00  0.00    +0.292 HD
ENDBRANCH  24  33
ENDBRANCH   1  21
TORSDOF 6
