REMARK  Name = ZINC12843677
REMARK  9 active torsions:
REMARK  status: ('A' for Active; 'I' for Inactive)
REMARK    1  A    between atoms: C_1  and  C_2
REMARK    2  A    between atoms: C_6  and  N_9
REMARK    3  A    between atoms: C_7  and  C_8
REMARK    4  A    between atoms: C_13  and  C_15
REMARK    5  A    between atoms: C_15  and  S_16
REMARK    6  A    between atoms: S_16  and  C_17
REMARK    7  A    between atoms: C_20  and  C_23
REMARK    8  A    between atoms: C_24  and  C_25
REMARK    9  A    between atoms: C_28  and  C_30
REMARK                            x       y       z     vdW  Elec       q    Type
REMARK                         _______ _______ _______ _____ _____    ______ ____
ROOT
ATOM      1  N   UNL     1     -14.604   5.347   6.372  0.00  0.00    -0.269 N 
ATOM      2  C   UNL     1     -13.951   4.914   5.276  0.00  0.00    +0.310 C 
ATOM      3  O   UNL     1     -14.565   4.694   4.250  0.00  0.00    -0.252 OA
ATOM      4  N   UNL     1     -12.617   4.726   5.316  0.00  0.00    -0.239 N 
ATOM      5  C   UNL     1     -11.964   4.293   4.220  0.00  0.00    +0.231 C 
ATOM      6  O   UNL     1     -12.577   4.073   3.197  0.00  0.00    -0.274 OA
ATOM      7  H   UNL     1     -14.130   5.445   7.212  0.00  0.00    +0.156 HD
ATOM      8  H   UNL     1     -12.127   4.902   6.135  0.00  0.00    +0.159 HD
ENDROOT
BRANCH   1  14
ATOM      9  C   UNL     1     -18.958   5.839   8.603  0.00  0.00    +0.044 C 
ATOM     10  C   UNL     1     -18.101   5.902   7.364  0.00  0.00    -0.046 A 
ATOM     11  C   UNL     1     -18.663   6.264   6.154  0.00  0.00    +0.004 A 
ATOM     12  C   UNL     1     -17.880   6.322   5.015  0.00  0.00    +0.002 A 
ATOM     13  C   UNL     1     -16.534   6.019   5.084  0.00  0.00    +0.023 A 
ATOM     14  C   UNL     1     -15.968   5.655   6.299  0.00  0.00    +0.038 A 
ATOM     15  C   UNL     1     -16.758   5.592   7.439  0.00  0.00    -0.026 A 
ATOM     16  C   UNL     1     -16.148   5.192   8.758  0.00  0.00    +0.046 C 
ENDBRANCH   1  14
BRANCH   5  17
ATOM     17  C   UNL     1     -10.473   4.083   4.265  0.00  0.00    +0.173 C 
BRANCH  17  18
ATOM     18  S   UNL     1      -9.896   3.503   2.650  0.00  0.00    -0.077 S 
BRANCH  18  19
ATOM     19  C   UNL     1      -8.172   3.345   2.980  0.00  0.00    +0.190 A 
ATOM     20  N   UNL     1      -7.213   2.938   2.096  0.00  0.00    -0.317 N 
ATOM     21  H   UNL     1      -7.340   2.680   1.169  0.00  0.00    +0.169 HD
ATOM     22  C   UNL     1      -6.025   2.967   2.797  0.00  0.00    +0.155 A 
ATOM     23  N   UNL     1      -6.309   3.381   4.016  0.00  0.00    -0.129 NA
ATOM     24  N   UNL     1      -7.570   3.602   4.120  0.00  0.00    -0.122 NA
BRANCH  22  25
ATOM     25  C   UNL     1      -4.701   2.611   2.284  0.00  0.00    +0.051 C 
ATOM     26  C   UNL     1      -3.619   2.694   3.090  0.00  0.00    +0.050 C 
BRANCH  26  27
ATOM     27  C   UNL     1      -2.296   2.339   2.577  0.00  0.00    +0.128 A 
ATOM     28  C   UNL     1      -1.125   2.377   3.280  0.00  0.00    +0.049 A 
ATOM     29  C   UNL     1      -0.111   1.957   2.400  0.00  0.00    +0.045 A 
ATOM     30  C   UNL     1      -0.699   1.686   1.217  0.00  0.00    +0.103 A 
ATOM     31  O   UNL     1      -2.017   1.922   1.325  0.00  0.00    -0.461 OA
ATOM     32  C   UNL     1       0.007   1.204  -0.024  0.00  0.00    +0.086 C 
ENDBRANCH  26  27
ENDBRANCH  22  25
ENDBRANCH  18  19
ENDBRANCH  17  18
ENDBRANCH   5  17
TORSDOF 6
