REMARK  Name = ZINC12583958
REMARK  8 active torsions:
REMARK  status: ('A' for Active; 'I' for Inactive)
REMARK    1  A    between atoms: C_1  and  C_2
REMARK    2  A    between atoms: C_3  and  S_25
REMARK    3  A    between atoms: C_4  and  C_24
REMARK    4  A    between atoms: C_7  and  C_9
REMARK    5  A    between atoms: C_12  and  S_15
REMARK    6  A    between atoms: S_15  and  N_18
REMARK    7  A    between atoms: S_25  and  C_26
REMARK    8  A    between atoms: C_29  and  N_32
REMARK                            x       y       z     vdW  Elec       q    Type
REMARK                         _______ _______ _______ _____ _____    ______ ____
ROOT
ATOM      1  C   UNL     1      -5.755  -0.984  -5.680  0.00  0.00    +0.069 C 
ATOM      2  C   UNL     1      -5.179   0.405  -5.783  0.00  0.00    +0.074 A 
ATOM      3  C   UNL     1      -5.460   1.338  -6.797  0.00  0.00    +0.056 A 
ATOM      4  C   UNL     1      -4.750   2.463  -6.535  0.00  0.00    +0.059 A 
ATOM      5  N   UNL     1      -4.042   2.242  -5.388  0.00  0.00    -0.199 N 
ATOM      6  N   UNL     1      -4.330   0.944  -4.949  0.00  0.00    -0.168 NA
ATOM      7  C   UNL     1      -3.210   3.116  -4.788  0.00  0.00    +0.279 C 
ATOM      8  O   UNL     1      -3.107   4.249  -5.216  0.00  0.00    -0.265 OA
ATOM      9  C   UNL     1      -4.743   3.725  -7.358  0.00  0.00    +0.067 C 
ENDROOT
BRANCH   7  10
ATOM     10  C   UNL     1      -2.423   2.698  -3.610  0.00  0.00    +0.041 A 
ATOM     11  C   UNL     1      -1.462   3.554  -3.068  0.00  0.00    +0.015 A 
ATOM     12  C   UNL     1      -0.731   3.157  -1.968  0.00  0.00    +0.029 A 
ATOM     13  C   UNL     1      -0.947   1.913  -1.402  0.00  0.00    +0.106 A 
ATOM     14  C   UNL     1      -1.894   1.057  -1.938  0.00  0.00    +0.029 A 
ATOM     15  C   UNL     1      -2.636   1.444  -3.034  0.00  0.00    +0.015 A 
BRANCH  13  16
ATOM     16  S   UNL     1      -0.008   1.413   0.002  0.00  0.00    +0.061 S 
ATOM     17  O   UNL     1      -0.015  -0.008   0.011  0.00  0.00    -0.153 OA
ATOM     18  O   UNL     1       1.196   2.168  -0.025  0.00  0.00    -0.153 OA
BRANCH  16  19
ATOM     19  N   UNL     1      -0.842   1.899   1.347  0.00  0.00    -0.177 NA
ATOM     20  C   UNL     1      -0.600   3.221   1.941  0.00  0.00    +0.109 C 
ATOM     21  C   UNL     1      -1.944   3.955   2.064  0.00  0.00    +0.017 C 
ATOM     22  C   UNL     1      -2.925   3.083   2.851  0.00  0.00    +0.003 C 
ATOM     23  C   UNL     1      -3.160   1.770   2.099  0.00  0.00    +0.017 C 
ATOM     24  C   UNL     1      -1.834   1.014   1.974  0.00  0.00    +0.109 C 
ENDBRANCH  16  19
ENDBRANCH  13  16
ENDBRANCH   7  10
BRANCH   3  25
ATOM     25  S   UNL     1      -6.542   1.090  -8.165  0.00  0.00    -0.086 S 
BRANCH  25  26
ATOM     26  C   UNL     1      -5.499   0.421  -9.418  0.00  0.00    +0.013 A 
ATOM     27  C   UNL     1      -4.147   0.222  -9.166  0.00  0.00    +0.017 A 
ATOM     28  C   UNL     1      -3.334  -0.307 -10.148  0.00  0.00    +0.034 A 
ATOM     29  C   UNL     1      -3.861  -0.630 -11.386  0.00  0.00    +0.126 A 
ATOM     30  C   UNL     1      -5.205  -0.429 -11.642  0.00  0.00    +0.034 A 
ATOM     31  C   UNL     1      -6.026   0.096 -10.663  0.00  0.00    +0.017 A 
BRANCH  29  32
ATOM     32  N   UNL     1      -2.985  -1.192 -12.438  0.00  0.00    +0.056 N 
ATOM     33  O   UNL     1      -3.448  -1.477 -13.528  0.00  0.00    -0.126 OA
ATOM     34  O   UNL     1      -1.801  -1.370 -12.214  0.00  0.00    -0.126 OA
ENDBRANCH  29  32
ENDBRANCH  25  26
ENDBRANCH   3  25
TORSDOF 6
