REMARK  Name = ZINC67481893
REMARK  6 active torsions:
REMARK  status: ('A' for Active; 'I' for Inactive)
REMARK    1  A    between atoms: C_1  and  C_2
REMARK    2  A    between atoms: N_4  and  C_5
REMARK    3  A    between atoms: N_14  and  C_15
REMARK    4  A    between atoms: C_15  and  C_16
REMARK    5  A    between atoms: N_21  and  C_22
REMARK    6  A    between atoms: C_22  and  C_23
REMARK                            x       y       z     vdW  Elec       q    Type
REMARK                         _______ _______ _______ _____ _____    ______ ____
ROOT
ATOM      1  C   UNL     1       1.881  -4.044  -3.430  0.00  0.00    +0.090 C 
ATOM      2  C   UNL     1       1.846  -2.521  -3.288  0.00  0.00    +0.025 C 
ATOM      3  C   UNL     1       2.632  -2.104  -2.043  0.00  0.00    +0.021 C 
ATOM      4  C   UNL     1       1.980  -2.721  -0.802  0.00  0.00    +0.109 C 
ATOM      5  N   UNL     1       1.878  -4.174  -0.994  0.00  0.00    -0.284 N 
ATOM      6  C   UNL     1       1.220  -4.683  -2.205  0.00  0.00    +0.131 C 
ATOM      7  C   UNL     1       2.379  -5.024  -0.076  0.00  0.00    +0.302 C 
ATOM      8  O   UNL     1       2.996  -4.594   0.879  0.00  0.00    -0.253 OA
ATOM      9  N   UNL     1       2.196  -6.352  -0.216  0.00  0.00    -0.301 N 
ATOM     10  H   UNL     1       1.767  -6.701  -1.014  0.00  0.00    +0.150 HD
ENDROOT
BRANCH   1  14
ATOM     11  C   UNL     1       0.701  -6.010  -6.495  0.00  0.00    +0.109 C 
ATOM     12  C   UNL     1       1.448  -5.604  -5.252  0.00  0.00    +0.210 C 
ATOM     13  O   UNL     1       2.314  -6.324  -4.801  0.00  0.00    -0.276 OA
ATOM     14  N   UNL     1       1.155  -4.439  -4.639  0.00  0.00    -0.311 N 
ATOM     15  H   UNL     1       0.463  -3.863  -5.000  0.00  0.00    +0.149 HD
ENDBRANCH   1  14
BRANCH   9  16
ATOM     16  C   UNL     1       2.643  -7.269   0.835  0.00  0.00    +0.090 C 
BRANCH  16  17
ATOM     17  C   UNL     1       2.318  -8.708   0.430  0.00  0.00    -0.051 C 
ATOM     18  C   UNL     1       2.630  -9.666   1.599  0.00  0.00    -0.016 C 
ATOM     19  C   UNL     1       1.246  -9.857   2.273  0.00  0.00    -0.020 C 
ATOM     20  C   UNL     1       0.296  -9.838   1.049  0.00  0.00    -0.078 C 
ATOM     21  N   UNL     1       0.879  -8.832   0.131  0.00  0.00    +0.383 N 
ATOM     22  H   UNL     1       0.426  -7.941   0.270  0.00  0.00    -0.081 HD
BRANCH  21  23
ATOM     23  C   UNL     1       0.699  -9.265  -1.261  0.00  0.00    -0.075 C 
BRANCH  23  24
ATOM     24  C   UNL     1      -0.792  -9.283  -1.601  0.00  0.00    -0.028 C 
ATOM     25  C   UNL     1      -0.985  -9.802  -3.027  0.00  0.00    +0.002 C 
ATOM     26  C   UNL     1      -2.476  -9.819  -3.367  0.00  0.00    +0.000 C 
ATOM     27  C   UNL     1      -3.041  -8.402  -3.259  0.00  0.00    +0.000 C 
ATOM     28  C   UNL     1      -2.849  -7.883  -1.833  0.00  0.00    +0.000 C 
ATOM     29  C   UNL     1      -1.357  -7.865  -1.493  0.00  0.00    +0.002 C 
ENDBRANCH  23  24
ENDBRANCH  21  23
ENDBRANCH  16  17
ENDBRANCH   9  16
TORSDOF 5
