REMARK  Name = ZINC20288659
REMARK  12 active torsions:
REMARK  status: ('A' for Active; 'I' for Inactive)
REMARK    1  A    between atoms: C_1  and  C_2
REMARK    2  A    between atoms: C_2  and  N_25
REMARK    3  A    between atoms: C_4  and  C_17
REMARK    4  A    between atoms: N_6  and  C_9
REMARK    5  A    between atoms: C_12  and  O_15
REMARK    6  A    between atoms: O_15  and  C_16
REMARK    7  A    between atoms: C_20  and  O_23
REMARK    8  A    between atoms: O_23  and  C_24
REMARK    9  A    between atoms: N_25  and  C_26
REMARK   10  A    between atoms: C_26  and  C_27
REMARK   11  A    between atoms: C_30  and  S_33
REMARK   12  A    between atoms: S_33  and  N_36
REMARK                            x       y       z     vdW  Elec       q    Type
REMARK                         _______ _______ _______ _____ _____    ______ ____
ROOT
ATOM      1  C   UNL     1      -0.667   1.428   0.086  0.00  0.00    +0.061 C 
ATOM      2  C   UNL     1      -0.333  -0.041   0.041  0.00  0.00    +0.015 C 
ATOM      3  C   UNL     1      -0.031  -0.717   1.208  0.00  0.00    +0.083 C 
ATOM      4  C   UNL     1       0.143  -0.139   2.555  0.00  0.00    +0.103 C 
ATOM      5  N   UNL     1       0.418  -1.128   3.366  0.00  0.00    -0.171 NA
ATOM      6  N   UNL     1       0.444  -2.334   2.664  0.00  0.00    -0.156 N 
ATOM      7  C   UNL     1       0.171  -2.117   1.363  0.00  0.00    +0.274 C 
ATOM      8  O   UNL     1       0.110  -2.961   0.484  0.00  0.00    -0.268 OA
ENDROOT
BRANCH   6   9
ATOM      9  C   UNL     1       0.709  -3.588   3.230  0.00  0.00    +0.061 A 
ATOM     10  C   UNL     1       0.714  -4.725   2.432  0.00  0.00    +0.029 A 
ATOM     11  C   UNL     1       0.975  -5.960   2.990  0.00  0.00    +0.047 A 
ATOM     12  C   UNL     1       1.232  -6.066   4.350  0.00  0.00    +0.120 A 
ATOM     13  C   UNL     1       1.227  -4.932   5.148  0.00  0.00    +0.047 A 
ATOM     14  C   UNL     1       0.972  -3.695   4.590  0.00  0.00    +0.029 A 
BRANCH  12  15
ATOM     15  O   UNL     1       1.489  -7.283   4.899  0.00  0.00    -0.495 OA
ATOM     16  C   UNL     1       1.745  -7.319   6.305  0.00  0.00    +0.277 C 
ENDBRANCH  12  15
ENDBRANCH   6   9
BRANCH   4  17
ATOM     17  C   UNL     1       0.027   1.291   2.921  0.00  0.00    +0.003 A 
ATOM     18  C   UNL     1      -0.958   1.707   3.817  0.00  0.00    +0.013 A 
ATOM     19  C   UNL     1      -1.062   3.039   4.154  0.00  0.00    +0.046 A 
ATOM     20  C   UNL     1      -0.189   3.968   3.603  0.00  0.00    +0.120 A 
ATOM     21  C   UNL     1       0.792   3.558   2.711  0.00  0.00    +0.046 A 
ATOM     22  C   UNL     1       0.907   2.226   2.373  0.00  0.00    +0.013 A 
BRANCH  20  23
ATOM     23  O   UNL     1      -0.296   5.280   3.937  0.00  0.00    -0.495 OA
ATOM     24  C   UNL     1       0.634   6.181   3.333  0.00  0.00    +0.277 C 
ENDBRANCH  20  23
ENDBRANCH   4  17
BRANCH   2  25
ATOM     25  N   UNL     1      -0.327  -0.696  -1.139  0.00  0.00    -0.343 N 
ATOM     26  H   UNL     1      -0.112  -1.641  -1.168  0.00  0.00    +0.146 HD
BRANCH  25  27
ATOM     27  C   UNL     1      -0.647   0.021  -2.376  0.00  0.00    +0.136 C 
BRANCH  27  28
ATOM     28  C   UNL     1      -0.572  -0.930  -3.542  0.00  0.00    -0.030 A 
ATOM     29  C   UNL     1       0.623  -1.103  -4.217  0.00  0.00    +0.007 A 
ATOM     30  C   UNL     1       0.692  -1.976  -5.287  0.00  0.00    +0.029 A 
ATOM     31  C   UNL     1      -0.432  -2.676  -5.681  0.00  0.00    +0.105 A 
ATOM     32  C   UNL     1      -1.626  -2.505  -5.005  0.00  0.00    +0.029 A 
ATOM     33  C   UNL     1      -1.695  -1.635  -3.933  0.00  0.00    +0.007 A 
BRANCH  31  34
ATOM     34  S   UNL     1      -0.344  -3.788  -7.045  0.00  0.00    +0.056 S 
ATOM     35  O   UNL     1      -1.665  -3.910  -7.556  0.00  0.00    -0.153 OA
ATOM     36  O   UNL     1       0.747  -3.359  -7.849  0.00  0.00    -0.153 OA
BRANCH  34  37
ATOM     37  N   UNL     1       0.068  -5.273  -6.441  0.00  0.00    -0.204 NA
ATOM     38  H   UNL     1      -0.235  -6.080  -6.886  0.00  0.00    +0.144 HD
ATOM     39  H   UNL     1       0.614  -5.337  -5.641  0.00  0.00    +0.144 HD
ENDBRANCH  34  37
ENDBRANCH  31  34
ENDBRANCH  27  28
ENDBRANCH  25  27
ENDBRANCH   2  25
TORSDOF 9
