REMARK  Name = ZINC58908240
REMARK  7 active torsions:
REMARK  status: ('A' for Active; 'I' for Inactive)
REMARK    1  A    between atoms: C_1  and  C_2
REMARK    2  A    between atoms: C_2  and  C_4
REMARK    3  A    between atoms: C_2  and  N_21
REMARK    4  A    between atoms: N_6  and  C_7
REMARK    5  A    between atoms: C_8  and  C_17
REMARK    6  A    between atoms: C_17  and  O_19
REMARK    7  A    between atoms: O_19  and  C_20
REMARK                            x       y       z     vdW  Elec       q    Type
REMARK                         _______ _______ _______ _____ _____    ______ ____
ROOT
ATOM      1  C   UNL     1      -1.412  -0.526   0.013  0.00  0.00    +0.238 C 
ATOM      2  O   UNL     1      -1.808  -1.223  -0.897  0.00  0.00    -0.273 OA
ATOM      3  N   UNL     1      -2.236  -0.217   1.033  0.00  0.00    -0.278 N 
ATOM      4  H   UNL     1      -1.920   0.341   1.761  0.00  0.00    +0.155 HD
ENDROOT
BRANCH   3   5
ATOM      5  C   UNL     1      -3.537  -0.697   1.043  0.00  0.00    +0.086 A 
ATOM      6  C   UNL     1      -4.518  -0.480   1.996  0.00  0.00    +0.091 A 
ATOM      7  C   UNL     1      -5.816  -1.101   1.774  0.00  0.00    -0.021 A 
ATOM      8  C   UNL     1      -5.888  -1.828   0.640  0.00  0.00    -0.004 A 
ATOM      9  S   UNL     1      -4.287  -1.668  -0.101  0.00  0.00    -0.077 S 
ATOM     10  C   UNL     1      -7.058  -2.607   0.125  0.00  0.00    +0.043 C 
ATOM     11  C   UNL     1      -8.310  -1.721   0.169  0.00  0.00    +0.005 C 
ATOM     12  C   UNL     1      -8.979  -1.890   1.530  0.00  0.00    +0.001 C 
ATOM     13  C   UNL     1      -7.926  -2.136   2.608  0.00  0.00    +0.005 C 
ATOM     14  C   UNL     1      -6.992  -0.935   2.725  0.00  0.00    +0.037 C 
BRANCH   6  15
ATOM     15  C   UNL     1      -4.260   0.341   3.181  0.00  0.00    +0.342 C 
ATOM     16  O   UNL     1      -4.472   1.538   3.150  0.00  0.00    -0.245 OA
BRANCH  15  17
ATOM     17  O   UNL     1      -3.786  -0.230   4.308  0.00  0.00    -0.464 OA
ATOM     18  C   UNL     1      -3.557   0.630   5.425  0.00  0.00    +0.280 C 
ENDBRANCH  15  17
ENDBRANCH   6  15
ENDBRANCH   3   5
BRANCH   1  20
ATOM     19  C   UNL     1      -0.019   1.526   0.010  0.00  0.00    +0.038 C 
ATOM     20  C   UNL     1       0.002  -0.004   0.002  0.00  0.00    +0.168 C 
BRANCH  20  21
ATOM     21  N   UNL     1       0.688  -0.476  -1.203  0.00  0.00    -0.222 N 
ATOM     22  C   UNL     1       0.295  -0.201  -2.460  0.00  0.00    +0.254 C 
ATOM     23  O   UNL     1      -0.670   0.468  -2.770  0.00  0.00    -0.270 OA
ATOM     24  C   UNL     1       1.234  -0.849  -3.400  0.00  0.00    +0.049 A 
ATOM     25  C   UNL     1       1.331  -0.912  -4.781  0.00  0.00    +0.014 A 
ATOM     26  C   UNL     1       2.366  -1.627  -5.364  0.00  0.00    +0.001 A 
ATOM     27  C   UNL     1       3.300  -2.276  -4.579  0.00  0.00    +0.001 A 
ATOM     28  C   UNL     1       3.215  -2.221  -3.196  0.00  0.00    +0.014 A 
ATOM     29  C   UNL     1       2.186  -1.510  -2.599  0.00  0.00    +0.049 A 
ATOM     30  C   UNL     1       1.797  -1.238  -1.199  0.00  0.00    +0.254 C 
ATOM     31  O   UNL     1       2.379  -1.637  -0.211  0.00  0.00    -0.270 OA
ENDBRANCH  20  21
ENDBRANCH   1  20
TORSDOF 5
