REMARK  Name = ZINC65182670
REMARK  8 active torsions:
REMARK  status: ('A' for Active; 'I' for Inactive)
REMARK    1  A    between atoms: C_1  and  C_2
REMARK    2  A    between atoms: C_7  and  C_13
REMARK    3  A    between atoms: C_9  and  C_12
REMARK    4  A    between atoms: C_16  and  C_19
REMARK    5  A    between atoms: C_19  and  C_20
REMARK    6  A    between atoms: C_20  and  N_21
REMARK    7  A    between atoms: N_21  and  C_22
REMARK    8  A    between atoms: C_23  and  C_25
REMARK                            x       y       z     vdW  Elec       q    Type
REMARK                         _______ _______ _______ _____ _____    ______ ____
ROOT
ATOM      1  C   UNL     1      -0.968  -6.202   2.289  0.00  0.00    +0.318 C 
ATOM      2  N   UNL     1      -0.958  -7.330   1.344  0.00  0.00    -0.291 N 
ATOM      3  C   UNL     1      -2.116  -7.243   0.608  0.00  0.00    +0.139 C 
ATOM      4  N   UNL     1      -2.825  -6.235   0.963  0.00  0.00    -0.072 NA
ATOM      5  O   UNL     1      -2.199  -5.514   2.011  0.00  0.00    -0.367 OA
ATOM      6  H   UNL     1      -0.266  -8.005   1.257  0.00  0.00    +0.151 HD
ENDROOT
BRANCH   1  13
ATOM      7  C   UNL     1      -0.085   0.799   2.061  0.00  0.00    +0.044 C 
ATOM      8  C   UNL     1      -0.031  -0.659   1.687  0.00  0.00    -0.050 A 
ATOM      9  C   UNL     1      -0.092  -1.019   0.333  0.00  0.00    +0.005 A 
ATOM     10  C   UNL     1      -0.050  -2.302  -0.083  0.00  0.00    +0.026 A 
ATOM     11  C   UNL     1       0.060  -3.361   0.861  0.00  0.00    +0.043 A 
ATOM     12  N   UNL     1       0.118  -4.662   0.711  0.00  0.00    -0.373 N 
ATOM     13  C   UNL     1       0.228  -5.281   2.036  0.00  0.00    +0.168 C 
ATOM     14  C   UNL     1       0.228  -4.140   3.029  0.00  0.00    -0.036 C 
ATOM     15  C   UNL     1       0.126  -3.007   2.297  0.00  0.00    -0.001 A 
ATOM     16  C   UNL     1       0.080  -1.587   2.664  0.00  0.00    +0.013 A 
ATOM     17  C   UNL     1       0.321  -4.244   4.529  0.00  0.00    +0.042 C 
ATOM     18  H   UNL     1       0.092  -5.136  -0.135  0.00  0.00    +0.160 HD
ENDBRANCH   1  13
BRANCH   3  19
ATOM     19  C   UNL     1      -2.503  -8.211  -0.481  0.00  0.00    +0.094 C 
BRANCH  19  20
ATOM     20  C   UNL     1      -3.851  -7.798  -1.074  0.00  0.00    +0.115 C 
BRANCH  20  21
ATOM     21  N   UNL     1      -4.228  -8.739  -2.132  0.00  0.00    -0.298 N 
ATOM     22  C   UNL     1      -5.013  -9.932  -1.806  0.00  0.00    +0.132 C 
ATOM     23  C   UNL     1      -3.851  -8.508  -3.405  0.00  0.00    +0.282 C 
ATOM     24  O   UNL     1      -3.118  -7.571  -3.662  0.00  0.00    -0.267 OA
BRANCH  23  25
ATOM     25  C   UNL     1      -4.324  -9.384  -4.480  0.00  0.00    +0.191 A 
ATOM     26  C   UNL     1      -3.928  -9.338  -5.787  0.00  0.00    +0.056 A 
ATOM     27  C   UNL     1      -4.629 -10.350  -6.458  0.00  0.00    +0.058 A 
ATOM     28  C   UNL     1      -5.415 -10.964  -5.543  0.00  0.00    +0.171 A 
ATOM     29  O   UNL     1      -5.224 -10.382  -4.352  0.00  0.00    -0.444 OA
ATOM     30 BR   UNL     1      -6.585 -12.409  -5.888  0.00  0.00    -0.008 Br
ENDBRANCH  23  25
ENDBRANCH  20  21
ENDBRANCH  19  20
ENDBRANCH   3  19
TORSDOF 5
