REMARK  Name = ZINC39243136
REMARK  8 active torsions:
REMARK  status: ('A' for Active; 'I' for Inactive)
REMARK    1  A    between atoms: C_1  and  O_2
REMARK    2  A    between atoms: O_2  and  C_3
REMARK    3  A    between atoms: C_9  and  C_12
REMARK    4  A    between atoms: C_12  and  C_13
REMARK    5  A    between atoms: C_13  and  N_14
REMARK    6  A    between atoms: C_15  and  C_17
REMARK    7  A    between atoms: C_22  and  C_31
REMARK    8  A    between atoms: C_24  and  C_27
REMARK                            x       y       z     vdW  Elec       q    Type
REMARK                         _______ _______ _______ _____ _____    ______ ____
ROOT
ATOM      1  C   UNL     1      -2.429  -8.487  -0.823  0.00  0.00    +0.185 C 
ATOM      2  C   UNL     1      -1.586  -9.677  -1.220  0.00  0.00    +0.047 C 
ATOM      3  C   UNL     1      -2.428 -10.595  -1.737  0.00  0.00    +0.138 C 
ATOM      4  N   UNL     1      -2.152 -11.827  -2.232  0.00  0.00    -0.231 NA
ATOM      5  C   UNL     1      -3.110 -12.598  -2.702  0.00  0.00    +0.075 C 
ATOM      6  C   UNL     1      -4.454 -12.149  -2.697  0.00  0.00    +0.057 C 
ATOM      7  C   UNL     1      -4.745 -10.927  -2.208  0.00  0.00    +0.133 C 
ATOM      8  N   UNL     1      -3.736 -10.131  -1.720  0.00  0.00    -0.213 N 
ATOM      9  N   UNL     1      -3.805  -8.871  -1.182  0.00  0.00    -0.218 NA
ATOM     10  H   UNL     1      -4.409  -8.854  -0.373  0.00  0.00    +0.146 HD
ENDROOT
BRANCH   5  11
ATOM     11  C   UNL     1      -2.783 -13.939  -3.237  0.00  0.00    +0.001 A 
ATOM     12  C   UNL     1      -3.794 -14.758  -3.741  0.00  0.00    +0.013 A 
ATOM     13  C   UNL     1      -3.484 -16.006  -4.238  0.00  0.00    +0.039 A 
ATOM     14  C   UNL     1      -2.170 -16.448  -4.237  0.00  0.00    +0.123 A 
ATOM     15  C   UNL     1      -1.162 -15.638  -3.738  0.00  0.00    +0.039 A 
ATOM     16  C   UNL     1      -1.461 -14.386  -3.244  0.00  0.00    +0.013 A 
ATOM     17  F   UNL     1      -1.871 -17.672  -4.725  0.00  0.00    -0.205 F 
ENDBRANCH   5  11
BRANCH   1  19
ATOM     18  N   UNL     1      -0.765  -6.763  -1.437  0.00  0.00    -0.313 N 
ATOM     19  C   UNL     1      -2.007  -7.262  -1.593  0.00  0.00    +0.236 C 
ATOM     20  O   UNL     1      -2.785  -6.726  -2.353  0.00  0.00    -0.274 OA
ATOM     21  H   UNL     1      -0.142  -7.192  -0.829  0.00  0.00    +0.149 HD
BRANCH  18  22
ATOM     22  C   UNL     1      -0.354  -5.573  -2.186  0.00  0.00    +0.109 C 
BRANCH  22  23
ATOM     23  C   UNL     1       1.091  -5.218  -1.828  0.00  0.00    +0.056 C 
BRANCH  23  30
ATOM     24  C   UNL     1       0.606  -0.608  -1.056  0.00  0.00    +0.121 A 
ATOM     25  C   UNL     1       1.169   0.167  -2.067  0.00  0.00    +0.047 A 
ATOM     26  C   UNL     1       1.785  -0.428  -3.146  0.00  0.00    +0.030 A 
ATOM     27  C   UNL     1       1.849  -1.815  -3.233  0.00  0.00    +0.047 A 
ATOM     28  N   UNL     1       2.383  -2.682  -4.162  0.00  0.00    -0.360 N 
ATOM     29  C   UNL     1       2.173  -3.974  -3.767  0.00  0.00    +0.087 A 
ATOM     30  C   UNL     1       1.513  -3.994  -2.598  0.00  0.00    -0.021 A 
ATOM     31  C   UNL     1       1.281  -2.599  -2.213  0.00  0.00    +0.006 A 
ATOM     32  C   UNL     1       0.664  -1.986  -1.121  0.00  0.00    +0.056 A 
ATOM     33  H   UNL     1       2.839  -2.415  -4.976  0.00  0.00    +0.165 HD
BRANCH  24  35
ATOM     34  C   UNL     1      -0.017   1.425   0.010  0.00  0.00    +0.277 C 
ATOM     35  O   UNL     1       0.002  -0.004   0.002  0.00  0.00    -0.495 OA
ENDBRANCH  24  35
ENDBRANCH  23  30
ENDBRANCH  22  23
ENDBRANCH  18  22
ENDBRANCH   1  19
BRANCH   7  36
ATOM     36  C   UNL     1      -6.170 -10.435  -2.197  0.00  0.00    +0.432 C 
ATOM     37  F   UNL     1      -7.006 -11.416  -2.741  0.00  0.00    -0.165 F 
ATOM     38  F   UNL     1      -6.560 -10.168  -0.881  0.00  0.00    -0.165 F 
ATOM     39  F   UNL     1      -6.266  -9.266  -2.959  0.00  0.00    -0.165 F 
ENDBRANCH   7  36
TORSDOF 7
