REMARK  Name = ZINC09777247
REMARK  13 active torsions:
REMARK  status: ('A' for Active; 'I' for Inactive)
REMARK    1  A    between atoms: C_1  and  C_2
REMARK    2  A    between atoms: C_7  and  N_12
REMARK    3  A    between atoms: C_9  and  C_11
REMARK    4  A    between atoms: C_13  and  C_15
REMARK    5  A    between atoms: C_23  and  C_35
REMARK    6  A    between atoms: N_29  and  C_30
REMARK    7  A    between atoms: C_30  and  C_31
REMARK    8  A    between atoms: C_31  and  C_32
REMARK    9  A    between atoms: C_32  and  C_33
REMARK   10  A    between atoms: C_32  and  C_34
REMARK   11  A    between atoms: N_37  and  C_38
REMARK   12  A    between atoms: C_42  and  S_44
REMARK   13  A    between atoms: S_44  and  C_45
REMARK                            x       y       z     vdW  Elec       q    Type
REMARK                         _______ _______ _______ _____ _____    ______ ____
ROOT
ATOM      1  C   UNL     1      -6.320   0.674   1.997  0.00  0.00    +0.198 C 
ATOM      2  C   UNL     1      -5.097  -0.188   1.942  0.00  0.00    +0.127 C 
ATOM      3  C   UNL     1      -3.937   0.383   2.738  0.00  0.00    +0.009 C 
ATOM      4  C   UNL     1      -2.945  -0.485   2.601  0.00  0.00    +0.004 C 
ATOM      5  C   UNL     1      -3.490  -1.565   1.659  0.00  0.00    +0.155 C 
ATOM      6  O   UNL     1      -4.930  -1.583   2.037  0.00  0.00    -0.358 OA
ATOM      7  C   UNL     1      -3.522  -0.812   0.272  0.00  0.00    +0.123 C 
ATOM      8  C   UNL     1      -4.790  -0.006   0.401  0.00  0.00    +0.128 C 
ATOM      9  C   UNL     1      -4.928   1.457   0.277  0.00  0.00    +0.223 C 
ATOM     10  O   UNL     1      -4.293   2.182  -0.459  0.00  0.00    -0.275 OA
ATOM     11  N   UNL     1      -5.913   1.841   1.153  0.00  0.00    -0.287 N 
ENDROOT
BRANCH   1  13
ATOM     12  N   UNL     1      -7.388   0.341   4.203  0.00  0.00    -0.311 N 
ATOM     13  C   UNL     1      -6.611   1.106   3.411  0.00  0.00    +0.237 C 
ATOM     14  O   UNL     1      -6.146   2.142   3.837  0.00  0.00    -0.274 OA
ATOM     15  H   UNL     1      -7.760  -0.488   3.863  0.00  0.00    +0.149 HD
BRANCH  12  21
ATOM     16  C   UNL     1      -9.556  -2.404   6.700  0.00  0.00    +0.008 C 
ATOM     17  C   UNL     1      -9.226  -1.176   5.849  0.00  0.00    -0.009 C 
ATOM     18  C   UNL     1     -10.419  -0.217   5.854  0.00  0.00    +0.003 C 
ATOM     19  C   UNL     1     -10.089   1.011   5.003  0.00  0.00    +0.002 C 
ATOM     20  C   UNL     1      -8.863   1.719   5.583  0.00  0.00    +0.022 C 
ATOM     21  C   UNL     1      -7.671   0.760   5.578  0.00  0.00    +0.076 C 
ATOM     22  C   UNL     1      -8.000  -0.468   6.429  0.00  0.00    +0.009 C 
ATOM     23  C   UNL     1      -6.808  -1.427   6.423  0.00  0.00    +0.009 C 
ENDBRANCH  12  21
ENDBRANCH   1  13
BRANCH   7  24
ATOM     24  C   UNL     1      -2.322   0.086   0.117  0.00  0.00    +0.224 C 
ATOM     25  O   UNL     1      -2.314   1.182   0.636  0.00  0.00    -0.275 OA
ATOM     26  N   UNL     1      -1.259  -0.329  -0.600  0.00  0.00    -0.285 N 
ATOM     27  H   UNL     1      -1.294  -1.172  -1.077  0.00  0.00    +0.155 HD
BRANCH  26  28
ATOM     28  C   UNL     1      -0.103   0.458  -0.654  0.00  0.00    +0.034 A 
ATOM     29  C   UNL     1       0.672   0.475  -1.808  0.00  0.00    +0.023 A 
ATOM     30  C   UNL     1       1.814   1.251  -1.863  0.00  0.00    +0.003 A 
ATOM     31  C   UNL     1       2.189   2.013  -0.773  0.00  0.00    +0.015 A 
ATOM     32  C   UNL     1       1.419   2.000   0.384  0.00  0.00    +0.009 A 
ATOM     33  C   UNL     1       0.270   1.221   0.442  0.00  0.00    +0.038 A 
BRANCH  32  34
ATOM     34  S   UNL     1       1.897   2.971   1.774  0.00  0.00    -0.129 S 
ATOM     35  C   UNL     1       3.421   3.793   1.231  0.00  0.00    +0.090 C 
ENDBRANCH  32  34
ENDBRANCH  26  28
ENDBRANCH   7  24
BRANCH  11  36
ATOM     36  C   UNL     1      -6.480   3.189   1.248  0.00  0.00    +0.109 C 
BRANCH  36  37
ATOM     37  C   UNL     1      -7.742   3.273   0.386  0.00  0.00    +0.022 C 
BRANCH  37  38
ATOM     38  C   UNL     1      -8.269   4.709   0.392  0.00  0.00    -0.016 C 
ATOM     39  C   UNL     1      -9.456   4.821  -0.567  0.00  0.00    +0.007 C 
ATOM     40  C   UNL     1      -8.719   5.082   1.806  0.00  0.00    +0.007 C 
ENDBRANCH  37  38
ENDBRANCH  36  37
ENDBRANCH  11  36
TORSDOF 8
