REMARK  Name = ZINC08091589
REMARK  4 active torsions:
REMARK  status: ('A' for Active; 'I' for Inactive)
REMARK    1  A    between atoms: C_1  and  N_2
REMARK    2  A    between atoms: C_6  and  C_7
REMARK    3  A    between atoms: C_10  and  O_17
REMARK    4  A    between atoms: O_17  and  C_18
REMARK                            x       y       z     vdW  Elec       q    Type
REMARK                         _______ _______ _______ _____ _____    ______ ____
ROOT
ATOM      1  C   UNL     1       1.247   0.505   4.773  0.00  0.00    -0.015 A 
ATOM      2  C   UNL     1       2.105   0.354   3.684  0.00  0.00    +0.012 A 
ATOM      3  C   UNL     1       1.760   0.851   2.440  0.00  0.00    +0.047 A 
ATOM      4  C   UNL     1       0.570   1.517   2.232  0.00  0.00    +0.128 A 
ATOM      5  C   UNL     1      -0.342   1.703   3.293  0.00  0.00    +0.024 A 
ATOM      6  C   UNL     1      -0.025   1.204   4.578  0.00  0.00    -0.007 A 
ATOM      7  C   UNL     1      -0.925   1.387   5.633  0.00  0.00    +0.009 A 
ATOM      8  C   UNL     1      -2.100   2.043   5.410  0.00  0.00    +0.001 A 
ATOM      9  C   UNL     1      -2.415   2.535   4.146  0.00  0.00    +0.001 A 
ATOM     10  C   UNL     1      -1.560   2.374   3.098  0.00  0.00    +0.012 A 
ENDROOT
BRANCH   1  16
ATOM     11  C   UNL     1       3.417  -4.508   4.981  0.00  0.00    +0.143 C 
ATOM     12  N   UNL     1       3.018  -3.287   5.684  0.00  0.00    -0.224 N 
ATOM     13  C   UNL     1       2.395  -2.234   5.117  0.00  0.00    +0.268 C 
ATOM     14  O   UNL     1       2.067  -2.121   3.950  0.00  0.00    -0.268 OA
ATOM     15  C   UNL     1       2.197  -1.249   6.188  0.00  0.00    +0.098 C 
ATOM     16  C   UNL     1       1.611  -0.025   6.087  0.00  0.00    +0.037 C 
ATOM     17  N   UNL     1       2.736  -1.843   7.338  0.00  0.00    -0.265 N 
ATOM     18  C   UNL     1       3.211  -3.052   6.991  0.00  0.00    +0.313 C 
ATOM     19  O   UNL     1       3.745  -3.829   7.760  0.00  0.00    -0.252 OA
ATOM     20  H   UNL     1       2.761  -1.451   8.226  0.00  0.00    +0.157 HD
ENDBRANCH   1  16
BRANCH   4  21
ATOM     21  O   UNL     1       0.272   1.992   0.997  0.00  0.00    -0.495 OA
ATOM     22  C   UNL     1       1.237   1.772  -0.033  0.00  0.00    +0.277 C 
ENDBRANCH   4  21
TORSDOF 2
