REMARK  Name = ZINC12501497
REMARK  11 active torsions:
REMARK  status: ('A' for Active; 'I' for Inactive)
REMARK    1  A    between atoms: C_1  and  C_2
REMARK    2  A    between atoms: C_5  and  C_27
REMARK    3  A    between atoms: C_6  and  O_8
REMARK    4  A    between atoms: O_8  and  C_9
REMARK    5  A    between atoms: C_9  and  C_10
REMARK    6  A    between atoms: N_12  and  N_13
REMARK    7  A    between atoms: N_13  and  C_14
REMARK    8  A    between atoms: C_14  and  N_16
REMARK    9  A    between atoms: C_17  and  C_19
REMARK   10  A    between atoms: C_27  and  C_28
REMARK   11  A    between atoms: C_27  and  C_29
REMARK                            x       y       z     vdW  Elec       q    Type
REMARK                         _______ _______ _______ _____ _____    ______ ____
ROOT
ATOM      1  C   UNL     1       3.518  -1.061  -0.037  0.00  0.00    +0.267 C 
ATOM      2  O   UNL     1       4.560  -0.441  -0.044  0.00  0.00    -0.271 OA
ATOM      3  N   UNL     1       2.342  -0.403  -0.022  0.00  0.00    -0.232 N 
ATOM      4  H   UNL     1       1.509  -0.900  -0.017  0.00  0.00    +0.173 HD
ENDROOT
BRANCH   3   5
ATOM      5  N   UNL     1       2.323   0.998  -0.015  0.00  0.00    -0.245 N 
ATOM      6  H   UNL     1       3.156   1.494  -0.020  0.00  0.00    +0.172 HD
BRANCH   5   7
ATOM      7  C   UNL     1       1.147   1.655   0.000  0.00  0.00    +0.153 C 
ATOM      8  S   UNL     1       1.124   3.367   0.009  0.00  0.00    -0.017 S 
BRANCH   7   9
ATOM      9  N   UNL     1      -0.011   0.966   0.007  0.00  0.00    -0.263 N 
ATOM     10  C   UNL     1      -1.187   1.624   0.017  0.00  0.00    +0.251 C 
ATOM     11  O   UNL     1      -1.204   2.839   0.023  0.00  0.00    -0.270 OA
ATOM     12  H   UNL     1       0.002  -0.004   0.002  0.00  0.00    +0.157 HD
BRANCH  10  13
ATOM     13  C   UNL     1      -2.456   0.868   0.018  0.00  0.00    +0.055 A 
ATOM     14  C   UNL     1      -2.440  -0.529   0.011  0.00  0.00    +0.016 A 
ATOM     15  C   UNL     1      -3.628  -1.228   0.013  0.00  0.00    +0.021 A 
ATOM     16  C   UNL     1      -4.836  -0.550   0.022  0.00  0.00    +0.042 A 
ATOM     17  C   UNL     1      -4.860   0.834   0.029  0.00  0.00    +0.040 A 
ATOM     18  C   UNL     1      -3.677   1.548   0.034  0.00  0.00    +0.054 A 
ATOM     19 CL   UNL     1      -3.708   3.283   0.051  0.00  0.00    -0.083 Cl
ATOM     20 CL   UNL     1      -6.327  -1.439   0.024  0.00  0.00    -0.083 Cl
ENDBRANCH  10  13
ENDBRANCH   7   9
ENDBRANCH   5   7
ENDBRANCH   3   5
BRANCH   1  21
ATOM     21  C   UNL     1       3.539  -2.568  -0.045  0.00  0.00    +0.326 C 
BRANCH  21  22
ATOM     22  O   UNL     1       4.892  -3.026  -0.061  0.00  0.00    -0.482 OA
BRANCH  22  28
ATOM     23  C   UNL     1       3.022  -7.534  -0.066  0.00  0.00    +0.044 C 
ATOM     24  C   UNL     1       4.203  -6.598  -0.073  0.00  0.00    -0.047 A 
ATOM     25  C   UNL     1       5.488  -7.108  -0.089  0.00  0.00    +0.004 A 
ATOM     26  C   UNL     1       6.574  -6.252  -0.094  0.00  0.00    +0.008 A 
ATOM     27  C   UNL     1       6.377  -4.885  -0.085  0.00  0.00    -0.003 A 
ATOM     28  C   UNL     1       5.088  -4.371  -0.070  0.00  0.00    +0.125 A 
ATOM     29  C   UNL     1       4.001  -5.232  -0.059  0.00  0.00    +0.049 A 
BRANCH  27  30
ATOM     30  C   UNL     1       7.561  -3.952  -0.092  0.00  0.00    +0.016 C 
ATOM     31  C   UNL     1       8.420  -4.210   1.148  0.00  0.00    +0.012 C 
ATOM     32  C   UNL     1       8.395  -4.197  -1.350  0.00  0.00    +0.012 C 
ENDBRANCH  27  30
ENDBRANCH  22  28
ENDBRANCH  21  22
ENDBRANCH   1  21
TORSDOF 8
