REMARK  Name = ZINC52496180
REMARK  7 active torsions:
REMARK  status: ('A' for Active; 'I' for Inactive)
REMARK    1  A    between atoms: C_1  and  N_2
REMARK    2  A    between atoms: N_2  and  C_3
REMARK    3  A    between atoms: N_2  and  C_4
REMARK    4  A    between atoms: C_4  and  C_6
REMARK    5  A    between atoms: C_4  and  C_21
REMARK    6  A    between atoms: C_6  and  N_7
REMARK    7  A    between atoms: C_14  and  C_16
REMARK                            x       y       z     vdW  Elec       q    Type
REMARK                         _______ _______ _______ _____ _____    ______ ____
ROOT
ATOM      1  N   UNL     1       0.073  -2.014   0.994  0.00  0.00    -0.300 N 
ATOM      2  C   UNL     1       0.492  -3.276   1.209  0.00  0.00    +0.305 C 
ATOM      3  O   UNL     1       0.136  -4.170   0.465  0.00  0.00    -0.252 OA
ATOM      4  N   UNL     1       1.304  -3.549   2.249  0.00  0.00    -0.247 N 
ATOM      5  C   UNL     1       1.736  -4.852   2.471  0.00  0.00    +0.189 A 
ATOM      6  N   UNL     1       1.481  -5.962   1.792  0.00  0.00    -0.125 NA
ATOM      7  N   UNL     1       1.959  -7.078   2.132  0.00  0.00    -0.140 NA
ATOM      8  C   UNL     1       2.748  -7.208   3.192  0.00  0.00    +0.134 A 
ATOM      9  S   UNL     1       2.803  -5.508   3.751  0.00  0.00    -0.030 S 
ATOM     10  H   UNL     1       0.356  -1.301   1.588  0.00  0.00    +0.150 HD
ATOM     11  H   UNL     1       1.588  -2.836   2.843  0.00  0.00    +0.158 HD
ENDROOT
BRANCH   8  12
ATOM     12  C   UNL     1       3.400  -8.413   3.748  0.00  0.00    +0.016 A 
ATOM     13  C   UNL     1       3.234  -9.658   3.144  0.00  0.00    +0.018 A 
ATOM     14  C   UNL     1       3.846 -10.735   3.683  0.00  0.00    +0.046 A 
ATOM     15  S   UNL     1       4.696 -10.028   5.084  0.00  0.00    -0.104 S 
ATOM     16  C   UNL     1       4.186  -8.332   4.866  0.00  0.00    +0.055 A 
ENDBRANCH   8  12
BRANCH   1  17
ATOM     17  C   UNL     1      -0.810  -1.717  -0.136  0.00  0.00    +0.095 C 
BRANCH  17  18
ATOM     18  C   UNL     1      -1.238  -0.249  -0.078  0.00  0.00    -0.020 C 
BRANCH  18  19
ATOM     19  C   UNL     1      -2.079  -0.019   1.150  0.00  0.00    -0.052 A 
ATOM     20  C   UNL     1      -1.526   0.550   2.283  0.00  0.00    +0.009 A 
ATOM     21  C   UNL     1      -2.311   0.743   3.371  0.00  0.00    +0.045 A 
ATOM     22  S   UNL     1      -3.884   0.113   2.809  0.00  0.00    -0.105 S 
ATOM     23  C   UNL     1      -3.391  -0.361   1.160  0.00  0.00    +0.047 A 
ENDBRANCH  18  19
BRANCH  18  25
ATOM     24  C   UNL     1      -2.470   1.477  -1.200  0.00  0.00    -0.096 C 
ATOM     25  N   UNL     1      -2.021   0.081  -1.277  0.00  0.00    +0.382 N 
ATOM     26  C   UNL     1      -1.186  -0.100  -2.472  0.00  0.00    -0.096 C 
ATOM     27  H   UNL     1      -2.824  -0.528  -1.332  0.00  0.00    -0.082 HD
ENDBRANCH  18  25
ENDBRANCH  17  18
ENDBRANCH   1  17
TORSDOF 5
