REMARK  Name = ZINC06258526
REMARK  6 active torsions:
REMARK  status: ('A' for Active; 'I' for Inactive)
REMARK    1  A    between atoms: C_1  and  C_2
REMARK    2  A    between atoms: C_2  and  C_3
REMARK    3  A    between atoms: C_3  and  N_4
REMARK    4  A    between atoms: C_13  and  C_15
REMARK    5  A    between atoms: N_17  and  N_18
REMARK    6  A    between atoms: C_19  and  C_21
REMARK                            x       y       z     vdW  Elec       q    Type
REMARK                         _______ _______ _______ _____ _____    ______ ____
ROOT
ATOM      1  C   UNL     1       1.483   6.026   2.575  0.00  0.00    +0.281 C 
ATOM      2  O   UNL     1       1.570   7.237   2.640  0.00  0.00    -0.267 OA
ATOM      3  N   UNL     1       2.447   5.251   3.110  0.00  0.00    -0.229 N 
ATOM      4  H   UNL     1       2.377   4.285   3.058  0.00  0.00    +0.173 HD
ENDROOT
BRANCH   1  14
ATOM      5  N   UNL     1      -0.755   3.484   1.277  0.00  0.00    -0.228 N 
ATOM      6  C   UNL     1      -1.795   4.112   0.692  0.00  0.00    +0.275 A 
ATOM      7  O   UNL     1      -2.693   3.475   0.171  0.00  0.00    -0.266 OA
ATOM      8  C   UNL     1      -1.823   5.581   0.702  0.00  0.00    +0.050 A 
ATOM      9  C   UNL     1      -2.852   6.322   0.130  0.00  0.00    +0.014 A 
ATOM     10  C   UNL     1      -2.800   7.699   0.177  0.00  0.00    +0.001 A 
ATOM     11  C   UNL     1      -1.735   8.348   0.787  0.00  0.00    +0.001 A 
ATOM     12  C   UNL     1      -0.705   7.632   1.359  0.00  0.00    +0.011 A 
ATOM     13  C   UNL     1      -0.738   6.242   1.323  0.00  0.00    +0.020 A 
ATOM     14  C   UNL     1       0.320   5.404   1.910  0.00  0.00    +0.155 A 
ATOM     15  N   UNL     1       0.218   4.100   1.835  0.00  0.00    -0.163 NA
BRANCH   5  16
ATOM     16  C   UNL     1      -0.735   2.019   1.269  0.00  0.00    +0.147 C 
BRANCH  16  18
ATOM     17  C   UNL     1       0.002  -0.004   0.002  0.00  0.00    +0.005 C 
ATOM     18  C   UNL     1      -0.019   1.526   0.010  0.00  0.00    +0.020 C 
ENDBRANCH  16  18
ENDBRANCH   5  16
ENDBRANCH   1  14
BRANCH   3  19
ATOM     19  N   UNL     1       3.550   5.841   3.741  0.00  0.00    -0.230 N 
ATOM     20  C   UNL     1       4.514   5.066   4.276  0.00  0.00    +0.260 C 
ATOM     21  O   UNL     1       4.427   3.855   4.210  0.00  0.00    -0.269 OA
ATOM     22  H   UNL     1       3.620   6.807   3.793  0.00  0.00    +0.173 HD
BRANCH  20  23
ATOM     23  C   UNL     1       5.678   5.688   4.941  0.00  0.00    +0.038 A 
ATOM     24  C   UNL     1       5.784   7.078   5.013  0.00  0.00    +0.014 A 
ATOM     25  C   UNL     1       6.869   7.653   5.639  0.00  0.00    +0.021 A 
ATOM     26  C   UNL     1       7.859   6.854   6.188  0.00  0.00    +0.041 A 
ATOM     27  C   UNL     1       7.762   5.474   6.116  0.00  0.00    +0.021 A 
ATOM     28  C   UNL     1       6.678   4.888   5.496  0.00  0.00    +0.014 A 
ATOM     29 CL   UNL     1       9.226   7.585   6.970  0.00  0.00    -0.084 Cl
ENDBRANCH  20  23
ENDBRANCH   3  19
TORSDOF 5
