REMARK  Name = ZINC09191775
REMARK  10 active torsions:
REMARK  status: ('A' for Active; 'I' for Inactive)
REMARK    1  A    between atoms: C_1  and  C_2
REMARK    2  A    between atoms: C_2  and  C_3
REMARK    3  A    between atoms: C_5  and  C_37
REMARK    4  A    between atoms: C_7  and  O_9
REMARK    5  A    between atoms: O_9  and  C_10
REMARK    6  A    between atoms: C_10  and  C_11
REMARK    7  A    between atoms: C_11  and  O_12
REMARK    8  A    between atoms: O_12  and  C_13
REMARK    9  A    between atoms: C_16  and  C_19
REMARK   10  A    between atoms: C_29  and  C_31
REMARK                            x       y       z     vdW  Elec       q    Type
REMARK                         _______ _______ _______ _____ _____    ______ ____
ROOT
ATOM      1  C   UNL     1      -5.721  -4.343  -5.438  0.00  0.00    +0.121 A 
ATOM      2  C   UNL     1      -6.586  -3.391  -5.969  0.00  0.00    +0.046 A 
ATOM      3  C   UNL     1      -6.911  -3.423  -7.295  0.00  0.00    +0.011 A 
ATOM      4  C   UNL     1      -6.370  -4.418  -8.123  0.00  0.00    -0.024 A 
ATOM      5  C   UNL     1      -5.498  -5.374  -7.582  0.00  0.00    +0.011 A 
ATOM      6  C   UNL     1      -5.177  -5.329  -6.255  0.00  0.00    +0.046 A 
ENDROOT
BRANCH   4   7
ATOM      7  C   UNL     1      -6.715  -4.458  -9.546  0.00  0.00    +0.024 C 
ATOM      8  C   UNL     1      -5.766  -4.824 -10.474  0.00  0.00    +0.081 C 
ATOM      9  C   UNL     1      -6.114  -5.055 -11.904  0.00  0.00    +0.153 C 
ATOM     10  N   UNL     1      -7.053  -4.395 -12.530  0.00  0.00    -0.283 NA
ATOM     11  N   UNL     1      -5.331  -6.057 -12.517  0.00  0.00    -0.152 N 
ATOM     12  C   UNL     1      -4.098  -6.328 -11.963  0.00  0.00    +0.181 C 
ATOM     13  N   UNL     1      -3.590  -5.831 -10.863  0.00  0.00    -0.152 NA
ATOM     14  C   UNL     1      -4.339  -5.003 -10.105  0.00  0.00    +0.273 C 
ATOM     15  O   UNL     1      -3.862  -4.423  -9.143  0.00  0.00    -0.268 OA
ATOM     16  S   UNL     1      -3.428  -7.512 -13.101  0.00  0.00    -0.033 S 
ATOM     17  C   UNL     1      -4.854  -7.644 -14.171  0.00  0.00    +0.131 C 
ATOM     18  N   UNL     1      -5.686  -6.786 -13.632  0.00  0.00    -0.164 NA
ATOM     19  H   UNL     1      -7.240  -4.585 -13.463  0.00  0.00    +0.188 HD
BRANCH  17  20
ATOM     20  C   UNL     1      -5.046  -8.502 -15.361  0.00  0.00    +0.027 A 
ATOM     21  C   UNL     1      -4.032  -9.369 -15.784  0.00  0.00    +0.013 A 
ATOM     22  C   UNL     1      -4.262 -10.150 -16.902  0.00  0.00    +0.020 A 
ATOM     23  C   UNL     1      -5.475 -10.052 -17.560  0.00  0.00    +0.111 A 
ATOM     24  N   UNL     1      -6.412  -9.226 -17.138  0.00  0.00    -0.263 NA
ATOM     25  C   UNL     1      -6.243  -8.466 -16.076  0.00  0.00    +0.121 A 
ENDBRANCH  17  20
ENDBRANCH   4   7
BRANCH   1  26
ATOM     26  O   UNL     1      -5.402  -4.306  -4.120  0.00  0.00    -0.489 OA
BRANCH  26  27
ATOM     27  C   UNL     1      -5.996  -3.268  -3.338  0.00  0.00    +0.270 C 
BRANCH  27  28
ATOM     28  C   UNL     1      -5.522  -3.388  -1.888  0.00  0.00    +0.270 C 
BRANCH  28  29
ATOM     29  O   UNL     1      -4.115  -3.151  -1.825  0.00  0.00    -0.489 OA
BRANCH  29  34
ATOM     30  C   UNL     1      -1.577  -3.071   0.780  0.00  0.00    -0.044 A 
ATOM     31  C   UNL     1      -2.343  -3.361   1.894  0.00  0.00    +0.007 A 
ATOM     32  C   UNL     1      -3.702  -3.580   1.764  0.00  0.00    -0.047 A 
ATOM     33  C   UNL     1      -4.298  -3.510   0.519  0.00  0.00    +0.049 A 
ATOM     34  C   UNL     1      -3.531  -3.220  -0.600  0.00  0.00    +0.121 A 
ATOM     35  C   UNL     1      -2.169  -2.994  -0.465  0.00  0.00    +0.049 A 
ATOM     36  C   UNL     1      -4.534  -3.895   2.980  0.00  0.00    +0.044 C 
BRANCH  30  38
ATOM     37  C   UNL     1       0.159  -1.346   1.179  0.00  0.00    +0.009 C 
ATOM     38  C   UNL     1      -0.096  -2.833   0.926  0.00  0.00    +0.032 C 
ENDBRANCH  30  38
ENDBRANCH  29  34
ENDBRANCH  28  29
ENDBRANCH  27  28
ENDBRANCH  26  27
ENDBRANCH   1  26
TORSDOF 8
