REMARK  Name = ZINC14542173
REMARK  11 active torsions:
REMARK  status: ('A' for Active; 'I' for Inactive)
REMARK    1  A    between atoms: C_1  and  C_2
REMARK    2  A    between atoms: C_2  and  N_3
REMARK    3  A    between atoms: C_4  and  C_33
REMARK    4  A    between atoms: C_5  and  C_9
REMARK    5  A    between atoms: C_6  and  C_8
REMARK    6  A    between atoms: C_9  and  N_66
REMARK    7  A    between atoms: C_14  and  C_26
REMARK    8  A    between atoms: C_16  and  C_17
REMARK    9  A    between atoms: C_19  and  C_23
REMARK   10  A    between atoms: C_23  and  C_24
REMARK   11  A    between atoms: C_23  and  C_25
REMARK                            x       y       z     vdW  Elec       q    Type
REMARK                         _______ _______ _______ _____ _____    ______ ____
ROOT
ATOM      1  C   UNL     1      -2.747   5.190   2.259  0.00  0.00    -0.056 C 
ATOM      2  C   UNL     1      -3.564   4.730   1.045  0.00  0.00    +0.105 C 
ATOM      3  N   UNL     1      -2.891   3.571   0.454  0.00  0.00    -0.329 N 
ATOM      4  C   UNL     1      -1.592   3.228   0.733  0.00  0.00    +0.030 A 
ATOM      5  C   UNL     1      -1.310   2.116   0.020  0.00  0.00    +0.091 A 
ATOM      6  N   UNL     1      -2.415   1.781  -0.677  0.00  0.00    -0.226 NA
ATOM      7  C   UNL     1      -3.371   2.652  -0.422  0.00  0.00    +0.159 A 
ATOM      8  C   UNL     1      -0.704   4.017   1.661  0.00  0.00    -0.022 C 
ATOM      9  N   UNL     1      -1.331   5.348   1.858  0.00  0.00    +0.387 N 
ATOM     10  H   UNL     1      -1.292   5.869   0.974  0.00  0.00    -0.081 HD
ENDROOT
BRANCH   7  11
ATOM     11  C   UNL     1      -4.730   2.632  -0.992  0.00  0.00    +0.101 A 
ATOM     12  C   UNL     1      -5.150   1.904  -2.086  0.00  0.00    +0.056 A 
ATOM     13  C   UNL     1      -6.504   2.174  -2.279  0.00  0.00    +0.066 A 
ATOM     14  N   UNL     1      -6.897   3.026  -1.367  0.00  0.00    -0.178 NA
ATOM     15  N   UNL     1      -5.810   3.336  -0.541  0.00  0.00    -0.274 N 
ATOM     16  H   UNL     1      -5.821   3.961   0.240  0.00  0.00    +0.189 HD
BRANCH  13  17
ATOM     17  C   UNL     1      -7.370   1.586  -3.364  0.00  0.00    +0.033 C 
ATOM     18  C   UNL     1      -7.217   2.413  -4.642  0.00  0.00    +0.014 C 
ATOM     19  C   UNL     1      -6.939   0.143  -3.634  0.00  0.00    +0.014 C 
ENDBRANCH  13  17
ENDBRANCH   7  11
BRANCH   5  20
ATOM     20  C   UNL     1      -0.017   1.389   0.010  0.00  0.00    +0.002 A 
ATOM     21  C   UNL     1       0.496   0.892  -1.187  0.00  0.00    +0.010 A 
ATOM     22  C   UNL     1       1.697   0.212  -1.189  0.00  0.00    +0.001 A 
ATOM     23  C   UNL     1       2.391   0.023  -0.007  0.00  0.00    +0.000 A 
ATOM     24  C   UNL     1       1.886   0.514   1.183  0.00  0.00    +0.001 A 
ATOM     25  C   UNL     1       0.686   1.196   1.197  0.00  0.00    +0.010 A 
ENDBRANCH   5  20
BRANCH   9  26
ATOM     26  C   UNL     1      -0.596   6.104   2.893  0.00  0.00    -0.039 C 
BRANCH  26  29
ATOM     27  N   UNL     1      -1.354   9.647   2.477  0.00  0.00    -0.268 N 
ATOM     28  C   UNL     1      -0.629   8.550   2.172  0.00  0.00    +0.038 A 
ATOM     29  C   UNL     1      -1.106   7.522   2.913  0.00  0.00    -0.021 A 
ATOM     30  C   UNL     1      -2.151   8.009   3.703  0.00  0.00    +0.062 A 
ATOM     31  N   UNL     1      -2.301   9.283   3.443  0.00  0.00    -0.176 NA
ATOM     32  C   UNL     1      -2.965   7.207   4.686  0.00  0.00    +0.068 C 
ATOM     33  C   UNL     1       0.504   8.481   1.182  0.00  0.00    +0.065 C 
BRANCH  27  35
ATOM     34  C   UNL     1      -0.175  11.772   2.749  0.00  0.00    +0.029 C 
ATOM     35  C   UNL     1      -1.177  10.983   1.904  0.00  0.00    +0.140 C 
ENDBRANCH  27  35
ENDBRANCH  26  29
ENDBRANCH   9  26
TORSDOF 6
