REMARK  Name = ZINC13030091
REMARK  10 active torsions:
REMARK  status: ('A' for Active; 'I' for Inactive)
REMARK    1  A    between atoms: C_1  and  C_2
REMARK    2  A    between atoms: C_2  and  C_3
REMARK    3  A    between atoms: C_2  and  C_4
REMARK    4  A    between atoms: C_4  and  N_5
REMARK    5  A    between atoms: C_6  and  N_39
REMARK    6  A    between atoms: C_7  and  C_14
REMARK    7  A    between atoms: C_14  and  C_16
REMARK    8  A    between atoms: C_14  and  N_27
REMARK    9  A    between atoms: C_19  and  C_21
REMARK   10  A    between atoms: N_30  and  C_33
REMARK                            x       y       z     vdW  Elec       q    Type
REMARK                         _______ _______ _______ _____ _____    ______ ____
ROOT
ATOM      1  C   UNL     1      -4.893   3.441  -0.202  0.00  0.00    +0.133 C 
ENDROOT
BRANCH   1   4
ATOM      2  N   UNL     1      -7.205   3.889  -3.127  0.00  0.00    -0.281 N 
ATOM      3  C   UNL     1      -6.511   4.142  -1.968  0.00  0.00    +0.110 A 
ATOM      4  C   UNL     1      -5.670   3.187  -1.468  0.00  0.00    +0.077 A 
ATOM      5  C   UNL     1      -5.544   1.965  -2.148  0.00  0.00    +0.261 A 
ATOM      6  O   UNL     1      -4.804   1.097  -1.717  0.00  0.00    -0.267 OA
ATOM      7  N   UNL     1      -6.247   1.757  -3.278  0.00  0.00    -0.275 N 
ATOM      8  H   UNL     1      -6.154   0.802  -3.816  0.00  0.00    +0.173 HD
ATOM      9  C   UNL     1      -7.067   2.710  -3.760  0.00  0.00    +0.331 A 
ATOM     10  O   UNL     1      -7.692   2.502  -4.782  0.00  0.00    -0.246 OA
BRANCH   3  11
ATOM     11  N   UNL     1      -6.657   5.342  -1.322  0.00  0.00    -0.344 N 
ATOM     12  H   UNL     1      -6.100   5.539  -0.394  0.00  0.00    +0.144 HD
ATOM     13  H   UNL     1      -7.333   6.108  -1.731  0.00  0.00    +0.144 HD
ENDBRANCH   3  11
BRANCH   2  14
ATOM     14  C   UNL     1      -8.104   4.908  -3.674  0.00  0.00    +0.131 C 
BRANCH  14  16
ATOM     15  C   UNL     1      -9.466   4.980  -1.580  0.00  0.00    +0.009 C 
ATOM     16  C   UNL     1      -9.505   4.719  -3.087  0.00  0.00    +0.003 C 
ATOM     17  C   UNL     1     -10.472   5.702  -3.751  0.00  0.00    +0.009 C 
ENDBRANCH  14  16
ENDBRANCH   2  14
ENDBRANCH   1   4
BRANCH   1  18
ATOM     18  N   UNL     1      -5.131   2.345   0.747  0.00  0.00    -0.288 NA
ATOM     19  C   UNL     1      -6.567   2.182   1.013  0.00  0.00    +0.104 C 
ATOM     20  C   UNL     1      -6.778   0.983   1.941  0.00  0.00    +0.120 C 
ATOM     21  N   UNL     1      -6.034   1.197   3.190  0.00  0.00    -0.327 N 
ATOM     22  C   UNL     1      -4.598   1.360   2.924  0.00  0.00    +0.120 C 
ATOM     23  C   UNL     1      -4.387   2.559   1.996  0.00  0.00    +0.104 C 
BRANCH  21  24
ATOM     24  C   UNL     1      -6.261   0.155   4.092  0.00  0.00    +0.030 A 
ATOM     25  C   UNL     1      -5.191  -0.570   4.602  0.00  0.00    +0.023 A 
ATOM     26  C   UNL     1      -5.418  -1.596   5.497  0.00  0.00    +0.002 A 
ATOM     27  C   UNL     1      -6.709  -1.910   5.878  0.00  0.00    +0.000 A 
ATOM     28  C   UNL     1      -7.777  -1.195   5.369  0.00  0.00    +0.002 A 
ATOM     29  C   UNL     1      -7.557  -0.163   4.477  0.00  0.00    +0.023 A 
ENDBRANCH  21  24
ENDBRANCH   1  18
BRANCH   1  30
ATOM     30  C   UNL     1      -3.422   3.518  -0.522  0.00  0.00    +0.012 A 
ATOM     31  C   UNL     1      -2.639   4.615  -0.679  0.00  0.00    +0.014 A 
ATOM     32  C   UNL     1      -1.302   4.450  -0.968  0.00  0.00    +0.016 A 
ATOM     33  C   UNL     1      -0.808   3.180  -1.097  0.00  0.00    +0.020 A 
ATOM     34  S   UNL     1      -2.261   2.188  -0.793  0.00  0.00    -0.091 S 
BRANCH  33  35
ATOM     35  C   UNL     1       0.570   2.743  -1.403  0.00  0.00    -0.011 A 
ATOM     36  C   UNL     1       1.575   3.688  -1.615  0.00  0.00    +0.009 A 
ATOM     37  C   UNL     1       2.858   3.274  -1.906  0.00  0.00    +0.001 A 
ATOM     38  C   UNL     1       3.151   1.924  -1.987  0.00  0.00    +0.000 A 
ATOM     39  C   UNL     1       2.159   0.981  -1.777  0.00  0.00    +0.001 A 
ATOM     40  C   UNL     1       0.872   1.383  -1.486  0.00  0.00    +0.009 A 
ENDBRANCH  33  35
ENDBRANCH   1  30
TORSDOF 8
