REMARK  Name = ZINC10426630
REMARK  10 active torsions:
REMARK  status: ('A' for Active; 'I' for Inactive)
REMARK    1  A    between atoms: C_1  and  C_2
REMARK    2  A    between atoms: C_2  and  C_3
REMARK    3  A    between atoms: C_2  and  C_4
REMARK    4  A    between atoms: C_4  and  C_6
REMARK    5  A    between atoms: C_4  and  N_23
REMARK    6  A    between atoms: N_8  and  C_9
REMARK    7  A    between atoms: C_9  and  C_10
REMARK    8  A    between atoms: C_10  and  C_11
REMARK    9  A    between atoms: C_11  and  N_12
REMARK   10  A    between atoms: C_24  and  C_26
REMARK                            x       y       z     vdW  Elec       q    Type
REMARK                         _______ _______ _______ _____ _____    ______ ____
ROOT
ATOM      1  C   UNL     1       1.129   1.567  -0.048  0.00  0.00    +0.234 C 
ATOM      2  O   UNL     1       1.026   2.767   0.092  0.00  0.00    -0.274 OA
ATOM      3  N   UNL     1       0.038   0.825  -0.326  0.00  0.00    -0.314 N 
ATOM      4  H   UNL     1       0.130  -0.124  -0.505  0.00  0.00    +0.149 HD
ENDROOT
BRANCH   1   5
ATOM      5  C   UNL     1       2.475   0.905   0.089  0.00  0.00    +0.162 C 
BRANCH   5   6
ATOM      6  N   UNL     1       3.527   1.860  -0.269  0.00  0.00    -0.300 N 
ATOM      7  C   UNL     1       4.720   1.414  -0.710  0.00  0.00    +0.245 C 
ATOM      8  O   UNL     1       4.924   0.220  -0.810  0.00  0.00    -0.270 OA
ATOM      9  H   UNL     1       3.365   2.813  -0.189  0.00  0.00    +0.150 HD
BRANCH   7  10
ATOM     10  C   UNL     1       5.782   2.377  -1.072  0.00  0.00    +0.037 A 
ATOM     11  C   UNL     1       5.549   3.749  -0.963  0.00  0.00    +0.014 A 
ATOM     12  C   UNL     1       6.545   4.643  -1.296  0.00  0.00    +0.021 A 
ATOM     13  C   UNL     1       7.770   4.181  -1.749  0.00  0.00    +0.041 A 
ATOM     14  C   UNL     1       8.005   2.821  -1.865  0.00  0.00    +0.021 A 
ATOM     15  C   UNL     1       7.018   1.918  -1.529  0.00  0.00    +0.014 A 
ATOM     16 CL   UNL     1       9.017   5.312  -2.173  0.00  0.00    -0.084 Cl
ENDBRANCH   7  10
ENDBRANCH   5   6
BRANCH   5  18
ATOM     17  C   UNL     1       1.606  -0.588   1.894  0.00  0.00    +0.009 C 
ATOM     18  C   UNL     1       2.674   0.447   1.536  0.00  0.00    +0.012 C 
ATOM     19  C   UNL     1       4.062  -0.178   1.687  0.00  0.00    +0.009 C 
ENDBRANCH   5  18
ENDBRANCH   1   5
BRANCH   3  20
ATOM     20  C   UNL     1      -1.285   1.453  -0.364  0.00  0.00    +0.106 C 
BRANCH  20  21
ATOM     21  C   UNL     1      -2.340   0.399  -0.706  0.00  0.00    +0.038 C 
BRANCH  21  22
ATOM     22  C   UNL     1      -3.722   1.054  -0.745  0.00  0.00    +0.119 C 
BRANCH  22  23
ATOM     23  N   UNL     1      -4.732   0.045  -1.073  0.00  0.00    -0.224 N 
ATOM     24  C   UNL     1      -5.390  -0.697  -0.156  0.00  0.00    +0.246 C 
ATOM     25  O   UNL     1      -5.263  -0.658   1.050  0.00  0.00    -0.273 OA
ATOM     26  C   UNL     1      -6.314  -1.583  -0.950  0.00  0.00    +0.113 C 
ATOM     27  C   UNL     1      -7.780  -1.333  -0.570  0.00  0.00    +0.035 C 
ATOM     28  C   UNL     1      -8.439  -2.733  -0.680  0.00  0.00    +0.003 C 
ATOM     29  C   UNL     1      -7.330  -3.679  -0.156  0.00  0.00    +0.003 C 
ATOM     30  C   UNL     1      -6.020  -3.064  -0.696  0.00  0.00    +0.035 C 
ATOM     31  N   UNL     1      -6.061  -1.220  -2.346  0.00  0.00    -0.285 N 
ATOM     32  C   UNL     1      -5.122  -0.253  -2.319  0.00  0.00    +0.309 C 
ATOM     33  O   UNL     1      -4.677   0.285  -3.314  0.00  0.00    -0.252 OA
ATOM     34  H   UNL     1      -6.486  -1.597  -3.132  0.00  0.00    +0.151 HD
ENDBRANCH  22  23
ENDBRANCH  21  22
ENDBRANCH  20  21
ENDBRANCH   3  20
TORSDOF 8
