REMARK  Name = ZINC37140097
REMARK  7 active torsions:
REMARK  status: ('A' for Active; 'I' for Inactive)
REMARK    1  A    between atoms: C_1  and  C_2
REMARK    2  A    between atoms: C_5  and  O_22
REMARK    3  A    between atoms: C_6  and  C_8
REMARK    4  A    between atoms: C_8  and  C_10
REMARK    5  A    between atoms: C_8  and  N_11
REMARK    6  A    between atoms: N_11  and  C_12
REMARK    7  A    between atoms: C_17  and  N_18
REMARK                            x       y       z     vdW  Elec       q    Type
REMARK                         _______ _______ _______ _____ _____    ______ ____
ROOT
ATOM      1  N   UNL     1      -1.028  -1.984   3.373  0.00  0.00    -0.335 N 
ATOM      2  H   UNL     1      -1.039  -1.017   3.304  0.00  0.00    +0.147 HD
ENDROOT
BRANCH   1   3
ATOM      3  C   UNL     1      -1.356  -2.601   4.583  0.00  0.00    +0.058 A 
ATOM      4  C   UNL     1      -1.455  -3.985   4.654  0.00  0.00    +0.026 A 
ATOM      5  C   UNL     1      -1.779  -4.592   5.852  0.00  0.00    +0.017 A 
ATOM      6  C   UNL     1      -2.005  -3.823   6.980  0.00  0.00    +0.020 A 
ATOM      7  C   UNL     1      -1.907  -2.445   6.912  0.00  0.00    +0.050 A 
ATOM      8  C   UNL     1      -1.577  -1.833   5.719  0.00  0.00    +0.148 A 
ATOM      9 BR   UNL     1      -2.449  -4.658   8.617  0.00  0.00    -0.050 Br
BRANCH   8  10
ATOM     10  N   UNL     1      -1.466  -0.358   5.649  0.00  0.00    +0.058 N 
ATOM     11  O   UNL     1      -0.610   0.151   4.964  0.00  0.00    -0.126 OA
ATOM     12  O   UNL     1      -2.231   0.336   6.277  0.00  0.00    -0.126 OA
ENDBRANCH   8  10
ENDBRANCH   1   3
BRANCH   1  13
ATOM     13  C   UNL     1      -0.668  -2.798   2.210  0.00  0.00    +0.101 C 
ATOM     14  C   UNL     1       0.822  -3.142   2.270  0.00  0.00    +0.033 C 
BRANCH  13  20
ATOM     15  C   UNL     1      -1.262   1.571  -0.156  0.00  0.00    +0.044 C 
ATOM     16  C   UNL     1      -1.240   0.064  -0.185  0.00  0.00    -0.050 A 
ATOM     17  C   UNL     1      -1.483  -0.607  -1.369  0.00  0.00    +0.007 A 
ATOM     18  C   UNL     1      -1.464  -1.988  -1.399  0.00  0.00    +0.046 A 
ATOM     19  C   UNL     1      -1.200  -2.702  -0.238  0.00  0.00    +0.122 A 
ATOM     20  C   UNL     1      -0.955  -2.026   0.948  0.00  0.00    +0.014 A 
ATOM     21  C   UNL     1      -0.970  -0.645   0.971  0.00  0.00    +0.012 A 
BRANCH  19  22
ATOM     22  O   UNL     1      -1.181  -4.060  -0.265  0.00  0.00    -0.506 OA
ATOM     23  H   UNL     1      -0.312  -4.438  -0.459  0.00  0.00    +0.292 HD
ENDBRANCH  19  22
ENDBRANCH  13  20
ENDBRANCH   1  13
TORSDOF 5
