REMARK  Name = ZINC20601490
REMARK  3 active torsions:
REMARK  status: ('A' for Active; 'I' for Inactive)
REMARK    1  A    between atoms: C_11  and  C_23
REMARK    2  A    between atoms: N_13  and  C_16
REMARK    3  A    between atoms: C_16  and  C_17
REMARK                            x       y       z     vdW  Elec       q    Type
REMARK                         _______ _______ _______ _____ _____    ______ ____
ROOT
ATOM      1  C   UNL     1      -0.013   1.076   0.008  0.00  0.00    +0.001 A 
ATOM      2  C   UNL     1      -1.227   1.748   0.017  0.00  0.00    +0.002 A 
ATOM      3  C   UNL     1      -1.267   3.125   0.031  0.00  0.00    +0.026 A 
ATOM      4  C   UNL     1      -0.082   3.852   0.023  0.00  0.00    +0.047 A 
ATOM      5  C   UNL     1       1.149   3.166   0.008  0.00  0.00    +0.003 A 
ATOM      6  C   UNL     1       1.164   1.769   0.000  0.00  0.00    +0.010 A 
ATOM      7  C   UNL     1       2.177   4.198   0.006  0.00  0.00    -0.016 A 
ATOM      8  C   UNL     1       1.552   5.393   0.017  0.00  0.00    +0.042 A 
ATOM      9  N   UNL     1       0.201   5.201   0.028  0.00  0.00    -0.356 N 
ATOM     10  H   UNL     1      -0.618   5.935   0.039  0.00  0.00    +0.166 HD
ATOM     11  C   UNL     1       2.295   6.709   0.014  0.00  0.00    +0.134 C 
ATOM     12  N   UNL     1       3.684   6.458  -0.402  0.00  0.00    -0.284 NA
ATOM     13  C   UNL     1       4.298   5.383   0.392  0.00  0.00    +0.090 C 
ATOM     14  C   UNL     1       3.676   4.037  -0.004  0.00  0.00    +0.053 C 
ENDROOT
BRANCH  11  15
ATOM     15  C   UNL     1       1.639   7.660  -0.954  0.00  0.00    -0.024 A 
ATOM     16  C   UNL     1       1.901   7.558  -2.307  0.00  0.00    +0.008 A 
ATOM     17  C   UNL     1       1.295   8.426  -3.196  0.00  0.00    +0.038 A 
ATOM     18  C   UNL     1       0.435   9.405  -2.729  0.00  0.00    +0.123 A 
ATOM     19  C   UNL     1       0.178   9.510  -1.373  0.00  0.00    +0.038 A 
ATOM     20  C   UNL     1       0.780   8.637  -0.486  0.00  0.00    +0.008 A 
ATOM     21  F   UNL     1      -0.152  10.259  -3.597  0.00  0.00    -0.205 F 
ENDBRANCH  11  15
BRANCH  12  22
ATOM     22  C   UNL     1       4.485   7.687  -0.332  0.00  0.00    +0.142 C 
BRANCH  22  23
ATOM     23  C   UNL     1       5.821   7.455  -0.990  0.00  0.00    +0.077 A 
ATOM     24  C   UNL     1       6.144   7.757  -2.317  0.00  0.00    +0.045 A 
ATOM     25  C   UNL     1       7.434   7.400  -2.522  0.00  0.00    +0.105 A 
ATOM     26  N   UNL     1       7.908   6.890  -1.366  0.00  0.00    -0.284 N 
ATOM     27  H   UNL     1       8.946   6.530  -1.309  0.00  0.00    +0.188 HD
ATOM     28  N   UNL     1       6.879   6.940  -0.418  0.00  0.00    -0.178 NA
ENDBRANCH  22  23
ENDBRANCH  12  22
TORSDOF 3
