REMARK  Name = ZINC19852405
REMARK  5 active torsions:
REMARK  status: ('A' for Active; 'I' for Inactive)
REMARK    1  A    between atoms: C_1  and  O_2
REMARK    2  A    between atoms: O_2  and  C_3
REMARK    3  A    between atoms: C_3  and  C_4
REMARK    4  A    between atoms: C_11  and  N_21
REMARK    5  A    between atoms: C_12  and  C_19
REMARK                            x       y       z     vdW  Elec       q    Type
REMARK                         _______ _______ _______ _____ _____    ______ ____
ROOT
ATOM      1  C   UNL     1       0.633  -2.084   1.012  0.00  0.00    +0.069 A 
ATOM      2  C   UNL     1       1.159  -3.053   1.771  0.00  0.00    +0.050 A 
ATOM      3  C   UNL     1       0.994  -4.251   1.022  0.00  0.00    +0.245 A 
ATOM      4  N   UNL     1       0.221  -4.027  -0.001  0.00  0.00    -0.135 NA
ATOM      5  N   UNL     1      -0.076  -2.667  -0.002  0.00  0.00    -0.276 N 
ATOM      6  H   UNL     1      -0.673  -2.194  -0.601  0.00  0.00    +0.189 HD
ATOM      7  O   UNL     1       1.604  -5.427   1.328  0.00  0.00    -0.422 OA
ATOM      8  C   UNL     1       1.984  -5.570   2.608  0.00  0.00    +0.200 C 
ATOM      9  C   UNL     1       2.109  -4.544   3.464  0.00  0.00    +0.097 C 
ATOM     10  C   UNL     1       1.839  -3.079   3.118  0.00  0.00    +0.044 C 
ATOM     11  C   UNL     1       0.946  -2.560   4.230  0.00  0.00    +0.028 C 
ATOM     12  C   UNL     1       0.648  -1.071   4.201  0.00  0.00    +0.070 C 
ATOM     13  S   UNL     1       2.193  -0.126   4.213  0.00  0.00    -0.161 S 
ATOM     14  C   UNL     1       3.225  -0.911   2.953  0.00  0.00    +0.070 C 
ATOM     15  C   UNL     1       3.206  -2.421   3.078  0.00  0.00    +0.028 C 
ENDROOT
BRANCH   8  16
ATOM     16  N   UNL     1       2.259  -6.834   3.066  0.00  0.00    -0.328 N 
ATOM     17  H   UNL     1       2.177  -7.594   2.469  0.00  0.00    +0.145 HD
ATOM     18  H   UNL     1       2.536  -6.967   3.986  0.00  0.00    +0.145 HD
ENDBRANCH   8  16
BRANCH   9  19
ATOM     19  C   UNL     1       2.546  -4.874   4.790  0.00  0.00    +0.101 C 
ATOM     20  N   UNL     1       2.893  -5.135   5.840  0.00  0.00    -0.191 NA
ENDBRANCH   9  19
BRANCH   1  21
ATOM     21  C   UNL     1       0.673  -0.582   1.123  0.00  0.00    +0.214 C 
BRANCH  21  23
ATOM     22  C   UNL     1      -0.007   1.425   0.004  0.00  0.00    +0.194 C 
ATOM     23  O   UNL     1       0.012  -0.004  -0.004  0.00  0.00    -0.377 OA
ENDBRANCH  21  23
ENDBRANCH   1  21
TORSDOF 4
