REMARK  Name = ZINC01429256
REMARK  8 active torsions:
REMARK  status: ('A' for Active; 'I' for Inactive)
REMARK    1  A    between atoms: C_1  and  C_2
REMARK    2  A    between atoms: C_4  and  C_31
REMARK    3  A    between atoms: C_8  and  N_20
REMARK    4  A    between atoms: C_9  and  C_11
REMARK    5  A    between atoms: N_13  and  C_14
REMARK    6  A    between atoms: C_14  and  C_15
REMARK    7  A    between atoms: C_21  and  C_23
REMARK    8  A    between atoms: C_24  and  C_25
REMARK                            x       y       z     vdW  Elec       q    Type
REMARK                         _______ _______ _______ _____ _____    ______ ____
ROOT
ATOM      1  C   UNL     1      -4.115  -0.962  -0.014  0.00  0.00    +0.044 C 
ATOM      2  C   UNL     1      -3.754  -2.420   0.102  0.00  0.00    -0.037 A 
ATOM      3  C   UNL     1      -4.672  -3.332   0.569  0.00  0.00    +0.027 A 
ATOM      4  C   UNL     1      -4.336  -4.673   0.676  0.00  0.00    +0.040 A 
ATOM      5  N   UNL     1      -3.134  -5.091   0.332  0.00  0.00    -0.245 NA
ATOM      6  C   UNL     1      -2.221  -4.258  -0.121  0.00  0.00    +0.111 A 
ATOM      7  C   UNL     1      -2.463  -2.873  -0.267  0.00  0.00    +0.033 A 
ATOM      8  C   UNL     1      -1.342  -2.102  -0.781  0.00  0.00    +0.063 A 
ATOM      9  C   UNL     1      -0.173  -2.766  -1.079  0.00  0.00    +0.098 A 
ATOM     10  S   UNL     1      -0.543  -4.459  -0.666  0.00  0.00    -0.062 S 
ATOM     11  C   UNL     1      -5.353  -5.660   1.190  0.00  0.00    +0.065 C 
ENDROOT
BRANCH   9  12
ATOM     12  C   UNL     1       1.073  -2.213  -1.608  0.00  0.00    +0.253 C 
ATOM     13  O   UNL     1       1.208  -1.008  -1.715  0.00  0.00    -0.270 OA
ATOM     14  N   UNL     1       2.073  -3.039  -1.975  0.00  0.00    -0.304 N 
ATOM     15  H   UNL     1       1.966  -3.999  -1.890  0.00  0.00    +0.149 HD
BRANCH  14  16
ATOM     16  C   UNL     1       3.322  -2.485  -2.505  0.00  0.00    +0.179 C 
BRANCH  16  17
ATOM     17  C   UNL     1       4.269  -3.610  -2.837  0.00  0.00    +0.122 A 
ATOM     18  C   UNL     1       4.354  -4.242  -4.022  0.00  0.00    +0.046 A 
ATOM     19  C   UNL     1       5.366  -5.221  -3.892  0.00  0.00    +0.041 A 
ATOM     20  C   UNL     1       5.838  -5.129  -2.636  0.00  0.00    +0.195 A 
ATOM     21  O   UNL     1       5.174  -4.147  -2.003  0.00  0.00    -0.466 OA
ENDBRANCH  16  17
ENDBRANCH  14  16
ENDBRANCH   9  12
BRANCH   8  22
ATOM     22  N   UNL     1      -1.450  -0.729  -0.972  0.00  0.00    -0.280 N 
ATOM     23  C   UNL     1      -0.545   0.102  -0.418  0.00  0.00    +0.241 C 
ATOM     24  O   UNL     1       0.332  -0.344   0.299  0.00  0.00    -0.270 OA
ATOM     25  H   UNL     1      -2.177  -0.369  -1.504  0.00  0.00    +0.155 HD
BRANCH  23  26
ATOM     26  C   UNL     1      -0.616   1.540  -0.678  0.00  0.00    +0.068 C 
ATOM     27  C   UNL     1       0.289   2.371  -0.123  0.00  0.00    +0.013 C 
BRANCH  27  28
ATOM     28  C   UNL     1       0.218   3.818  -0.385  0.00  0.00    -0.025 A 
ATOM     29  C   UNL     1      -0.785   4.334  -1.212  0.00  0.00    +0.008 A 
ATOM     30  C   UNL     1      -0.848   5.691  -1.449  0.00  0.00    +0.001 A 
ATOM     31  C   UNL     1       0.084   6.541  -0.878  0.00  0.00    +0.000 A 
ATOM     32  C   UNL     1       1.081   6.037  -0.061  0.00  0.00    +0.001 A 
ATOM     33  C   UNL     1       1.155   4.683   0.189  0.00  0.00    +0.008 A 
ENDBRANCH  27  28
ENDBRANCH  23  26
ENDBRANCH   8  22
TORSDOF 6
