REMARK  Name = ZINC42569200
REMARK  9 active torsions:
REMARK  status: ('A' for Active; 'I' for Inactive)
REMARK    1  A    between atoms: C_1  and  C_2
REMARK    2  A    between atoms: C_4  and  C_26
REMARK    3  A    between atoms: C_5  and  N_9
REMARK    4  A    between atoms: C_10  and  C_12
REMARK    5  A    between atoms: C_12  and  C_14
REMARK    6  A    between atoms: C_12  and  N_15
REMARK    7  A    between atoms: C_18  and  N_21
REMARK    8  A    between atoms: N_21  and  S_22
REMARK    9  A    between atoms: S_22  and  C_25
REMARK                            x       y       z     vdW  Elec       q    Type
REMARK                         _______ _______ _______ _____ _____    ______ ____
ROOT
ATOM      1  C   UNL     1       0.598  -6.347   1.021  0.00  0.00    +0.016 C 
ATOM      2  C   UNL     1       1.595  -6.890  -0.005  0.00  0.00    -0.004 C 
ENDROOT
BRANCH   1   3
ATOM      3  N   UNL     1       0.946  -6.851   2.356  0.00  0.00    +0.387 N 
ATOM      4  C   UNL     1      -0.039  -6.369   3.332  0.00  0.00    -0.076 C 
ATOM      5  C   UNL     1       0.364  -6.823   4.737  0.00  0.00    +0.002 C 
ATOM      6  C   UNL     1       0.418  -8.353   4.777  0.00  0.00    +0.073 C 
ATOM      7  C   UNL     1       1.393  -8.847   3.705  0.00  0.00    +0.002 C 
ATOM      8  C   UNL     1       0.952  -8.318   2.338  0.00  0.00    -0.076 C 
ATOM      9  H   UNL     1       1.862  -6.515   2.613  0.00  0.00    -0.081 HD
BRANCH   6  10
ATOM     10  N   UNL     1       0.877  -8.792   6.097  0.00  0.00    -0.192 NA
ATOM     11  H   UNL     1       1.536  -8.269   6.580  0.00  0.00    +0.148 HD
BRANCH  10  12
ATOM     12  S   UNL     1       0.271 -10.181   6.764  0.00  0.00    +0.027 S 
ATOM     13  O   UNL     1       0.907 -10.283   8.030  0.00  0.00    -0.158 OA
ATOM     14  O   UNL     1      -1.140 -10.043   6.671  0.00  0.00    -0.158 OA
ATOM     15  C   UNL     1       0.841 -11.511   5.669  0.00  0.00    +0.214 C 
ENDBRANCH  10  12
ENDBRANCH   6  10
ENDBRANCH   1   3
BRANCH   1  17
ATOM     16  N   UNL     1      -0.177  -4.138   0.223  0.00  0.00    -0.285 N 
ATOM     17  C   UNL     1       0.648  -4.841   1.023  0.00  0.00    +0.203 C 
ATOM     18  O   UNL     1       1.432  -4.262   1.745  0.00  0.00    -0.277 OA
ATOM     19  H   UNL     1      -0.800  -4.602  -0.358  0.00  0.00    +0.155 HD
BRANCH  16  24
ATOM     20  C   UNL     1      -0.007   1.534   0.254  0.00  0.00    +0.044 C 
ATOM     21  C   UNL     1      -0.052   0.027   0.245  0.00  0.00    -0.049 A 
ATOM     22  C   UNL     1      -1.267  -0.627   0.324  0.00  0.00    +0.008 A 
ATOM     23  C   UNL     1      -1.312  -2.008   0.317  0.00  0.00    -0.028 A 
ATOM     24  C   UNL     1      -0.135  -2.739   0.230  0.00  0.00    +0.055 A 
ATOM     25  C   UNL     1       1.085  -2.079   0.150  0.00  0.00    +0.063 A 
ATOM     26  C   UNL     1       1.122  -0.697   0.152  0.00  0.00    +0.025 A 
ATOM     27 CL   UNL     1       2.560  -2.988   0.040  0.00  0.00    -0.082 Cl
ATOM     28  C   UNL     1      -2.638  -2.720   0.404  0.00  0.00    +0.046 C 
ENDBRANCH  16  24
ENDBRANCH   1  17
TORSDOF 5
