REMARK  Name = ZINC24647950
REMARK  8 active torsions:
REMARK  status: ('A' for Active; 'I' for Inactive)
REMARK    1  A    between atoms: C_1  and  C_2
REMARK    2  A    between atoms: C_2  and  C_3
REMARK    3  A    between atoms: C_3  and  C_4
REMARK    4  A    between atoms: C_7  and  C_10
REMARK    5  A    between atoms: C_10  and  C_12
REMARK    6  A    between atoms: C_10  and  N_17
REMARK    7  A    between atoms: C_18  and  C_20
REMARK    8  A    between atoms: C_20  and  N_21
REMARK                            x       y       z     vdW  Elec       q    Type
REMARK                         _______ _______ _______ _____ _____    ______ ____
ROOT
ATOM      1  N   UNL     1       6.756   2.322  -3.938  0.00  0.00    -0.303 N 
ATOM      2  C   UNL     1       6.038   1.801  -2.923  0.00  0.00    +0.232 C 
ATOM      3  O   UNL     1       5.086   2.407  -2.480  0.00  0.00    -0.274 OA
ATOM      4  H   UNL     1       7.620   1.772  -4.340  0.00  0.00    +0.150 HD
ENDROOT
BRANCH   1   5
ATOM      5  C   UNL     1       6.384   3.619  -4.507  0.00  0.00    +0.140 C 
BRANCH   5   9
ATOM      6  C   UNL     1       9.817   5.424  -6.298  0.00  0.00    -0.047 A 
ATOM      7  C   UNL     1       8.923   6.198  -5.582  0.00  0.00    +0.004 A 
ATOM      8  C   UNL     1       7.812   5.614  -5.003  0.00  0.00    +0.006 A 
ATOM      9  C   UNL     1       7.595   4.256  -5.139  0.00  0.00    -0.022 A 
ATOM     10  C   UNL     1       8.492   3.481  -5.851  0.00  0.00    +0.006 A 
ATOM     11  C   UNL     1       9.600   4.065  -6.434  0.00  0.00    +0.004 A 
BRANCH   6  12
ATOM     12  C   UNL     1      11.027   6.061  -6.931  0.00  0.00    +0.035 C 
BRANCH  12  14
ATOM     13  C   UNL     1      13.422   6.682  -6.583  0.00  0.00    +0.004 C 
ATOM     14  C   UNL     1      12.193   6.035  -5.941  0.00  0.00    +0.001 C 
ENDBRANCH  12  14
ENDBRANCH   6  12
ENDBRANCH   5   9
BRANCH   5  15
ATOM     15  C   UNL     1       5.317   3.422  -5.553  0.00  0.00    +0.014 A 
ATOM     16  C   UNL     1       4.217   4.174  -5.802  0.00  0.00    +0.013 A 
ATOM     17  C   UNL     1       3.368   3.801  -6.827  0.00  0.00    +0.008 A 
ATOM     18  C   UNL     1       3.655   2.688  -7.547  0.00  0.00    +0.045 A 
ATOM     19  S   UNL     1       5.169   2.134  -6.780  0.00  0.00    -0.099 S 
ENDBRANCH   5  15
ENDBRANCH   1   5
BRANCH   2  20
ATOM     20  C   UNL     1       6.421   0.466  -2.337  0.00  0.00    +0.213 C 
BRANCH  20  21
ATOM     21  N   UNL     1       5.494   0.124  -1.256  0.00  0.00    -0.215 N 
ATOM     22  C   UNL     1       4.348  -0.566  -1.429  0.00  0.00    +0.251 C 
ATOM     23  O   UNL     1       3.905  -1.002  -2.470  0.00  0.00    -0.272 OA
ATOM     24  C   UNL     1       3.731  -0.679  -0.053  0.00  0.00    +0.138 C 
ATOM     25  C   UNL     1       3.614  -2.143   0.354  0.00  0.00    +0.040 C 
ATOM     26  C   UNL     1       2.490  -2.786  -0.467  0.00  0.00    +0.008 C 
ATOM     27  C   UNL     1       1.157  -2.199  -0.006  0.00  0.00    +0.035 C 
ATOM     28  C   UNL     1       1.207  -0.693  -0.013  0.00  0.00    -0.042 A 
ATOM     29  C   UNL     1       2.394   0.007  -0.026  0.00  0.00    -0.012 A 
ATOM     30  C   UNL     1       2.373   1.395  -0.016  0.00  0.00    +0.006 A 
ATOM     31  C   UNL     1       1.174   2.078   0.002  0.00  0.00    +0.000 A 
ATOM     32  C   UNL     1      -0.017   1.376   0.010  0.00  0.00    +0.000 A 
ATOM     33  C   UNL     1       0.002  -0.004   0.002  0.00  0.00    +0.004 A 
ATOM     34  N   UNL     1       4.682   0.022   0.820  0.00  0.00    -0.281 N 
ATOM     35  C   UNL     1       5.679   0.456   0.028  0.00  0.00    +0.310 C 
ATOM     36  O   UNL     1       6.641   1.081   0.432  0.00  0.00    -0.252 OA
ATOM     37  H   UNL     1       4.484   0.098   1.900  0.00  0.00    +0.152 HD
ENDBRANCH  20  21
ENDBRANCH   2  20
TORSDOF 7
