REMARK  Name = ZINC47003643
REMARK  4 active torsions:
REMARK  status: ('A' for Active; 'I' for Inactive)
REMARK    1  A    between atoms: C_1  and  C_2
REMARK    2  A    between atoms: C_2  and  C_3
REMARK    3  A    between atoms: N_12  and  C_13
REMARK    4  A    between atoms: N_22  and  C_23
REMARK                            x       y       z     vdW  Elec       q    Type
REMARK                         _______ _______ _______ _____ _____    ______ ____
ROOT
ATOM      1  C   UNL     1       0.735  -0.597  -1.205  0.00  0.00    +0.077 C 
ATOM      2  C   UNL     1       0.528  -2.115  -1.209  0.00  0.00    +0.022 C 
ATOM      3  C   UNL     1       1.380  -2.739  -2.317  0.00  0.00    +0.003 C 
ATOM      4  C   UNL     1       2.859  -2.454  -2.048  0.00  0.00    +0.019 C 
ATOM      5  C   UNL     1       3.092  -0.940  -2.054  0.00  0.00    +0.109 C 
ATOM      6  N   UNL     1       2.172  -0.313  -1.094  0.00  0.00    -0.283 N 
ATOM      7  C   UNL     1       2.638   0.503  -0.128  0.00  0.00    +0.303 C 
ATOM      8  O   UNL     1       1.883   0.930   0.724  0.00  0.00    -0.253 OA
ATOM      9  N   UNL     1       3.942   0.845  -0.106  0.00  0.00    -0.292 N 
ATOM     10  H   UNL     1       4.558   0.449  -0.741  0.00  0.00    +0.151 HD
ENDROOT
BRANCH   9  11
ATOM     11  C   UNL     1       4.427   1.816   0.878  0.00  0.00    +0.108 C 
ATOM     12  C   UNL     1       5.704   2.486   0.356  0.00  0.00    +0.027 C 
ATOM     13  C   UNL     1       6.350   3.302   1.479  0.00  0.00    +0.008 C 
ATOM     14  C   UNL     1       6.932   2.352   2.533  0.00  0.00    +0.055 C 
ATOM     15  C   UNL     1       5.871   1.348   2.906  0.00  0.00    +0.044 A 
ATOM     16  C   UNL     1       4.754   1.110   2.170  0.00  0.00    +0.013 A 
ATOM     17  C   UNL     1       4.010   0.129   2.821  0.00  0.00    +0.140 A 
ATOM     18  N   UNL     1       4.654  -0.214   3.910  0.00  0.00    -0.179 NA
ATOM     19  N   UNL     1       5.834   0.543   3.981  0.00  0.00    -0.271 N 
ATOM     20  C   UNL     1       6.844   0.471   5.039  0.00  0.00    +0.172 C 
ENDBRANCH   9  11
BRANCH   1  22
ATOM     21  C   UNL     1      -1.499  -0.280  -0.133  0.00  0.00    +0.006 C 
ATOM     22  C   UNL     1      -0.003   0.017  -0.014  0.00  0.00    +0.019 C 
ENDBRANCH   1  22
TORSDOF 2
