REMARK  Name = ZINC63573163
REMARK  6 active torsions:
REMARK  status: ('A' for Active; 'I' for Inactive)
REMARK    1  A    between atoms: C_1  and  C_2
REMARK    2  A    between atoms: C_5  and  C_35
REMARK    3  A    between atoms: C_6  and  N_8
REMARK    4  A    between atoms: C_17  and  O_33
REMARK    5  A    between atoms: C_24  and  C_26
REMARK    6  A    between atoms: O_33  and  C_34
REMARK                            x       y       z     vdW  Elec       q    Type
REMARK                         _______ _______ _______ _____ _____    ______ ____
ROOT
ATOM      1  N   UNL     1      -0.053  -3.102   2.474  0.00  0.00    -0.269 N 
ATOM      2  C   UNL     1       0.100  -2.344   3.578  0.00  0.00    +0.307 C 
ATOM      3  O   UNL     1       0.144  -1.133   3.482  0.00  0.00    -0.252 OA
ATOM      4  N   UNL     1       0.204  -2.929   4.787  0.00  0.00    -0.276 N 
ATOM      5  C   UNL     1       0.267  -4.391   4.883  0.00  0.00    +0.114 C 
ATOM      6  C   UNL     1      -0.884  -4.896   5.774  0.00  0.00    +0.052 C 
ATOM      7  C   UNL     1      -0.911  -4.004   6.991  0.00  0.00    -0.035 C 
ATOM      8  C   UNL     1      -0.906  -4.287   8.287  0.00  0.00    +0.003 A 
ATOM      9  C   UNL     1      -0.981  -5.564   9.014  0.00  0.00    +0.055 A 
ATOM     10  C   UNL     1      -0.930  -5.497  10.373  0.00  0.00    +0.121 A 
ATOM     11  C   UNL     1      -0.812  -4.301  11.095  0.00  0.00    +0.047 A 
ATOM     12  C   UNL     1      -0.745  -3.070  10.527  0.00  0.00    +0.029 A 
ATOM     13  C   UNL     1      -0.798  -3.011   9.060  0.00  0.00    +0.043 A 
ATOM     14  N   UNL     1      -0.777  -1.992   8.256  0.00  0.00    -0.375 N 
ATOM     15  C   UNL     1      -0.931  -2.483   6.886  0.00  0.00    +0.131 C 
ATOM     16  C   UNL     1       0.261  -2.094   5.997  0.00  0.00    +0.134 C 
ATOM     17  H   UNL     1      -0.157  -4.063   2.556  0.00  0.00    +0.156 HD
ATOM     18  H   UNL     1      -0.676  -1.064   8.518  0.00  0.00    +0.160 HD
ENDROOT
BRANCH   1  24
ATOM     19  C   UNL     1      -1.043   0.796  -0.354  0.00  0.00    +0.044 C 
ATOM     20  C   UNL     1      -0.539  -0.614  -0.190  0.00  0.00    -0.049 A 
ATOM     21  C   UNL     1      -0.085  -1.318  -1.291  0.00  0.00    +0.004 A 
ATOM     22  C   UNL     1       0.379  -2.612  -1.145  0.00  0.00    +0.005 A 
ATOM     23  C   UNL     1       0.391  -3.207   0.102  0.00  0.00    -0.029 A 
ATOM     24  C   UNL     1      -0.064  -2.503   1.209  0.00  0.00    +0.038 A 
ATOM     25  C   UNL     1      -0.524  -1.201   1.060  0.00  0.00    +0.027 A 
ATOM     26  C   UNL     1       0.896  -4.617   0.260  0.00  0.00    +0.045 C 
ENDBRANCH   1  24
BRANCH  16  27
ATOM     27  C   UNL     1       1.553  -2.345   6.731  0.00  0.00    -0.025 A 
ATOM     28  C   UNL     1       1.861  -3.619   7.170  0.00  0.00    +0.008 A 
ATOM     29  C   UNL     1       3.046  -3.852   7.843  0.00  0.00    +0.038 A 
ATOM     30  C   UNL     1       3.924  -2.808   8.077  0.00  0.00    +0.123 A 
ATOM     31  C   UNL     1       3.615  -1.532   7.637  0.00  0.00    +0.038 A 
ATOM     32  C   UNL     1       2.432  -1.303   6.960  0.00  0.00    +0.008 A 
ATOM     33  F   UNL     1       5.082  -3.033   8.735  0.00  0.00    -0.205 F 
ENDBRANCH  16  27
BRANCH  10  34
ATOM     34  O   UNL     1      -0.998  -6.661  11.072  0.00  0.00    -0.495 OA
ATOM     35  C   UNL     1      -0.942  -6.566  12.497  0.00  0.00    +0.277 C 
ENDBRANCH  10  34
TORSDOF 3
