REMARK  Name = ZINC62038862
REMARK  8 active torsions:
REMARK  status: ('A' for Active; 'I' for Inactive)
REMARK    1  A    between atoms: C_1  and  C_2
REMARK    2  A    between atoms: C_2  and  C_4
REMARK    3  A    between atoms: C_2  and  S_16
REMARK    4  A    between atoms: N_6  and  C_7
REMARK    5  A    between atoms: C_9  and  C_14
REMARK    6  A    between atoms: C_12  and  O_13
REMARK    7  A    between atoms: S_16  and  C_17
REMARK    8  A    between atoms: C_19  and  C_26
REMARK                            x       y       z     vdW  Elec       q    Type
REMARK                         _______ _______ _______ _____ _____    ______ ____
ROOT
ATOM      1  C   UNL     1       2.671  -0.012   1.530  0.00  0.00    +0.110 A 
ATOM      2  C   UNL     1       3.598  -0.226   2.585  0.00  0.00    +0.047 A 
ATOM      3  C   UNL     1       3.402  -0.868   3.881  0.00  0.00    +0.001 A 
ATOM      4  C   UNL     1       4.452  -0.955   4.731  0.00  0.00    +0.056 A 
ATOM      5  S   UNL     1       5.779  -0.172   3.833  0.00  0.00    -0.076 S 
ATOM      6  C   UNL     1       4.904   0.251   2.350  0.00  0.00    +0.113 A 
ATOM      7  N   UNL     1       5.223   0.853   1.220  0.00  0.00    -0.228 NA
ATOM      8  C   UNL     1       4.318   1.023   0.276  0.00  0.00    +0.223 A 
ATOM      9  N   UNL     1       3.078   0.596   0.426  0.00  0.00    -0.228 NA
ENDROOT
BRANCH   3  10
ATOM     10  C   UNL     1       2.077  -1.415   4.259  0.00  0.00    -0.016 A 
ATOM     11  C   UNL     1       1.471  -2.396   3.474  0.00  0.00    +0.009 A 
ATOM     12  C   UNL     1       0.240  -2.893   3.836  0.00  0.00    +0.004 A 
ATOM     13  C   UNL     1      -0.406  -2.429   4.977  0.00  0.00    -0.044 A 
ATOM     14  C   UNL     1       0.190  -1.464   5.759  0.00  0.00    -0.044 A 
ATOM     15  C   UNL     1       1.431  -0.958   5.403  0.00  0.00    +0.012 A 
ATOM     16  C   UNL     1      -0.448  -0.931   7.015  0.00  0.00    +0.035 C 
ATOM     17  C   UNL     1      -1.941  -1.252   7.038  0.00  0.00    +0.005 C 
ATOM     18  C   UNL     1      -2.119  -2.749   6.762  0.00  0.00    +0.005 C 
ATOM     19  C   UNL     1      -1.755  -3.017   5.303  0.00  0.00    +0.035 C 
ENDBRANCH   3  10
BRANCH   1  20
ATOM     20  S   UNL     1       1.002  -0.556   1.685  0.00  0.00    -0.093 S 
BRANCH  20  22
ATOM     21  C   UNL     1       0.222   1.453   0.000  0.00  0.00    +0.029 C 
ATOM     22  C   UNL     1       0.235  -0.073   0.113  0.00  0.00    +0.136 C 
BRANCH  22  23
ATOM     23  C   UNL     1      -1.178  -0.593   0.063  0.00  0.00    +0.230 C 
ATOM     24  O   UNL     1      -1.781  -0.811   1.093  0.00  0.00    -0.274 OA
ATOM     25  N   UNL     1      -1.773  -0.815  -1.126  0.00  0.00    -0.282 N 
ATOM     26  H   UNL     1      -1.320  -0.570  -1.948  0.00  0.00    +0.155 HD
BRANCH  25  27
ATOM     27  C   UNL     1      -3.045  -1.401  -1.174  0.00  0.00    +0.076 A 
ATOM     28  C   UNL     1      -3.948  -1.178  -0.151  0.00  0.00    +0.038 A 
ATOM     29  C   UNL     1      -5.218  -1.765  -0.204  0.00  0.00    +0.016 A 
ATOM     30  C   UNL     1      -5.567  -2.574  -1.292  0.00  0.00    +0.015 A 
ATOM     31  C   UNL     1      -4.662  -2.790  -2.307  0.00  0.00    +0.048 A 
ATOM     32  C   UNL     1      -3.404  -2.204  -2.258  0.00  0.00    +0.138 A 
BRANCH  32  33
ATOM     33  O   UNL     1      -2.518  -2.417  -3.265  0.00  0.00    -0.505 OA
ATOM     34  H   UNL     1      -1.951  -3.189  -3.133  0.00  0.00    +0.292 HD
ENDBRANCH  32  33
BRANCH  29  35
ATOM     35  C   UNL     1      -6.181  -1.533   0.880  0.00  0.00    +0.258 C 
ATOM     36  O   UNL     1      -7.281  -2.042   0.833  0.00  0.00    -0.296 OA
ENDBRANCH  29  35
ENDBRANCH  25  27
ENDBRANCH  22  23
ENDBRANCH  20  22
ENDBRANCH   1  20
TORSDOF 7
