REMARK  Name = ZINC36309651
REMARK  15 active torsions:
REMARK  status: ('A' for Active; 'I' for Inactive)
REMARK    1  A    between atoms: C_1  and  C_2
REMARK    2  A    between atoms: C_2  and  C_3
REMARK    3  A    between atoms: C_2  and  O_4
REMARK    4  A    between atoms: O_4  and  C_5
REMARK    5  A    between atoms: C_5  and  C_6
REMARK    6  A    between atoms: C_6  and  C_8
REMARK    7  A    between atoms: C_6  and  O_36
REMARK    8  A    between atoms: C_8  and  N_9
REMARK    9  A    between atoms: N_9  and  C_10
REMARK   10  A    between atoms: N_9  and  C_14
REMARK   11  A    between atoms: C_10  and  C_11
REMARK   12  A    between atoms: C_14  and  C_15
REMARK   13  A    between atoms: C_25  and  C_27
REMARK   14  A    between atoms: C_27  and  O_28
REMARK   15  A    between atoms: O_28  and  C_29
REMARK                            x       y       z     vdW  Elec       q    Type
REMARK                         _______ _______ _______ _____ _____    ______ ____
ROOT
ATOM      1  C   UNL     1      -6.189  -5.693  -1.354  0.00  0.00    +0.200 C 
ATOM      2  O   UNL     1      -7.000  -4.906  -0.913  0.00  0.00    -0.278 OA
ATOM      3  N   UNL     1      -6.576  -6.937  -1.698  0.00  0.00    -0.292 N 
ATOM      4  C   UNL     1      -5.600  -7.901  -2.228  0.00  0.00    +0.113 C 
ATOM      5  C   UNL     1      -5.477  -9.062  -1.229  0.00  0.00    +0.061 C 
ATOM      6  C   UNL     1      -6.845  -9.438  -0.760  0.00  0.00    -0.004 A 
ATOM      7  C   UNL     1      -7.994  -8.717  -0.869  0.00  0.00    -0.014 A 
ATOM      8  C   UNL     1      -9.147  -9.293  -0.339  0.00  0.00    +0.013 A 
ATOM      9  C   UNL     1      -9.088 -10.513   0.242  0.00  0.00    +0.046 A 
ATOM     10  S   UNL     1      -7.358 -10.921   0.066  0.00  0.00    -0.101 S 
ATOM     11  C   UNL     1      -7.977  -7.351  -1.544  0.00  0.00    +0.144 C 
ENDROOT
BRANCH   1  12
ATOM     12  C   UNL     1      -4.749  -5.279  -1.516  0.00  0.00    +0.019 C 
BRANCH  12  13
ATOM     13  N   UNL     1      -4.587  -3.888  -1.074  0.00  0.00    +0.387 N 
ATOM     14  H   UNL     1      -5.240  -3.299  -1.569  0.00  0.00    -0.081 HD
BRANCH  13  15
ATOM     15  C   UNL     1      -3.216  -3.442  -1.356  0.00  0.00    -0.044 C 
BRANCH  15  16
ATOM     16  C   UNL     1      -3.012  -3.344  -2.869  0.00  0.00    +0.124 C 
BRANCH  16  17
ATOM     17  O   UNL     1      -3.026  -4.655  -3.437  0.00  0.00    -0.391 OA
ATOM     18  H   UNL     1      -2.337  -5.241  -3.094  0.00  0.00    +0.210 HD
ENDBRANCH  16  17
BRANCH  16  19
ATOM     19  C   UNL     1      -1.666  -2.677  -3.160  0.00  0.00    +0.189 C 
BRANCH  19  20
ATOM     20  O   UNL     1      -1.527  -2.481  -4.569  0.00  0.00    -0.375 OA
BRANCH  20  22
ATOM     21  C   UNL     1       0.105  -2.341  -6.346  0.00  0.00    +0.037 C 
ATOM     22  C   UNL     1      -0.297  -1.860  -4.950  0.00  0.00    +0.112 C 
ATOM     23  C   UNL     1      -0.476  -0.341  -4.966  0.00  0.00    +0.037 C 
ENDBRANCH  20  22
ENDBRANCH  19  20
ENDBRANCH  16  19
ENDBRANCH  15  16
ENDBRANCH  13  15
BRANCH  13  24
ATOM     24  C   UNL     1      -4.843  -3.800   0.370  0.00  0.00    -0.075 C 
BRANCH  24  25
ATOM     25  C   UNL     1      -4.808  -2.334   0.805  0.00  0.00    -0.028 C 
ATOM     26  C   UNL     1      -3.668  -1.899   1.729  0.00  0.00    +0.002 C 
ATOM     27  C   UNL     1      -5.090  -2.027   2.277  0.00  0.00    +0.002 C 
ENDBRANCH  24  25
ENDBRANCH  13  24
ENDBRANCH  12  13
ENDBRANCH   1  12
BRANCH  11  28
ATOM     28  C   UNL     1      -8.643  -7.449  -2.918  0.00  0.00    +0.256 C 
BRANCH  28  29
ATOM     29  O   UNL     1      -8.025  -8.494  -3.673  0.00  0.00    -0.490 OA
BRANCH  29  30
ATOM     30  C   UNL     1      -8.502  -8.714  -4.926  0.00  0.00    +0.123 A 
ATOM     31  C   UNL     1      -9.540  -7.937  -5.421  0.00  0.00    +0.046 A 
ATOM     32  C   UNL     1     -10.024  -8.162  -6.695  0.00  0.00    +0.006 A 
ATOM     33  C   UNL     1      -9.476  -9.161  -7.478  0.00  0.00    +0.038 A 
ATOM     34  C   UNL     1      -8.440  -9.938  -6.988  0.00  0.00    +0.127 A 
ATOM     35  C   UNL     1      -7.948  -9.712  -5.714  0.00  0.00    +0.084 A 
ATOM     36  F   UNL     1      -7.906 -10.914  -7.755  0.00  0.00    -0.205 F 
ENDBRANCH  29  30
ENDBRANCH  28  29
ENDBRANCH  11  28
TORSDOF 13
