REMARK  Name = ZINC00486895
REMARK  3 active torsions:
REMARK  status: ('A' for Active; 'I' for Inactive)
REMARK    1  A    between atoms: C_1  and  C_2
REMARK    2  A    between atoms: N_19  and  C_22
REMARK    3  A    between atoms: C_22  and  C_23
REMARK                            x       y       z     vdW  Elec       q    Type
REMARK                         _______ _______ _______ _____ _____    ______ ____
ROOT
ATOM      1  C   UNL     1      -0.718   1.950  -1.258  0.00  0.00    +0.048 C 
ATOM      2  C   UNL     1      -0.018   1.458   0.010  0.00  0.00    +0.151 C 
ATOM      3  C   UNL     1       1.411   1.947  -0.001  0.00  0.00    +0.053 A 
ATOM      4  C   UNL     1       2.467   1.137  -0.241  0.00  0.00    -0.015 A 
ATOM      5  C   UNL     1       3.656   1.962  -0.170  0.00  0.00    +0.003 A 
ATOM      6  C   UNL     1       5.016   1.680  -0.332  0.00  0.00    +0.010 A 
ATOM      7  C   UNL     1       5.889   2.731  -0.190  0.00  0.00    +0.001 A 
ATOM      8  C   UNL     1       5.455   4.014   0.099  0.00  0.00    +0.002 A 
ATOM      9  C   UNL     1       4.115   4.321   0.264  0.00  0.00    +0.026 A 
ATOM     10  C   UNL     1       3.206   3.275   0.126  0.00  0.00    +0.047 A 
ATOM     11  N   UNL     1       1.845   3.226   0.221  0.00  0.00    -0.356 N 
ATOM     12  H   UNL     1       1.272   3.984   0.415  0.00  0.00    +0.166 HD
ATOM     13  C   UNL     1       2.368  -0.340  -0.521  0.00  0.00    +0.056 C 
ATOM     14  C   UNL     1       0.929  -0.679  -0.926  0.00  0.00    +0.114 C 
ATOM     15  N   UNL     1       0.002  -0.004   0.002  0.00  0.00    -0.281 N 
ATOM     16  C   UNL     1      -0.768  -0.741   0.807  0.00  0.00    +0.234 C 
ATOM     17  O   UNL     1      -0.786  -1.941   0.633  0.00  0.00    -0.274 OA
ATOM     18  C   UNL     1      -1.608  -0.182   1.909  0.00  0.00    +0.204 C 
ATOM     19  N   UNL     1      -1.460   1.259   2.035  0.00  0.00    -0.287 N 
ATOM     20  C   UNL     1      -0.748   2.005   1.191  0.00  0.00    +0.246 C 
ATOM     21  O   UNL     1      -0.691   3.200   1.395  0.00  0.00    -0.273 OA
ENDROOT
BRANCH  19  22
ATOM     22  C   UNL     1      -2.131   1.927   3.153  0.00  0.00    +0.135 C 
BRANCH  22  23
ATOM     23  C   UNL     1      -1.206   1.967   4.342  0.00  0.00    -0.016 C 
ATOM     24  C   UNL     1      -0.926   3.111   4.916  0.00  0.00    +0.005 C 
ENDBRANCH  22  23
ENDBRANCH  19  22
TORSDOF 2
