REMARK  Name = ZINC39560806
REMARK  8 active torsions:
REMARK  status: ('A' for Active; 'I' for Inactive)
REMARK    1  A    between atoms: C_1  and  O_2
REMARK    2  A    between atoms: O_2  and  C_3
REMARK    3  A    between atoms: C_3  and  C_5
REMARK    4  A    between atoms: C_20  and  C_33
REMARK    5  A    between atoms: C_23  and  N_26
REMARK    6  A    between atoms: C_29  and  O_32
REMARK    7  A    between atoms: C_36  and  S_39
REMARK    8  A    between atoms: S_39  and  C_40
REMARK                            x       y       z     vdW  Elec       q    Type
REMARK                         _______ _______ _______ _____ _____    ______ ____
ROOT
ATOM      1  C   UNL     1       0.657  -2.104  -1.120  0.00  0.00    +0.172 C 
ATOM      2  C   UNL     1       1.517  -2.640   0.034  0.00  0.00    +0.067 C 
ATOM      3  C   UNL     1       2.953  -2.277  -0.252  0.00  0.00    -0.017 C 
ATOM      4  C   UNL     1       4.019  -2.273   0.563  0.00  0.00    -0.013 C 
ATOM      5  C   UNL     1       4.147  -2.625   2.018  0.00  0.00    +0.064 C 
ATOM      6  C   UNL     1       5.572  -2.451   2.460  0.00  0.00    -0.022 C 
ATOM      7  C   UNL     1       6.566  -2.046   1.676  0.00  0.00    -0.002 C 
ATOM      8  C   UNL     1       6.405  -1.724   0.313  0.00  0.00    +0.028 C 
ATOM      9  C   UNL     1       5.126  -1.843  -0.230  0.00  0.00    +0.068 C 
ATOM     10  N   UNL     1       4.681  -1.611  -1.473  0.00  0.00    -0.250 NA
ATOM     11  C   UNL     1       3.397  -1.859  -1.526  0.00  0.00    +0.063 C 
ATOM     12  C   UNL     1       2.469  -1.750  -2.710  0.00  0.00    +0.106 C 
ATOM     13  N   UNL     1       1.244  -2.503  -2.403  0.00  0.00    -0.274 NA
ATOM     14  C   UNL     1       0.275  -2.393  -3.500  0.00  0.00    +0.087 C 
ATOM     15  C   UNL     1       0.872  -3.007  -4.768  0.00  0.00    +0.008 C 
ATOM     16  C   UNL     1       2.169  -2.277  -5.127  0.00  0.00    -0.065 C 
ATOM     17  C   UNL     1       3.142  -2.339  -3.951  0.00  0.00    +0.010 C 
ENDROOT
BRANCH  16  18
ATOM     18  N   UNL     1       1.872  -0.869  -5.425  0.00  0.00    +0.383 N 
ATOM     19  C   UNL     1       3.107  -0.167  -5.859  0.00  0.00    -0.076 C 
ATOM     20  C   UNL     1       2.562   1.052  -6.645  0.00  0.00    +0.011 C 
ATOM     21  C   UNL     1       1.330   0.471  -7.375  0.00  0.00    +0.096 C 
ATOM     22  C   UNL     1       0.933  -0.776  -6.564  0.00  0.00    -0.047 C 
ATOM     23  H   UNL     1       1.480  -0.416  -4.613  0.00  0.00    -0.081 HD
BRANCH  21  24
ATOM     24  O   UNL     1       1.673   0.106  -8.713  0.00  0.00    -0.394 OA
ATOM     25  H   UNL     1       1.972   0.846  -9.259  0.00  0.00    +0.210 HD
ENDBRANCH  21  24
ENDBRANCH  16  18
BRANCH  14  26
ATOM     26  C   UNL     1      -0.988  -3.127  -3.131  0.00  0.00    -0.030 A 
ATOM     27  C   UNL     1      -0.913  -4.337  -2.464  0.00  0.00    +0.006 A 
ATOM     28  C   UNL     1      -2.068  -5.013  -2.125  0.00  0.00    +0.015 A 
ATOM     29  C   UNL     1      -3.308  -4.476  -2.454  0.00  0.00    +0.008 A 
ATOM     30  C   UNL     1      -3.379  -3.261  -3.124  0.00  0.00    +0.015 A 
ATOM     31  C   UNL     1      -2.220  -2.588  -3.455  0.00  0.00    +0.006 A 
BRANCH  29  32
ATOM     32  S   UNL     1      -4.784  -5.336  -2.024  0.00  0.00    -0.129 S 
ATOM     33  C   UNL     1      -6.111  -4.268  -2.647  0.00  0.00    +0.090 C 
ENDBRANCH  29  32
ENDBRANCH  14  26
BRANCH   1  34
ATOM     34  C   UNL     1       0.598  -0.600  -1.043  0.00  0.00    +0.325 C 
ATOM     35  O   UNL     1       1.576   0.058  -1.309  0.00  0.00    -0.249 OA
BRANCH  34  37
ATOM     36  C   UNL     1      -0.525   1.437  -0.626  0.00  0.00    +0.280 C 
ATOM     37  O   UNL     1      -0.541   0.009  -0.678  0.00  0.00    -0.467 OA
ENDBRANCH  34  37
ENDBRANCH   1  34
TORSDOF 6
