REMARK  Name = ZINC59136249
REMARK  4 active torsions:
REMARK  status: ('A' for Active; 'I' for Inactive)
REMARK    1  A    between atoms: C_1  and  C_2
REMARK    2  A    between atoms: C_2  and  C_10
REMARK    3  A    between atoms: C_3  and  C_4
REMARK    4  A    between atoms: N_17  and  C_20
REMARK                            x       y       z     vdW  Elec       q    Type
REMARK                         _______ _______ _______ _____ _____    ______ ____
ROOT
ATOM      1  C   UNL     1      -0.084  -0.751  -1.219  0.00  0.00    +0.021 C 
ATOM      2  C   UNL     1       0.035  -0.353  -2.549  0.00  0.00    +0.101 C 
ATOM      3  C   UNL     1       0.357   1.034  -2.910  0.00  0.00    +0.274 C 
ATOM      4  O   UNL     1       0.548   1.969  -1.954  0.00  0.00    -0.268 OA
ATOM      5  N   UNL     1       0.456   1.346  -4.191  0.00  0.00    -0.153 NA
ATOM      6  C   UNL     1       0.273   0.446  -5.153  0.00  0.00    +0.171 C 
ATOM      7  S   UNL     1       0.424   0.958  -6.779  0.00  0.00    -0.016 S 
ATOM      8  N   UNL     1      -0.024  -0.841  -4.918  0.00  0.00    -0.213 N 
ATOM      9  C   UNL     1      -0.151  -1.308  -3.658  0.00  0.00    +0.262 C 
ATOM     10  O   UNL     1      -0.415  -2.477  -3.444  0.00  0.00    -0.269 OA
ENDROOT
BRANCH   8  11
ATOM     11  C   UNL     1      -0.198  -1.716  -5.999  0.00  0.00    +0.078 A 
ATOM     12  C   UNL     1       0.886  -2.420  -6.506  0.00  0.00    +0.027 A 
ATOM     13  C   UNL     1       0.711  -3.283  -7.570  0.00  0.00    +0.002 A 
ATOM     14  C   UNL     1      -0.542  -3.446  -8.133  0.00  0.00    +0.003 A 
ATOM     15  C   UNL     1      -1.624  -2.748  -7.631  0.00  0.00    +0.040 A 
ATOM     16  C   UNL     1      -1.458  -1.887  -6.562  0.00  0.00    +0.145 A 
ATOM     17  F   UNL     1      -2.517  -1.208  -6.068  0.00  0.00    -0.204 F 
ENDBRANCH   8  11
BRANCH   1  19
ATOM     18  C   UNL     1      -1.184   1.197  -0.064  0.00  0.00    +0.044 C 
ATOM     19  C   UNL     1      -0.057   0.206  -0.198  0.00  0.00    -0.049 C 
ATOM     20  C   UNL     1       0.987   0.241   0.674  0.00  0.00    +0.011 C 
BRANCH  20  21
ATOM     21  C   UNL     1       0.937   1.128   1.843  0.00  0.00    -0.025 A 
ATOM     22  C   UNL     1      -0.291   1.434   2.443  0.00  0.00    +0.008 A 
ATOM     23  C   UNL     1      -0.328   2.268   3.540  0.00  0.00    +0.001 A 
ATOM     24  C   UNL     1       0.844   2.802   4.048  0.00  0.00    +0.000 A 
ATOM     25  C   UNL     1       2.062   2.505   3.461  0.00  0.00    +0.001 A 
ATOM     26  C   UNL     1       2.118   1.668   2.367  0.00  0.00    +0.008 A 
ENDBRANCH  20  21
ENDBRANCH   1  19
TORSDOF 3
