REMARK  Name = ZINC19320354
REMARK  7 active torsions:
REMARK  status: ('A' for Active; 'I' for Inactive)
REMARK    1  A    between atoms: C_1  and  C_2
REMARK    2  A    between atoms: C_4  and  C_28
REMARK    3  A    between atoms: C_8  and  C_27
REMARK    4  A    between atoms: C_10  and  N_11
REMARK    5  A    between atoms: N_15  and  C_18
REMARK    6  A    between atoms: C_18  and  C_19
REMARK    7  A    between atoms: C_19  and  C_20
REMARK                            x       y       z     vdW  Elec       q    Type
REMARK                         _______ _______ _______ _____ _____    ______ ____
ROOT
ATOM      1  N   UNL     1       0.094  -6.131   1.077  0.00  0.00    -0.181 NA
ATOM      2  C   UNL     1       0.110  -6.809   2.207  0.00  0.00    +0.185 C 
ATOM      3  N   UNL     1       0.101  -6.182   3.438  0.00  0.00    -0.304 N 
ATOM      4  C   UNL     1       0.971  -6.746   4.483  0.00  0.00    +0.193 C 
ATOM      5  N   UNL     1       0.754  -8.200   4.544  0.00  0.00    -0.271 NA
ATOM      6  C   UNL     1       1.007  -8.825   3.236  0.00  0.00    +0.193 C 
ATOM      7  N   UNL     1       0.129  -8.190   2.233  0.00  0.00    -0.304 N 
ATOM      8  H   UNL     1      -0.408  -8.716   1.621  0.00  0.00    +0.150 HD
ATOM      9  H   UNL     1      -0.454  -5.404   3.607  0.00  0.00    +0.150 HD
ENDROOT
BRANCH   1  19
ATOM     10  C   UNL     1      -0.018   1.503   0.010  0.00  0.00    +0.044 C 
ATOM     11  C   UNL     1       0.002  -0.004   0.002  0.00  0.00    -0.049 A 
ATOM     12  C   UNL     1       0.006  -0.684  -1.214  0.00  0.00    +0.008 A 
ATOM     13  C   UNL     1       0.024  -2.045  -1.258  0.00  0.00    -0.024 A 
ATOM     14  C   UNL     1       0.040  -2.777  -0.061  0.00  0.00    +0.079 A 
ATOM     15  C   UNL     1       0.037  -2.084   1.177  0.00  0.00    +0.022 A 
ATOM     16  C   UNL     1       0.022  -0.682   1.184  0.00  0.00    +0.015 A 
ATOM     17  C   UNL     1       0.054  -2.836   2.367  0.00  0.00    +0.051 A 
ATOM     18  N   UNL     1       0.072  -4.148   2.282  0.00  0.00    -0.215 NA
ATOM     19  C   UNL     1       0.075  -4.771   1.100  0.00  0.00    +0.254 A 
ATOM     20  N   UNL     1       0.059  -4.115  -0.051  0.00  0.00    -0.210 NA
ATOM     21  C   UNL     1       0.051  -2.151   3.710  0.00  0.00    +0.066 C 
ATOM     22  C   UNL     1       0.027  -2.761  -2.585  0.00  0.00    +0.046 C 
ENDBRANCH   1  19
BRANCH   5  23
ATOM     23  C   UNL     1       1.584  -8.813   5.589  0.00  0.00    +0.092 C 
BRANCH  23  24
ATOM     24  C   UNL     1       1.156 -10.267   5.794  0.00  0.00    +0.050 C 
BRANCH  24  25
ATOM     25  C   UNL     1       2.008 -10.896   6.866  0.00  0.00    -0.046 A 
ATOM     26  C   UNL     1       3.189 -11.529   6.528  0.00  0.00    +0.003 A 
ATOM     27  C   UNL     1       3.971 -12.106   7.511  0.00  0.00    +0.000 A 
ATOM     28  C   UNL     1       3.571 -12.049   8.833  0.00  0.00    +0.000 A 
ATOM     29  C   UNL     1       2.389 -11.416   9.172  0.00  0.00    +0.000 A 
ATOM     30  C   UNL     1       1.610 -10.835   8.189  0.00  0.00    +0.003 A 
ENDBRANCH  24  25
ENDBRANCH  23  24
ENDBRANCH   5  23
TORSDOF 4
