REMARK  Name = ZINC22109091
REMARK  13 active torsions:
REMARK  status: ('A' for Active; 'I' for Inactive)
REMARK    1  A    between atoms: C_1  and  O_2
REMARK    2  A    between atoms: O_2  and  C_3
REMARK    3  A    between atoms: C_5  and  C_19
REMARK    4  A    between atoms: C_8  and  O_9
REMARK    5  A    between atoms: O_9  and  C_10
REMARK    6  A    between atoms: C_10  and  C_11
REMARK    7  A    between atoms: C_19  and  N_20
REMARK    8  A    between atoms: N_20  and  C_21
REMARK    9  A    between atoms: C_21  and  C_22
REMARK   10  A    between atoms: C_22  and  C_23
REMARK   11  A    between atoms: C_23  and  S_24
REMARK   12  A    between atoms: S_24  and  C_25
REMARK   13  A    between atoms: N_29  and  C_30
REMARK                            x       y       z     vdW  Elec       q    Type
REMARK                         _______ _______ _______ _____ _____    ______ ____
ROOT
ATOM      1  C   UNL     1       2.761   4.069  -0.002  0.00  0.00    -0.047 C 
ENDROOT
BRANCH   1   4
ATOM      2  C   UNL     1       2.628   7.642   1.218  0.00  0.00    +0.162 A 
ATOM      3  C   UNL     1       2.684   6.258   1.208  0.00  0.00    +0.051 A 
ATOM      4  C   UNL     1       2.700   5.575   0.006  0.00  0.00    -0.061 A 
ATOM      5  C   UNL     1       2.667   6.271  -1.188  0.00  0.00    +0.005 A 
ATOM      6  C   UNL     1       2.605   7.652  -1.185  0.00  0.00    +0.049 A 
ATOM      7  C   UNL     1       2.589   8.342   0.016  0.00  0.00    +0.162 A 
BRANCH   2   9
ATOM      8  C   UNL     1       2.654   7.531   3.593  0.00  0.00    +0.277 C 
ATOM      9  O   UNL     1       2.612   8.315   2.400  0.00  0.00    -0.491 OA
ENDBRANCH   2   9
BRANCH   7  10
ATOM     10  O   UNL     1       2.534   9.701   0.020  0.00  0.00    -0.484 OA
BRANCH  10  11
ATOM     11  C   UNL     1       2.496  10.353  -1.251  0.00  0.00    +0.269 C 
BRANCH  11  12
ATOM     12  C   UNL     1       2.439  11.845  -1.049  0.00  0.00    +0.043 A 
ATOM     13  C   UNL     1       1.214  12.484  -0.950  0.00  0.00    +0.131 A 
ATOM     14  C   UNL     1       1.163  13.854  -0.758  0.00  0.00    +0.039 A 
ATOM     15  C   UNL     1       2.333  14.585  -0.677  0.00  0.00    +0.004 A 
ATOM     16  C   UNL     1       3.555  13.948  -0.781  0.00  0.00    +0.020 A 
ATOM     17  C   UNL     1       3.608  12.578  -0.967  0.00  0.00    +0.050 A 
ATOM     18 CL   UNL     1       5.144  11.779  -1.097  0.00  0.00    -0.083 Cl
ATOM     19  F   UNL     1       0.070  11.770  -1.035  0.00  0.00    -0.205 F 
ENDBRANCH  11  12
ENDBRANCH  10  11
ENDBRANCH   7  10
ENDBRANCH   1   4
BRANCH   1  20
ATOM     20  N   UNL     1       1.397   3.524   0.008  0.00  0.00    +0.382 N 
ATOM     21  H   UNL     1       0.873   3.865   0.913  0.00  0.00    -0.085 HD
ATOM     22  H   UNL     1       0.855   3.874  -0.884  0.00  0.00    -0.085 HD
BRANCH  20  23
ATOM     23  C   UNL     1       1.417   2.055  -0.000  0.00  0.00    -0.081 C 
BRANCH  23  24
ATOM     24  C   UNL     1      -0.019   1.526   0.010  0.00  0.00    -0.008 C 
BRANCH  24  25
ATOM     25  C   UNL     1       0.002  -0.004   0.002  0.00  0.00    +0.075 C 
BRANCH  25  26
ATOM     26  S   UNL     1      -1.696  -0.631   0.015  0.00  0.00    -0.084 S 
BRANCH  26  27
ATOM     27  C   UNL     1      -1.383  -2.364   0.003  0.00  0.00    +0.214 A 
ATOM     28  N   UNL     1      -0.202  -2.946  -0.011  0.00  0.00    -0.101 NA
ATOM     29  N   UNL     1      -0.330  -4.224  -0.017  0.00  0.00    -0.022 NA
ATOM     30  N   UNL     1      -1.577  -4.551  -0.007  0.00  0.00    -0.038 NA
ATOM     31  N   UNL     1      -2.312  -3.353   0.012  0.00  0.00    -0.187 N 
BRANCH  31  32
ATOM     32  C   UNL     1      -3.707  -3.209   0.033  0.00  0.00    +0.070 A 
ATOM     33  C   UNL     1      -4.289  -2.166   0.740  0.00  0.00    +0.028 A 
ATOM     34  C   UNL     1      -5.663  -2.024   0.754  0.00  0.00    +0.002 A 
ATOM     35  C   UNL     1      -6.459  -2.927   0.074  0.00  0.00    +0.000 A 
ATOM     36  C   UNL     1      -5.883  -3.971  -0.627  0.00  0.00    +0.002 A 
ATOM     37  C   UNL     1      -4.510  -4.114  -0.649  0.00  0.00    +0.028 A 
ENDBRANCH  31  32
ENDBRANCH  26  27
ENDBRANCH  25  26
ENDBRANCH  24  25
ENDBRANCH  23  24
ENDBRANCH  20  23
ENDBRANCH   1  20
TORSDOF 12
