REMARK  Name = ZINC52828700
REMARK  7 active torsions:
REMARK  status: ('A' for Active; 'I' for Inactive)
REMARK    1  A    between atoms: C_1  and  C_2
REMARK    2  A    between atoms: C_7  and  N_12
REMARK    3  A    between atoms: C_9  and  C_11
REMARK    4  A    between atoms: C_13  and  C_15
REMARK    5  A    between atoms: C_15  and  C_17
REMARK    6  A    between atoms: C_15  and  N_18
REMARK    7  A    between atoms: C_21  and  C_24
REMARK                            x       y       z     vdW  Elec       q    Type
REMARK                         _______ _______ _______ _____ _____    ______ ____
ROOT
ATOM      1  N   UNL     1       1.395  -5.563   4.516  0.00  0.00    +0.387 N 
ATOM      2  C   UNL     1       1.671  -6.550   3.465  0.00  0.00    -0.077 C 
ATOM      3  C   UNL     1       1.033  -7.890   3.838  0.00  0.00    -0.006 C 
ATOM      4  C   UNL     1       1.619  -8.377   5.166  0.00  0.00    +0.072 C 
ATOM      5  C   UNL     1       1.390  -7.306   6.237  0.00  0.00    -0.006 C 
ATOM      6  C   UNL     1       2.015  -5.988   5.776  0.00  0.00    -0.077 C 
ATOM      7  H   UNL     1       0.397  -5.482   4.644  0.00  0.00    -0.081 HD
ENDROOT
BRANCH   4   8
ATOM      8  C   UNL     1       0.939  -9.656   5.579  0.00  0.00    +0.221 C 
ATOM      9  O   UNL     1       0.069 -10.133   4.880  0.00  0.00    -0.275 OA
ATOM     10  N   UNL     1       1.296 -10.271   6.724  0.00  0.00    -0.270 N 
ATOM     11  C   UNL     1       0.742 -11.507   7.053  0.00  0.00    +0.125 A 
ATOM     12  C   UNL     1       1.196 -12.187   8.178  0.00  0.00    +0.044 A 
ATOM     13  C   UNL     1       0.637 -13.413   8.494  0.00  0.00    +0.005 A 
ATOM     14  C   UNL     1      -0.359 -13.918   7.671  0.00  0.00    +0.020 A 
ATOM     15  C   UNL     1      -0.762 -13.189   6.570  0.00  0.00    +0.113 A 
ATOM     16  N   UNL     1      -0.215 -12.020   6.296  0.00  0.00    -0.240 NA
ATOM     17  H   UNL     1       1.938  -9.853   7.319  0.00  0.00    +0.156 HD
ENDBRANCH   4   8
BRANCH   1  18
ATOM     18  C   UNL     1       1.942  -4.259   4.117  0.00  0.00    +0.016 C 
ATOM     19  C   UNL     1       1.706  -3.243   5.236  0.00  0.00    -0.004 C 
BRANCH  18  21
ATOM     20  N   UNL     1       1.905  -2.973   2.004  0.00  0.00    -0.314 N 
ATOM     21  C   UNL     1       1.258  -3.790   2.859  0.00  0.00    +0.199 C 
ATOM     22  O   UNL     1       0.124  -4.146   2.617  0.00  0.00    -0.278 OA
ATOM     23  H   UNL     1       2.811  -2.688   2.199  0.00  0.00    +0.149 HD
BRANCH  20  29
ATOM     24  C   UNL     1       1.782   0.607  -1.404  0.00  0.00    +0.008 C 
ATOM     25  C   UNL     1       1.163  -0.717  -0.949  0.00  0.00    -0.009 C 
ATOM     26  C   UNL     1       1.340  -1.766  -2.048  0.00  0.00    +0.003 C 
ATOM     27  C   UNL     1       0.720  -3.090  -1.594  0.00  0.00    +0.002 C 
ATOM     28  C   UNL     1       1.415  -3.566  -0.317  0.00  0.00    +0.022 C 
ATOM     29  C   UNL     1       1.239  -2.517   0.782  0.00  0.00    +0.076 C 
ATOM     30  C   UNL     1       1.858  -1.193   0.328  0.00  0.00    +0.009 C 
ATOM     31  C   UNL     1       1.682  -0.144   1.427  0.00  0.00    +0.009 C 
ENDBRANCH  20  29
ENDBRANCH  18  21
ENDBRANCH   1  18
TORSDOF 4
