REMARK  Name = ZINC63832678
REMARK  7 active torsions:
REMARK  status: ('A' for Active; 'I' for Inactive)
REMARK    1  A    between atoms: C_1  and  C_2
REMARK    2  A    between atoms: C_2  and  C_3
REMARK    3  A    between atoms: C_3  and  C_4
REMARK    4  A    between atoms: C_4  and  C_5
REMARK    5  A    between atoms: C_11  and  C_13
REMARK    6  A    between atoms: N_16  and  C_19
REMARK    7  A    between atoms: C_19  and  C_20
REMARK                            x       y       z     vdW  Elec       q    Type
REMARK                         _______ _______ _______ _____ _____    ______ ____
ROOT
ATOM      1  C   UNL     1       3.088  -0.986  -5.420  0.00  0.00    +0.034 C 
ATOM      2  C   UNL     1       4.104  -0.097  -4.696  0.00  0.00    -0.009 C 
ATOM      3  C   UNL     1       4.584   1.000  -5.648  0.00  0.00    -0.078 C 
ATOM      4  N   UNL     1       3.441   1.813  -6.080  0.00  0.00    +0.382 N 
ATOM      5  C   UNL     1       2.497   0.983  -6.837  0.00  0.00    -0.078 C 
ATOM      6  C   UNL     1       1.937  -0.115  -5.931  0.00  0.00    -0.009 C 
ATOM      7  H   UNL     1       2.976   2.195  -5.270  0.00  0.00    -0.081 HD
ENDROOT
BRANCH   1  14
ATOM      8  C   UNL     1       1.444  -2.513  -2.505  0.00  0.00    +0.110 A 
ATOM      9  N   UNL     1       1.570  -3.838  -2.714  0.00  0.00    -0.311 N 
ATOM     10  H   UNL     1       1.209  -4.468  -2.071  0.00  0.00    +0.170 HD
ATOM     11  C   UNL     1       2.200  -4.289  -3.821  0.00  0.00    +0.252 A 
ATOM     12  O   UNL     1       2.321  -5.485  -4.025  0.00  0.00    -0.268 OA
ATOM     13  C   UNL     1       2.713  -3.346  -4.736  0.00  0.00    +0.093 A 
ATOM     14  C   UNL     1       2.553  -2.021  -4.465  0.00  0.00    +0.051 A 
ATOM     15  N   UNL     1       1.915  -1.640  -3.355  0.00  0.00    -0.238 NA
BRANCH   8  16
ATOM     16  C   UNL     1       0.739  -2.027  -1.265  0.00  0.00    +0.074 C 
BRANCH  16  17
ATOM     17  C   UNL     1       0.718  -0.497  -1.257  0.00  0.00    +0.007 C 
BRANCH  17  19
ATOM     18  C   UNL     1      -0.019   1.526   0.010  0.00  0.00    +0.004 C 
ATOM     19  C   UNL     1       0.002  -0.004   0.002  0.00  0.00    -0.003 C 
ENDBRANCH  17  19
ENDBRANCH  16  17
ENDBRANCH   8  16
ENDBRANCH   1  14
BRANCH   4  20
ATOM     20  C   UNL     1       3.917   2.912  -6.931  0.00  0.00    -0.043 C 
BRANCH  20  21
ATOM     21  C   UNL     1       2.763   3.817  -7.274  0.00  0.00    -0.060 A 
ATOM     22  C   UNL     1       2.005   3.571  -8.404  0.00  0.00    +0.005 A 
ATOM     23  C   UNL     1       0.946   4.400  -8.723  0.00  0.00    +0.049 A 
ATOM     24  C   UNL     1       0.641   5.482  -7.910  0.00  0.00    +0.162 A 
ATOM     25  C   UNL     1       1.402   5.728  -6.773  0.00  0.00    +0.162 A 
ATOM     26  C   UNL     1       2.460   4.890  -6.457  0.00  0.00    +0.051 A 
ATOM     27  O   UNL     1       1.115   6.779  -5.958  0.00  0.00    -0.485 OA
ATOM     28  C   UNL     1       0.281   7.808  -6.502  0.00  0.00    +0.270 C 
ATOM     29  C   UNL     1      -0.910   7.140  -7.204  0.00  0.00    +0.270 C 
ATOM     30  O   UNL     1      -0.402   6.292  -8.239  0.00  0.00    -0.485 OA
ENDBRANCH  20  21
ENDBRANCH   4  20
TORSDOF 6
