REMARK  Name = ZINC08949939
REMARK  9 active torsions:
REMARK  status: ('A' for Active; 'I' for Inactive)
REMARK    1  A    between atoms: C_1  and  C_2
REMARK    2  A    between atoms: N_7  and  C_10
REMARK    3  A    between atoms: C_10  and  C_11
REMARK    4  A    between atoms: C_11  and  C_13
REMARK    5  A    between atoms: C_13  and  C_23
REMARK    6  A    between atoms: C_26  and  C_27
REMARK    7  A    between atoms: C_27  and  O_29
REMARK    8  A    between atoms: O_29  and  C_30
REMARK    9  A    between atoms: C_30  and  C_31
REMARK                            x       y       z     vdW  Elec       q    Type
REMARK                         _______ _______ _______ _____ _____    ______ ____
ROOT
ATOM      1  C   UNL     1      -9.664  -0.823  -3.541  0.00  0.00    +0.046 C 
ATOM      2  C   UNL     1      -9.927  -1.255  -2.122  0.00  0.00    -0.015 A 
ATOM      3  C   UNL     1      -9.423  -0.506  -1.057  0.00  0.00    +0.076 A 
ATOM      4  C   UNL     1      -9.725  -0.993   0.236  0.00  0.00    +0.116 A 
ATOM      5  N   UNL     1      -9.305  -0.374   1.332  0.00  0.00    -0.230 NA
ATOM      6  C   UNL     1      -8.592   0.718   1.271  0.00  0.00    +0.203 A 
ATOM      7  N   UNL     1      -8.240   1.279   0.088  0.00  0.00    -0.291 N 
ATOM      8  C   UNL     1      -8.617   0.736  -1.085  0.00  0.00    +0.263 A 
ATOM      9  O   UNL     1      -8.300   1.251  -2.143  0.00  0.00    -0.267 OA
ATOM     10  S   UNL     1     -10.684  -2.450  -0.090  0.00  0.00    -0.062 S 
ATOM     11  C   UNL     1     -10.661  -2.380  -1.874  0.00  0.00    +0.102 A 
ENDROOT
BRANCH  11  12
ATOM     12  C   UNL     1     -11.275  -3.300  -2.833  0.00  0.00    +0.347 C 
ATOM     13  O   UNL     1     -11.160  -3.100  -4.027  0.00  0.00    -0.244 OA
BRANCH  12  14
ATOM     14  O   UNL     1     -11.970  -4.369  -2.392  0.00  0.00    -0.456 OA
BRANCH  14  15
ATOM     15  C   UNL     1     -12.552  -5.238  -3.399  0.00  0.00    +0.268 C 
BRANCH  15  16
ATOM     16  C   UNL     1     -13.284  -6.369  -2.724  0.00  0.00    -0.010 A 
ATOM     17  C   UNL     1     -12.620  -7.546  -2.432  0.00  0.00    +0.007 A 
ATOM     18  C   UNL     1     -13.290  -8.581  -1.808  0.00  0.00    +0.000 A 
ATOM     19  C   UNL     1     -14.627  -8.444  -1.486  0.00  0.00    +0.000 A 
ATOM     20  C   UNL     1     -15.293  -7.270  -1.783  0.00  0.00    +0.000 A 
ATOM     21  C   UNL     1     -14.621  -6.232  -2.402  0.00  0.00    +0.007 A 
ENDBRANCH  15  16
ENDBRANCH  14  15
ENDBRANCH  12  14
ENDBRANCH  11  12
BRANCH   7  22
ATOM     22  C   UNL     1      -7.438   2.506   0.087  0.00  0.00    +0.206 C 
BRANCH  22  23
ATOM     23  C   UNL     1      -5.974   2.149   0.071  0.00  0.00    +0.195 C 
ATOM     24  O   UNL     1      -5.633   0.982   0.062  0.00  0.00    -0.289 OA
BRANCH  23  25
ATOM     25  C   UNL     1      -5.004   3.164   0.066  0.00  0.00    +0.124 C 
ATOM     26  C   UNL     1      -3.637   2.831   0.051  0.00  0.00    +0.091 C 
ATOM     27  N   UNL     1      -2.566   3.667   0.045  0.00  0.00    -0.307 N 
ATOM     28  C   UNL     1      -1.284   3.152   0.030  0.00  0.00    +0.046 A 
ATOM     29  C   UNL     1      -0.065   3.849   0.022  0.00  0.00    +0.024 A 
ATOM     30  C   UNL     1       1.131   3.173   0.008  0.00  0.00    +0.002 A 
ATOM     31  C   UNL     1       1.173   1.788   0.001  0.00  0.00    +0.001 A 
ATOM     32  C   UNL     1      -0.013   1.076   0.008  0.00  0.00    +0.017 A 
ATOM     33  C   UNL     1      -1.210   1.752   0.017  0.00  0.00    +0.035 A 
ATOM     34  S   UNL     1      -2.914   1.255   0.037  0.00  0.00    -0.071 S 
ATOM     35  H   UNL     1      -2.702   4.627   0.052  0.00  0.00    +0.153 HD
BRANCH  25  36
ATOM     36  C   UNL     1      -5.406   4.539   0.077  0.00  0.00    +0.105 C 
ATOM     37  N   UNL     1      -5.725   5.629   0.086  0.00  0.00    -0.191 NA
ENDBRANCH  25  36
ENDBRANCH  23  25
ENDBRANCH  22  23
ENDBRANCH   7  22
TORSDOF 8
