REMARK  Name = ZINC40373823
REMARK  9 active torsions:
REMARK  status: ('A' for Active; 'I' for Inactive)
REMARK    1  A    between atoms: C_1  and  C_2
REMARK    2  A    between atoms: C_2  and  C_27
REMARK    3  A    between atoms: C_4  and  N_10
REMARK    4  A    between atoms: C_6  and  C_8
REMARK    5  A    between atoms: C_6  and  C_9
REMARK    6  A    between atoms: N_10  and  C_11
REMARK    7  A    between atoms: C_12  and  C_25
REMARK    8  A    between atoms: C_14  and  C_16
REMARK    9  A    between atoms: C_21  and  N_22
REMARK                            x       y       z     vdW  Elec       q    Type
REMARK                         _______ _______ _______ _____ _____    ______ ____
ROOT
ATOM      1  C   UNL     1       1.746  -3.693  -2.816  0.00  0.00    +0.225 A 
ATOM      2  C   UNL     1       1.982  -4.081  -4.127  0.00  0.00    +0.201 A 
ATOM      3  N   UNL     1       1.538  -5.360  -4.248  0.00  0.00    -0.196 NA
ATOM      4  C   UNL     1       1.057  -5.745  -3.094  0.00  0.00    +0.233 A 
ATOM      5  O   UNL     1       1.178  -4.746  -2.199  0.00  0.00    -0.420 OA
ENDROOT
BRANCH   4   6
ATOM      6  C   UNL     1       0.477  -7.075  -2.814  0.00  0.00    +0.067 A 
ATOM      7  C   UNL     1       1.232  -8.229  -3.030  0.00  0.00    +0.015 A 
ATOM      8  C   UNL     1       0.685  -9.467  -2.766  0.00  0.00    +0.001 A 
ATOM      9  C   UNL     1      -0.610  -9.567  -2.289  0.00  0.00    +0.002 A 
ATOM     10  C   UNL     1      -1.364  -8.428  -2.073  0.00  0.00    +0.033 A 
ATOM     11  C   UNL     1      -0.827  -7.183  -2.327  0.00  0.00    +0.138 A 
BRANCH  11  12
ATOM     12  N   UNL     1      -1.633  -5.963  -2.089  0.00  0.00    +0.057 N 
ATOM     13  O   UNL     1      -2.720  -6.050  -1.568  0.00  0.00    -0.126 OA
ATOM     14  O   UNL     1      -1.204  -4.882  -2.417  0.00  0.00    -0.126 OA
ENDBRANCH  11  12
ENDBRANCH   4   6
BRANCH   1  15
ATOM     15  N   UNL     1       2.040  -2.471  -2.254  0.00  0.00    -0.310 N 
ATOM     16  H   UNL     1       2.452  -1.777  -2.792  0.00  0.00    +0.149 HD
BRANCH  15  20
ATOM     17  C   UNL     1       1.361   1.110   1.035  0.00  0.00    -0.010 C 
ATOM     18  C   UNL     1       1.262  -0.421   0.843  0.00  0.00    -0.072 C 
ATOM     19  C   UNL     1       1.553  -0.716  -0.625  0.00  0.00    +0.009 C 
ATOM     20  C   UNL     1       1.730  -2.219  -0.841  0.00  0.00    +0.071 C 
ATOM     21  C   UNL     1       2.898  -2.691   0.024  0.00  0.00    +0.009 C 
ATOM     22  C   UNL     1       2.616  -2.412   1.496  0.00  0.00    -0.072 C 
ATOM     23  N   UNL     1       2.207  -1.043   1.754  0.00  0.00    +0.386 N 
ATOM     24  C   UNL     1       3.929  -2.665   2.274  0.00  0.00    -0.010 C 
ATOM     25  C   UNL     1       1.581  -3.411   2.024  0.00  0.00    -0.010 C 
ATOM     26  C   UNL     1      -0.179  -0.823   1.176  0.00  0.00    -0.010 C 
ATOM     27  H   UNL     1       3.049  -0.459   1.789  0.00  0.00    -0.084 HD
ATOM     28  H   UNL     1       1.819  -0.996   2.701  0.00  0.00    -0.084 HD
ENDBRANCH  15  20
ENDBRANCH   1  15
BRANCH   2  29
ATOM     29  C   UNL     1       2.581  -3.285  -5.156  0.00  0.00    +0.124 C 
ATOM     30  N   UNL     1       3.055  -2.654  -5.973  0.00  0.00    -0.189 NA
ENDBRANCH   2  29
TORSDOF 5
