REMARK  Name = ZINC14457444
REMARK  10 active torsions:
REMARK  status: ('A' for Active; 'I' for Inactive)
REMARK    1  A    between atoms: C_1  and  C_2
REMARK    2  A    between atoms: C_2  and  C_3
REMARK    3  A    between atoms: C_3  and  C_5
REMARK    4  A    between atoms: C_3  and  N_6
REMARK    5  A    between atoms: N_6  and  S_7
REMARK    6  A    between atoms: S_7  and  C_10
REMARK    7  A    between atoms: C_23  and  C_26
REMARK    8  A    between atoms: C_29  and  O_33
REMARK    9  A    between atoms: C_30  and  O_32
REMARK   10  A    between atoms: O_33  and  C_34
REMARK                            x       y       z     vdW  Elec       q    Type
REMARK                         _______ _______ _______ _____ _____    ______ ____
ROOT
ATOM      1  C   UNL     1       0.245  -3.082   0.674  0.00  0.00    +0.106 A 
ATOM      2  C   UNL     1       1.485  -3.694   0.626  0.00  0.00    +0.030 A 
ATOM      3  C   UNL     1       1.695  -4.745  -0.244  0.00  0.00    +0.025 A 
ATOM      4  C   UNL     1       0.665  -5.184  -1.066  0.00  0.00    +0.031 A 
ATOM      5  C   UNL     1      -0.579  -4.573  -1.022  0.00  0.00    -0.018 A 
ATOM      6  C   UNL     1      -0.780  -3.521  -0.139  0.00  0.00    +0.034 A 
ATOM      7  C   UNL     1      -1.716  -5.010  -1.889  0.00  0.00    +0.049 C 
ATOM      8  C   UNL     1      -2.743  -5.788  -1.102  0.00  0.00    -0.023 C 
ATOM      9  C   UNL     1      -3.245  -6.751  -1.838  0.00  0.00    -0.030 C 
ATOM     10  C   UNL     1      -2.623  -6.741  -3.221  0.00  0.00    +0.033 C 
ATOM     11  C   UNL     1      -1.282  -5.977  -3.008  0.00  0.00    +0.029 C 
ATOM     12  C   UNL     1      -0.251  -6.972  -2.467  0.00  0.00    +0.105 C 
ATOM     13  N   UNL     1       0.893  -6.254  -1.939  0.00  0.00    -0.336 N 
ATOM     14  H   UNL     1       1.795  -6.505  -2.192  0.00  0.00    +0.147 HD
ENDROOT
BRANCH  12  15
ATOM     15  C   UNL     1      -0.865  -7.780  -1.354  0.00  0.00    -0.023 A 
ATOM     16  C   UNL     1      -0.792  -7.326  -0.050  0.00  0.00    +0.009 A 
ATOM     17  C   UNL     1      -1.359  -8.061   0.974  0.00  0.00    +0.050 A 
ATOM     18  C   UNL     1      -1.992  -9.262   0.697  0.00  0.00    +0.161 A 
ATOM     19  C   UNL     1      -2.060  -9.722  -0.614  0.00  0.00    +0.159 A 
ATOM     20  C   UNL     1      -1.495  -8.978  -1.637  0.00  0.00    +0.054 A 
BRANCH  19  21
ATOM     21  O   UNL     1      -2.681 -10.900  -0.892  0.00  0.00    -0.503 OA
ATOM     22  H   UNL     1      -2.096 -11.669  -0.862  0.00  0.00    +0.292 HD
ENDBRANCH  19  21
BRANCH  18  23
ATOM     23  O   UNL     1      -2.544  -9.989   1.704  0.00  0.00    -0.491 OA
ATOM     24  C   UNL     1      -2.436  -9.455   3.025  0.00  0.00    +0.277 C 
ENDBRANCH  18  23
ENDBRANCH  12  15
BRANCH   1  25
ATOM     25  S   UNL     1      -0.028  -1.741   1.783  0.00  0.00    +0.059 S 
ATOM     26  O   UNL     1       0.924  -1.877   2.829  0.00  0.00    -0.153 OA
ATOM     27  O   UNL     1      -1.427  -1.695   2.029  0.00  0.00    -0.153 OA
BRANCH  25  28
ATOM     28  N   UNL     1       0.355  -0.349   0.973  0.00  0.00    -0.187 NA
ATOM     29  H   UNL     1       1.103   0.194   1.267  0.00  0.00    +0.148 HD
BRANCH  28  30
ATOM     30  C   UNL     1      -0.435   0.063  -0.190  0.00  0.00    +0.073 C 
ATOM     31  C   UNL     1       0.241  -0.435  -1.469  0.00  0.00    +0.025 C 
BRANCH  30  33
ATOM     32  C   UNL     1      -1.318   2.080   0.992  0.00  0.00    +0.005 C 
ATOM     33  C   UNL     1      -0.532   1.590  -0.226  0.00  0.00    +0.017 C 
ENDBRANCH  30  33
ENDBRANCH  28  30
ENDBRANCH  25  28
ENDBRANCH   1  25
TORSDOF 7
