REMARK  Name = ZINC39781062
REMARK  9 active torsions:
REMARK  status: ('A' for Active; 'I' for Inactive)
REMARK    1  A    between atoms: C_1  and  O_2
REMARK    2  A    between atoms: O_2  and  C_3
REMARK    3  A    between atoms: C_3  and  C_4
REMARK    4  A    between atoms: C_4  and  N_5
REMARK    5  A    between atoms: C_6  and  C_8
REMARK    6  A    between atoms: C_10  and  N_19
REMARK    7  A    between atoms: C_20  and  C_22
REMARK    8  A    between atoms: C_22  and  O_23
REMARK    9  A    between atoms: O_23  and  C_24
REMARK                            x       y       z     vdW  Elec       q    Type
REMARK                         _______ _______ _______ _____ _____    ______ ____
ROOT
ATOM      1  N   UNL     1      -0.016  -2.637   4.526  0.00  0.00    -0.299 N 
ATOM      2  C   UNL     1      -0.886  -1.657   4.843  0.00  0.00    +0.252 C 
ATOM      3  O   UNL     1      -2.072  -1.810   4.640  0.00  0.00    -0.272 OA
ATOM      4  H   UNL     1       0.932  -2.514   4.689  0.00  0.00    +0.150 HD
ENDROOT
BRANCH   1   6
ATOM      5  C   UNL     1       0.369  -4.328   2.738  0.00  0.00    +0.132 C 
ATOM      6  C   UNL     1      -0.504  -3.887   3.937  0.00  0.00    +0.151 C 
ATOM      7  S   UNL     1      -0.199  -5.324   5.049  0.00  0.00    -0.106 S 
ATOM      8  C   UNL     1       0.303  -6.502   3.816  0.00  0.00    -0.013 C 
ATOM      9  C   UNL     1       0.542  -5.825   2.701  0.00  0.00    -0.046 C 
ATOM     10  C   UNL     1       0.980  -6.544   1.426  0.00  0.00    +0.032 C 
ATOM     11  C   UNL     1       1.519  -7.926   1.790  0.00  0.00    +0.005 C 
ATOM     12  C   UNL     1       0.490  -8.667   2.649  0.00  0.00    +0.005 C 
ATOM     13  C   UNL     1       0.426  -7.986   4.018  0.00  0.00    +0.042 C 
BRANCH   5  15
ATOM     14  N   UNL     1      -0.515  -2.565   1.245  0.00  0.00    -0.313 N 
ATOM     15  C   UNL     1      -0.287  -3.876   1.459  0.00  0.00    +0.223 C 
ATOM     16  O   UNL     1      -0.610  -4.693   0.622  0.00  0.00    -0.275 OA
ATOM     17  H   UNL     1      -0.257  -1.913   1.914  0.00  0.00    +0.149 HD
BRANCH  14  18
ATOM     18  C   UNL     1      -1.154  -2.126   0.002  0.00  0.00    +0.132 C 
BRANCH  18  19
ATOM     19  C   UNL     1      -1.295  -0.603   0.011  0.00  0.00    +0.178 C 
BRANCH  19  21
ATOM     20  C   UNL     1      -0.017   1.425   0.010  0.00  0.00    +0.194 C 
ATOM     21  O   UNL     1       0.002  -0.004   0.002  0.00  0.00    -0.381 OA
ENDBRANCH  19  21
ENDBRANCH  18  19
ENDBRANCH  14  18
ENDBRANCH   5  15
ENDBRANCH   1   6
BRANCH   2  22
ATOM     22  C   UNL     1      -0.385  -0.371   5.449  0.00  0.00    +0.324 C 
BRANCH  22  23
ATOM     23  O   UNL     1      -1.489   0.502   5.692  0.00  0.00    -0.483 OA
BRANCH  23  24
ATOM     24  C   UNL     1      -1.207   1.714   6.241  0.00  0.00    +0.120 C 
ATOM     25  C   UNL     1       0.078   2.015   6.513  0.00  0.00    +0.047 C 
ATOM     26  C   UNL     1       0.392   3.300   7.196  0.00  0.00    +0.137 C 
ATOM     27  C   UNL     1      -0.709   4.303   6.923  0.00  0.00    -0.012 C 
ATOM     28  C   UNL     1      -0.059   5.496   6.714  0.00  0.00    +0.003 A 
ATOM     29  C   UNL     1      -0.539   6.815   6.548  0.00  0.00    +0.010 A 
ATOM     30  C   UNL     1       0.393   7.788   6.333  0.00  0.00    +0.001 A 
ATOM     31  C   UNL     1       1.762   7.535   6.273  0.00  0.00    +0.002 A 
ATOM     32  C   UNL     1       2.306   6.296   6.431  0.00  0.00    +0.026 A 
ATOM     33  C   UNL     1       1.403   5.224   6.668  0.00  0.00    +0.044 A 
ATOM     34  N   UNL     1       1.640   3.958   6.868  0.00  0.00    -0.374 N 
ATOM     35  C   UNL     1      -2.040   3.930   6.753  0.00  0.00    +0.010 C 
ATOM     36  C   UNL     1      -2.276   2.605   6.497  0.00  0.00    +0.046 C 
ATOM     37  H   UNL     1       2.509   3.532   6.810  0.00  0.00    +0.161 HD
ENDBRANCH  23  24
ENDBRANCH  22  23
ENDBRANCH   2  22
TORSDOF 8
