REMARK  Name = ZINC38845413
REMARK  15 active torsions:
REMARK  status: ('A' for Active; 'I' for Inactive)
REMARK    1  A    between atoms: C_1  and  C_2
REMARK    2  A    between atoms: C_2  and  N_3
REMARK    3  A    between atoms: N_3  and  C_4
REMARK    4  A    between atoms: N_3  and  C_6
REMARK    5  A    between atoms: C_4  and  C_5
REMARK    6  A    between atoms: C_6  and  C_7
REMARK    7  A    between atoms: C_7  and  N_8
REMARK    8  A    between atoms: C_14  and  S_18
REMARK    9  A    between atoms: S_18  and  C_19
REMARK   10  A    between atoms: C_20  and  C_22
REMARK   11  A    between atoms: C_22  and  C_23
REMARK   12  A    between atoms: C_23  and  S_24
REMARK   13  A    between atoms: S_24  and  C_27
REMARK   14  A    between atoms: C_30  and  O_33
REMARK   15  A    between atoms: O_33  and  C_34
REMARK                            x       y       z     vdW  Elec       q    Type
REMARK                         _______ _______ _______ _____ _____    ______ ____
ROOT
ATOM      1  N   UNL     1       2.336  -3.538  -0.352  0.00  0.00    -0.252 N 
ATOM      2  C   UNL     1       1.495  -4.393  -1.047  0.00  0.00    +0.168 A 
ATOM      3  N   UNL     1       0.374  -4.118  -1.671  0.00  0.00    -0.224 NA
ATOM      4  C   UNL     1      -0.350  -5.060  -2.314  0.00  0.00    +0.080 A 
ATOM      5  C   UNL     1      -1.566  -4.897  -3.018  0.00  0.00    +0.030 A 
ATOM      6  C   UNL     1      -2.175  -5.954  -3.617  0.00  0.00    +0.017 A 
ATOM      7  C   UNL     1      -1.632  -7.237  -3.561  0.00  0.00    +0.009 A 
ATOM      8  C   UNL     1      -0.439  -7.437  -2.878  0.00  0.00    +0.032 A 
ATOM      9  C   UNL     1       0.179  -6.371  -2.274  0.00  0.00    +0.042 A 
ATOM     10  S   UNL     1       1.667  -6.149  -1.330  0.00  0.00    -0.052 S 
ATOM     11  C   UNL     1       3.458  -4.015   0.221  0.00  0.00    +0.223 C 
ATOM     12  O   UNL     1       3.733  -5.193   0.128  0.00  0.00    -0.275 OA
ENDROOT
BRANCH   7  13
ATOM     13  S   UNL     1      -2.448  -8.586  -4.347  0.00  0.00    -0.129 S 
ATOM     14  C   UNL     1      -3.926  -7.836  -5.084  0.00  0.00    +0.090 C 
ENDBRANCH   7  13
BRANCH   1  15
ATOM     15  C   UNL     1       2.004  -2.115  -0.240  0.00  0.00    +0.097 C 
BRANCH  15  16
ATOM     16  C   UNL     1       1.156  -1.887   1.013  0.00  0.00    -0.059 C 
BRANCH  16  17
ATOM     17  N   UNL     1       0.823  -0.461   1.126  0.00  0.00    +0.380 N 
ATOM     18  H   UNL     1       1.671   0.085   1.109  0.00  0.00    -0.082 HD
BRANCH  17  20
ATOM     19  C   UNL     1      -0.264   1.445   0.037  0.00  0.00    -0.017 C 
ATOM     20  C   UNL     1      -0.034  -0.067  -0.001  0.00  0.00    -0.082 C 
ENDBRANCH  17  20
BRANCH  17  21
ATOM     21  C   UNL     1       0.111  -0.222   2.389  0.00  0.00    -0.082 C 
ATOM     22  C   UNL     1       1.053  -0.495   3.563  0.00  0.00    -0.017 C 
ENDBRANCH  17  21
ENDBRANCH  16  17
ENDBRANCH  15  16
ENDBRANCH   1  15
BRANCH  11  23
ATOM     23  C   UNL     1       4.372  -3.086   0.977  0.00  0.00    +0.119 C 
BRANCH  23  24
ATOM     24  C   UNL     1       5.564  -3.875   1.523  0.00  0.00    +0.181 C 
BRANCH  24  25
ATOM     25  S   UNL     1       6.664  -2.756   2.434  0.00  0.00    -0.003 S 
ATOM     26  O   UNL     1       7.279  -1.839   1.539  0.00  0.00    -0.169 OA
ATOM     27  O   UNL     1       6.025  -2.296   3.616  0.00  0.00    -0.169 OA
BRANCH  25  28
ATOM     28  C   UNL     1       7.980  -3.779   3.003  0.00  0.00    +0.088 A 
ATOM     29  C   UNL     1       7.885  -4.406   4.232  0.00  0.00    +0.030 A 
ATOM     30  C   UNL     1       8.916  -5.209   4.681  0.00  0.00    +0.047 A 
ATOM     31  C   UNL     1      10.047  -5.386   3.898  0.00  0.00    +0.120 A 
ATOM     32  C   UNL     1      10.140  -4.756   2.666  0.00  0.00    +0.047 A 
ATOM     33  C   UNL     1       9.104  -3.958   2.219  0.00  0.00    +0.030 A 
BRANCH  31  34
ATOM     34  O   UNL     1      11.063  -6.174   4.338  0.00  0.00    -0.495 OA
ATOM     35  C   UNL     1      12.197  -6.311   3.479  0.00  0.00    +0.277 C 
ENDBRANCH  31  34
ENDBRANCH  25  28
ENDBRANCH  24  25
ENDBRANCH  23  24
ENDBRANCH  11  23
TORSDOF 11
