REMARK  Name = ZINC17136224
REMARK  5 active torsions:
REMARK  status: ('A' for Active; 'I' for Inactive)
REMARK    1  A    between atoms: C_4  and  S_7
REMARK    2  A    between atoms: S_7  and  C_8
REMARK    3  A    between atoms: C_13  and  N_14
REMARK    4  A    between atoms: C_15  and  C_17
REMARK    5  A    between atoms: C_26  and  N_29
REMARK                            x       y       z     vdW  Elec       q    Type
REMARK                         _______ _______ _______ _____ _____    ______ ____
ROOT
ATOM      1  C   UNL     1       8.191  -3.554   0.095  0.00  0.00    +0.050 C 
ATOM      2  C   UNL     1       8.422  -2.816  -1.226  0.00  0.00    +0.020 C 
ATOM      3  C   UNL     1       9.895  -2.417  -1.336  0.00  0.00    -0.007 C 
ATOM      4  C   UNL     1      10.264  -1.500  -0.168  0.00  0.00    +0.007 C 
ATOM      5  C   UNL     1      10.033  -2.238   1.152  0.00  0.00    -0.007 C 
ATOM      6  C   UNL     1       8.560  -2.636   1.262  0.00  0.00    +0.020 C 
ATOM      7  C   UNL     1      10.906  -3.494   1.194  0.00  0.00    +0.034 C 
ATOM      8  C   UNL     1      10.537  -4.411   0.026  0.00  0.00    +0.067 C 
ATOM      9  C   UNL     1      10.768  -3.673  -1.294  0.00  0.00    +0.034 C 
ATOM     10  C   UNL     1       9.063  -4.809   0.137  0.00  0.00    +0.046 C 
ENDROOT
BRANCH   8  11
ATOM     11  N   UNL     1      11.372  -5.613   0.067  0.00  0.00    -0.244 N 
ATOM     12  C   UNL     1      12.670  -5.705  -0.273  0.00  0.00    +0.222 A 
ATOM     13  N   UNL     1      13.049  -6.944  -0.098  0.00  0.00    -0.195 NA
ATOM     14  C   UNL     1      12.026  -7.671   0.351  0.00  0.00    +0.328 A 
ATOM     15  N   UNL     1      10.979  -6.899   0.474  0.00  0.00    -0.125 NA
ATOM     16  N   UNL     1      12.071  -9.117   0.666  0.00  0.00    +0.096 N 
ATOM     17  O   UNL     1      13.099  -9.736   0.520  0.00  0.00    -0.123 OA
ATOM     18  O   UNL     1      11.079  -9.678   1.068  0.00  0.00    -0.123 OA
ENDBRANCH   8  11
BRANCH   1  20
ATOM     19  N   UNL     1       5.782  -2.998   0.188  0.00  0.00    -0.284 N 
ATOM     20  C   UNL     1       6.740  -3.946   0.203  0.00  0.00    +0.223 C 
ATOM     21  O   UNL     1       6.434  -5.115   0.305  0.00  0.00    -0.275 OA
ATOM     22  H   UNL     1       6.029  -2.060   0.173  0.00  0.00    +0.155 HD
BRANCH  19  28
ATOM     23  C   UNL     1       3.493  -2.602  -0.499  0.00  0.00    +0.034 A 
ATOM     24  C   UNL     1       2.156  -2.977  -0.492  0.00  0.00    +0.017 A 
ATOM     25  C   UNL     1       1.758  -4.101   0.204  0.00  0.00    +0.001 A 
ATOM     26  C   UNL     1       2.687  -4.857   0.897  0.00  0.00    +0.002 A 
ATOM     27  C   UNL     1       4.020  -4.491   0.896  0.00  0.00    +0.024 A 
ATOM     28  C   UNL     1       4.431  -3.367   0.195  0.00  0.00    +0.047 A 
BRANCH  23  29
ATOM     29  S   UNL     1       4.004  -1.168  -1.386  0.00  0.00    -0.088 S 
BRANCH  29  33
ATOM     30  C   UNL     1       0.129   0.640  -2.877  0.00  0.00    +0.000 A 
ATOM     31  C   UNL     1       0.583   0.936  -1.605  0.00  0.00    +0.001 A 
ATOM     32  C   UNL     1       1.764   0.386  -1.147  0.00  0.00    +0.015 A 
ATOM     33  C   UNL     1       2.496  -0.465  -1.966  0.00  0.00    +0.013 A 
ATOM     34  C   UNL     1       2.036  -0.760  -3.244  0.00  0.00    +0.015 A 
ATOM     35  C   UNL     1       0.854  -0.207  -3.695  0.00  0.00    +0.001 A 
ENDBRANCH  29  33
ENDBRANCH  23  29
ENDBRANCH  19  28
ENDBRANCH   1  20
TORSDOF 5
