REMARK  Name = ZINC35558446
REMARK  5 active torsions:
REMARK  status: ('A' for Active; 'I' for Inactive)
REMARK    1  A    between atoms: C_1  and  C_2
REMARK    2  A    between atoms: C_2  and  N_3
REMARK    3  A    between atoms: N_3  and  C_4
REMARK    4  A    between atoms: C_4  and  C_6
REMARK    5  A    between atoms: C_4  and  C_17
REMARK                            x       y       z     vdW  Elec       q    Type
REMARK                         _______ _______ _______ _____ _____    ______ ____
ROOT
ATOM      1  C   UNL     1      -1.356  -1.981   0.004  0.00  0.00    +0.027 C 
ENDROOT
BRANCH   1   2
ATOM      2  C   UNL     1      -2.766  -2.502  -0.109  0.00  0.00    -0.052 A 
ATOM      3  C   UNL     1      -3.788  -1.880   0.584  0.00  0.00    +0.006 A 
ATOM      4  C   UNL     1      -5.085  -2.351   0.485  0.00  0.00    +0.048 A 
ATOM      5  C   UNL     1      -5.360  -3.450  -0.311  0.00  0.00    +0.142 A 
ATOM      6  C   UNL     1      -4.329  -4.077  -1.009  0.00  0.00    +0.076 A 
ATOM      7  C   UNL     1      -3.034  -3.597  -0.910  0.00  0.00    +0.029 A 
ATOM      8  N   UNL     1      -4.621  -5.191  -1.809  0.00  0.00    -0.280 N 
ATOM      9  C   UNL     1      -5.907  -5.440  -2.140  0.00  0.00    +0.255 C 
ATOM     10  O   UNL     1      -6.187  -6.415  -2.805  0.00  0.00    -0.272 OA
ATOM     11  C   UNL     1      -6.993  -4.501  -1.679  0.00  0.00    +0.325 C 
ATOM     12  O   UNL     1      -6.629  -3.926  -0.421  0.00  0.00    -0.481 OA
ATOM     13  H   UNL     1      -3.911  -5.773  -2.121  0.00  0.00    +0.155 HD
ENDBRANCH   1   2
BRANCH   1  14
ATOM     14  C   UNL     1      -0.737  -2.482   1.284  0.00  0.00    +0.097 A 
ATOM     15  C   UNL     1       0.114  -3.518   1.392  0.00  0.00    +0.044 A 
ATOM     16  C   UNL     1       0.442  -3.638   2.762  0.00  0.00    +0.057 A 
ATOM     17  C   UNL     1      -0.229  -2.666   3.410  0.00  0.00    +0.170 A 
ATOM     18  O   UNL     1      -0.936  -1.966   2.508  0.00  0.00    -0.454 OA
ATOM     19 BR   UNL     1      -0.177  -2.338   5.271  0.00  0.00    -0.008 Br
ENDBRANCH   1  14
BRANCH   1  20
ATOM     20  N   UNL     1      -1.376  -0.512   0.012  0.00  0.00    +0.388 N 
ATOM     21  H   UNL     1      -1.848  -0.187   0.843  0.00  0.00    -0.084 HD
ATOM     22  H   UNL     1      -1.864  -0.178  -0.805  0.00  0.00    -0.084 HD
BRANCH  20  24
ATOM     23  C   UNL     1      -0.019   1.526   0.010  0.00  0.00    -0.017 C 
ATOM     24  C   UNL     1       0.002  -0.004   0.002  0.00  0.00    -0.085 C 
ENDBRANCH  20  24
ENDBRANCH   1  20
TORSDOF 4
