REMARK  Name = ZINC65074654
REMARK  9 active torsions:
REMARK  status: ('A' for Active; 'I' for Inactive)
REMARK    1  A    between atoms: C_1  and  C_2
REMARK    2  A    between atoms: C_4  and  C_33
REMARK    3  A    between atoms: C_5  and  S_9
REMARK    4  A    between atoms: C_6  and  C_8
REMARK    5  A    between atoms: S_9  and  N_12
REMARK    6  A    between atoms: N_23  and  C_24
REMARK    7  A    between atoms: C_24  and  C_25
REMARK    8  A    between atoms: C_28  and  O_31
REMARK    9  A    between atoms: O_31  and  C_32
REMARK                            x       y       z     vdW  Elec       q    Type
REMARK                         _______ _______ _______ _____ _____    ______ ____
ROOT
ATOM      1  N   UNL     1       0.353  -5.319   0.141  0.00  0.00    -0.176 NA
ATOM      2  C   UNL     1       0.994  -5.880  -1.056  0.00  0.00    +0.111 C 
ATOM      3  C   UNL     1       2.482  -5.519  -1.034  0.00  0.00    +0.047 C 
ATOM      4  C   UNL     1       3.098  -5.990   0.286  0.00  0.00    +0.075 C 
ATOM      5  C   UNL     1       2.410  -5.276   1.452  0.00  0.00    +0.047 C 
ATOM      6  C   UNL     1       0.924  -5.630   1.459  0.00  0.00    +0.111 C 
ATOM      7  C   UNL     1       4.566  -5.670   0.297  0.00  0.00    +0.089 C 
ATOM      8  N   UNL     1       5.465  -6.485   0.703  0.00  0.00    -0.374 N 
ATOM      9  C   UNL     1       5.179  -7.828   1.197  0.00  0.00    +0.129 C 
ATOM     10  C   UNL     1       3.696  -7.951   1.552  0.00  0.00    +0.102 C 
ATOM     11  N   UNL     1       2.901  -7.441   0.422  0.00  0.00    -0.303 NA
ATOM     12  N   UNL     1       4.964  -4.439  -0.153  0.00  0.00    -0.329 N 
ATOM     13  H   UNL     1       1.924  -7.663   0.537  0.00  0.00    +0.123 HD
ATOM     14  H   UNL     1       4.304  -3.801  -0.467  0.00  0.00    +0.147 HD
ATOM     15  H   UNL     1       6.390  -6.194   0.681  0.00  0.00    +0.161 HD
ENDROOT
BRANCH   1  16
ATOM     16  S   UNL     1      -0.984  -4.351   0.008  0.00  0.00    +0.061 S 
ATOM     17  O   UNL     1      -1.747  -4.546   1.191  0.00  0.00    -0.153 OA
ATOM     18  O   UNL     1      -1.519  -4.573  -1.290  0.00  0.00    -0.153 OA
BRANCH  16  23
ATOM     19  C   UNL     1       0.942   1.366   0.124  0.00  0.00    +0.044 C 
ATOM     20  C   UNL     1       0.461  -0.061   0.095  0.00  0.00    -0.050 A 
ATOM     21  C   UNL     1       0.072  -0.684   1.266  0.00  0.00    +0.008 A 
ATOM     22  C   UNL     1      -0.370  -1.993   1.240  0.00  0.00    -0.024 A 
ATOM     23  C   UNL     1      -0.422  -2.681   0.042  0.00  0.00    +0.111 A 
ATOM     24  C   UNL     1      -0.035  -2.058  -1.130  0.00  0.00    -0.024 A 
ATOM     25  C   UNL     1       0.403  -0.747  -1.104  0.00  0.00    +0.008 A 
ATOM     26  C   UNL     1      -0.092  -2.808  -2.436  0.00  0.00    +0.046 C 
ATOM     27  C   UNL     1      -0.793  -2.672   2.517  0.00  0.00    +0.046 C 
ENDBRANCH  16  23
ENDBRANCH   1  16
BRANCH  12  28
ATOM     28  C   UNL     1       6.386  -4.086  -0.159  0.00  0.00    +0.138 C 
BRANCH  28  29
ATOM     29  C   UNL     1       6.554  -2.688  -0.697  0.00  0.00    -0.030 A 
ATOM     30  C   UNL     1       6.729  -2.486  -2.053  0.00  0.00    +0.009 A 
ATOM     31  C   UNL     1       6.883  -1.206  -2.548  0.00  0.00    +0.046 A 
ATOM     32  C   UNL     1       6.862  -0.122  -1.683  0.00  0.00    +0.120 A 
ATOM     33  C   UNL     1       6.686  -0.327  -0.322  0.00  0.00    +0.046 A 
ATOM     34  C   UNL     1       6.527  -1.609   0.167  0.00  0.00    +0.009 A 
BRANCH  32  35
ATOM     35  O   UNL     1       7.015   1.139  -2.167  0.00  0.00    -0.495 OA
ATOM     36  C   UNL     1       6.982   2.207  -1.218  0.00  0.00    +0.277 C 
ENDBRANCH  32  35
ENDBRANCH  28  29
ENDBRANCH  12  28
TORSDOF 5
