REMARK  Name = ZINC10013822
REMARK  8 active torsions:
REMARK  status: ('A' for Active; 'I' for Inactive)
REMARK    1  A    between atoms: C_1  and  C_2
REMARK    2  A    between atoms: C_5  and  C_8
REMARK    3  A    between atoms: C_14  and  C_22
REMARK    4  A    between atoms: C_16  and  C_20
REMARK    5  A    between atoms: C_17  and  N_19
REMARK    6  A    between atoms: C_27  and  O_28
REMARK    7  A    between atoms: O_28  and  C_29
REMARK    8  A    between atoms: C_29  and  C_30
REMARK                            x       y       z     vdW  Elec       q    Type
REMARK                         _______ _______ _______ _____ _____    ______ ____
ROOT
ATOM      1  C   UNL     1       0.060  -4.246  -0.021  0.00  0.00    +0.084 C 
ATOM      2  N   UNL     1      -0.021  -5.026  -1.065  0.00  0.00    -0.150 NA
ATOM      3  N   UNL     1       0.063  -6.376  -0.723  0.00  0.00    -0.115 NA
ATOM      4  C   UNL     1       0.258  -6.543   0.536  0.00  0.00    +0.227 C 
ATOM      5  C   UNL     1       0.183  -5.159   1.176  0.00  0.00    +0.140 C 
ATOM      6  C   UNL     1       1.526  -4.952   1.886  0.00  0.00    +0.086 C 
ATOM      7  C   UNL     1       1.916  -6.228   2.582  0.00  0.00    +0.095 C 
ATOM      8  C   UNL     1       1.434  -7.447   2.263  0.00  0.00    +0.200 C 
ATOM      9  O   UNL     1       0.515  -7.642   1.278  0.00  0.00    -0.425 OA
ENDROOT
BRANCH   1  14
ATOM     10  C   UNL     1      -0.018   1.503   0.010  0.00  0.00    +0.044 C 
ATOM     11  C   UNL     1       0.002  -0.004   0.002  0.00  0.00    -0.050 A 
ATOM     12  C   UNL     1       0.417  -0.681  -1.132  0.00  0.00    +0.004 A 
ATOM     13  C   UNL     1       0.438  -2.059  -1.147  0.00  0.00    +0.010 A 
ATOM     14  C   UNL     1       0.040  -2.774  -0.013  0.00  0.00    -0.001 A 
ATOM     15  C   UNL     1      -0.377  -2.083   1.129  0.00  0.00    +0.010 A 
ATOM     16  C   UNL     1      -0.389  -0.704   1.130  0.00  0.00    +0.004 A 
ENDBRANCH   1  14
BRANCH   6  17
ATOM     17  C   UNL     1       1.395  -3.844   2.899  0.00  0.00    +0.004 A 
ATOM     18  C   UNL     1       0.490  -3.959   3.937  0.00  0.00    +0.008 A 
ATOM     19  C   UNL     1       0.368  -2.942   4.866  0.00  0.00    +0.001 A 
ATOM     20  C   UNL     1       1.152  -1.808   4.760  0.00  0.00    +0.004 A 
ATOM     21  C   UNL     1       2.059  -1.688   3.725  0.00  0.00    +0.046 A 
ATOM     22  C   UNL     1       2.186  -2.709   2.794  0.00  0.00    +0.125 A 
BRANCH  22  23
ATOM     23  O   UNL     1       3.082  -2.596   1.778  0.00  0.00    -0.487 OA
BRANCH  23  24
ATOM     24  C   UNL     1       3.863  -1.401   1.732  0.00  0.00    +0.264 C 
BRANCH  24  25
ATOM     25  C   UNL     1       4.793  -1.454   0.546  0.00  0.00    -0.010 A 
ATOM     26  C   UNL     1       6.053  -2.004   0.681  0.00  0.00    +0.010 A 
ATOM     27  C   UNL     1       6.906  -2.053  -0.405  0.00  0.00    +0.039 A 
ATOM     28  C   UNL     1       6.497  -1.551  -1.629  0.00  0.00    +0.123 A 
ATOM     29  C   UNL     1       5.234  -1.000  -1.763  0.00  0.00    +0.039 A 
ATOM     30  C   UNL     1       4.381  -0.957  -0.676  0.00  0.00    +0.010 A 
ATOM     31  F   UNL     1       7.331  -1.598  -2.691  0.00  0.00    -0.205 F 
ENDBRANCH  24  25
ENDBRANCH  23  24
ENDBRANCH  22  23
ENDBRANCH   6  17
BRANCH   8  32
ATOM     32  N   UNL     1       1.885  -8.537   2.964  0.00  0.00    -0.328 N 
ATOM     33  H   UNL     1       2.538  -8.421   3.673  0.00  0.00    +0.145 HD
ATOM     34  H   UNL     1       1.552  -9.423   2.752  0.00  0.00    +0.145 HD
ENDBRANCH   8  32
BRANCH   7  35
ATOM     35  C   UNL     1       2.863  -6.144   3.653  0.00  0.00    +0.100 C 
ATOM     36  N   UNL     1       3.613  -6.077   4.503  0.00  0.00    -0.191 NA
ENDBRANCH   7  35
TORSDOF 7
