REMARK  Name = ZINC08762031
REMARK  13 active torsions:
REMARK  status: ('A' for Active; 'I' for Inactive)
REMARK    1  A    between atoms: C_1  and  N_66
REMARK    2  A    between atoms: C_2  and  N_66
REMARK    3  A    between atoms: C_8  and  O_34
REMARK    4  A    between atoms: C_9  and  O_32
REMARK    5  A    between atoms: C_10  and  O_30
REMARK    6  A    between atoms: C_17  and  N_20
REMARK    7  A    between atoms: N_20  and  C_21
REMARK    8  A    between atoms: C_21  and  C_22
REMARK    9  A    between atoms: C_27  and  O_28
REMARK   10  A    between atoms: O_28  and  C_29
REMARK   11  A    between atoms: O_30  and  C_31
REMARK   12  A    between atoms: O_32  and  C_33
REMARK   13  A    between atoms: O_34  and  C_35
REMARK                            x       y       z     vdW  Elec       q    Type
REMARK                         _______ _______ _______ _____ _____    ______ ____
ROOT
ATOM      1  C   UNL     1       3.741   7.469   0.230  0.00  0.00    -0.040 C 
ATOM      2  C   UNL     1       3.959   8.190  -1.085  0.00  0.00    -0.007 C 
ATOM      3  C   UNL     1       2.644   8.362  -1.841  0.00  0.00    +0.035 C 
ATOM      4  C   UNL     1       1.567   8.815  -0.889  0.00  0.00    -0.033 A 
ATOM      5  C   UNL     1       1.146  10.129  -0.895  0.00  0.00    +0.054 A 
ATOM      6  C   UNL     1       0.136  10.538  -0.034  0.00  0.00    +0.165 A 
ATOM      7  C   UNL     1      -0.456   9.630   0.838  0.00  0.00    +0.204 A 
ATOM      8  C   UNL     1      -0.032   8.308   0.853  0.00  0.00    +0.173 A 
ATOM      9  C   UNL     1       0.987   7.903  -0.014  0.00  0.00    +0.031 A 
ATOM     10  C   UNL     1       1.453   6.484   0.004  0.00  0.00    -0.012 A 
ATOM     11  C   UNL     1       2.830   6.269   0.068  0.00  0.00    -0.050 A 
ATOM     12  C   UNL     1       3.432   5.068   0.003  0.00  0.00    +0.055 A 
ATOM     13  C   UNL     1       2.955   3.793  -0.092  0.00  0.00    +0.200 A 
ATOM     14  O   UNL     1       3.802   2.914  -0.180  0.00  0.00    -0.286 OA
ATOM     15  C   UNL     1       1.631   3.361  -0.107  0.00  0.00    +0.075 A 
ATOM     16  C   UNL     1       0.535   4.172  -0.083  0.00  0.00    +0.027 A 
ATOM     17  C   UNL     1       0.483   5.515  -0.048  0.00  0.00    +0.011 A 
ENDROOT
BRANCH   1  19
ATOM     18  C   UNL     1       5.769   8.125   1.377  0.00  0.00    -0.100 C 
ATOM     19  N   UNL     1       5.042   7.006   0.748  0.00  0.00    +0.382 N 
ATOM     20  H   UNL     1       4.886   6.269   1.446  0.00  0.00    -0.085 HD
ATOM     21  H   UNL     1       5.602   6.632  -0.027  0.00  0.00    -0.085 HD
ENDBRANCH   1  19
BRANCH  15  22
ATOM     22  N   UNL     1       1.409   1.995  -0.146  0.00  0.00    -0.337 N 
ATOM     23  H   UNL     1       2.161   1.382  -0.165  0.00  0.00    +0.147 HD
BRANCH  22  24
ATOM     24  C   UNL     1       0.040   1.475  -0.159  0.00  0.00    +0.140 C 
BRANCH  24  25
ATOM     25  C   UNL     1       0.074  -0.031  -0.202  0.00  0.00    +0.011 A 
ATOM     26  C   UNL     1      -0.119  -0.693  -1.399  0.00  0.00    +0.009 A 
ATOM     27  C   UNL     1      -0.088  -2.074  -1.439  0.00  0.00    +0.001 A 
ATOM     28  C   UNL     1       0.138  -2.797  -0.282  0.00  0.00    +0.004 A 
ATOM     29  C   UNL     1       0.332  -2.140   0.917  0.00  0.00    +0.046 A 
ATOM     30  C   UNL     1       0.306  -0.753   0.960  0.00  0.00    +0.125 A 
BRANCH  30  31
ATOM     31  O   UNL     1       0.503  -0.104   2.137  0.00  0.00    -0.495 OA
ATOM     32  C   UNL     1       0.736  -0.912   3.292  0.00  0.00    +0.277 C 
ENDBRANCH  30  31
ENDBRANCH  24  25
ENDBRANCH  22  24
ENDBRANCH  15  22
BRANCH   8  33
ATOM     33  O   UNL     1      -0.604   7.414   1.702  0.00  0.00    -0.491 OA
ATOM     34  C   UNL     1      -0.009   7.275   2.994  0.00  0.00    +0.277 C 
ENDBRANCH   8  33
BRANCH   7  35
ATOM     35  O   UNL     1      -1.448  10.037   1.676  0.00  0.00    -0.488 OA
ATOM     36  C   UNL     1      -2.788   9.944   1.187  0.00  0.00    +0.277 C 
ENDBRANCH   7  35
BRANCH   6  37
ATOM     37  O   UNL     1      -0.276  11.833  -0.043  0.00  0.00    -0.491 OA
ATOM     38  C   UNL     1       0.372  12.714  -0.962  0.00  0.00    +0.277 C 
ENDBRANCH   6  37
TORSDOF 8
