REMARK  Name = ZINC12674522
REMARK  8 active torsions:
REMARK  status: ('A' for Active; 'I' for Inactive)
REMARK    1  A    between atoms: C_1  and  C_2
REMARK    2  A    between atoms: C_2  and  C_4
REMARK    3  A    between atoms: C_2  and  N_45
REMARK    4  A    between atoms: N_6  and  C_7
REMARK    5  A    between atoms: C_10  and  N_13
REMARK    6  A    between atoms: C_16  and  C_18
REMARK    7  A    between atoms: C_16  and  C_24
REMARK    8  A    between atoms: C_16  and  N_45
REMARK                            x       y       z     vdW  Elec       q    Type
REMARK                         _______ _______ _______ _____ _____    ______ ____
ROOT
ATOM      1  C   UNL     1       1.143   4.469  -2.801  0.00  0.00    -0.004 C 
ATOM      2  C   UNL     1       0.949   4.209  -1.306  0.00  0.00    +0.014 C 
ENDROOT
BRANCH   2   3
ATOM      3  C   UNL     1       1.130   5.496  -0.544  0.00  0.00    +0.203 C 
ATOM      4  O   UNL     1       0.221   5.936   0.128  0.00  0.00    -0.277 OA
ATOM      5  N   UNL     1       2.301   6.160  -0.610  0.00  0.00    -0.287 N 
ATOM      6  H   UNL     1       3.050   5.776  -1.092  0.00  0.00    +0.155 HD
BRANCH   5   7
ATOM      7  C   UNL     1       2.437   7.403   0.018  0.00  0.00    +0.033 A 
ATOM      8  C   UNL     1       3.230   8.389  -0.555  0.00  0.00    +0.025 A 
ATOM      9  C   UNL     1       3.357   9.617   0.064  0.00  0.00    +0.034 A 
ATOM     10  C   UNL     1       2.706   9.861   1.259  0.00  0.00    +0.126 A 
ATOM     11  C   UNL     1       1.920   8.880   1.835  0.00  0.00    +0.034 A 
ATOM     12  C   UNL     1       1.784   7.652   1.218  0.00  0.00    +0.025 A 
BRANCH  10  13
ATOM     13  N   UNL     1       2.850  11.176   1.923  0.00  0.00    +0.056 N 
ATOM     14  O   UNL     1       2.276  11.393   2.975  0.00  0.00    -0.126 OA
ATOM     15  O   UNL     1       3.542  12.042   1.417  0.00  0.00    -0.126 OA
ENDBRANCH  10  13
ENDBRANCH   5   7
ENDBRANCH   2   3
BRANCH   2  16
ATOM     16  N   UNL     1      -0.412   3.692  -1.068  0.00  0.00    +0.391 N 
ATOM     17  H   UNL     1      -1.063   4.138  -1.725  0.00  0.00    -0.084 HD
ATOM     18  H   UNL     1      -0.694   3.910  -0.105  0.00  0.00    -0.084 HD
BRANCH  16  19
ATOM     19  C   UNL     1      -0.447   2.231  -1.266  0.00  0.00    -0.037 C 
BRANCH  19  20
ATOM     20  C   UNL     1      -1.849   1.814  -1.627  0.00  0.00    -0.061 A 
ATOM     21  C   UNL     1      -2.929   2.398  -0.991  0.00  0.00    +0.002 A 
ATOM     22  C   UNL     1      -4.216   2.018  -1.325  0.00  0.00    +0.000 A 
ATOM     23  C   UNL     1      -4.422   1.048  -2.288  0.00  0.00    +0.000 A 
ATOM     24  C   UNL     1      -3.342   0.461  -2.921  0.00  0.00    +0.000 A 
ATOM     25  C   UNL     1      -2.056   0.844  -2.590  0.00  0.00    +0.002 A 
ENDBRANCH  19  20
BRANCH  19  26
ATOM     26  C   UNL     1      -0.023   1.530   0.026  0.00  0.00    -0.021 C 
ATOM     27  C   UNL     1       1.312   0.783   0.020  0.00  0.00    +0.002 C 
ATOM     28  C   UNL     1      -0.003   0.000   0.027  0.00  0.00    +0.002 C 
ENDBRANCH  19  26
ENDBRANCH  16  19
ENDBRANCH   2  16
TORSDOF 7
