REMARK  Name = ZINC66280160
REMARK  2 active torsions:
REMARK  status: ('A' for Active; 'I' for Inactive)
REMARK    1  A    between atoms: C_4  and  C_7
REMARK    2  A    between atoms: C_19  and  C_21
REMARK                            x       y       z     vdW  Elec       q    Type
REMARK                         _______ _______ _______ _____ _____    ______ ____
ROOT
ATOM      1  C   UNL     1       3.696  -0.685  -0.037  0.00  0.00    +0.247 C 
ATOM      2  O   UNL     1       4.735  -0.064  -0.147  0.00  0.00    -0.270 OA
ATOM      3  N   UNL     1       3.720  -2.029   0.057  0.00  0.00    -0.283 N 
ATOM      4  C   UNL     1       4.905  -2.865   0.163  0.00  0.00    +0.080 C 
ATOM      5  C   UNL     1       6.115  -2.288   0.866  0.00  0.00    +0.023 C 
ATOM      6  C   UNL     1       7.228  -3.347   0.808  0.00  0.00    +0.002 C 
ATOM      7  C   UNL     1       6.779  -4.662   1.438  0.00  0.00    +0.000 C 
ATOM      8  C   UNL     1       5.479  -5.178   0.800  0.00  0.00    +0.005 C 
ATOM      9  C   UNL     1       4.432  -4.087   0.997  0.00  0.00    +0.012 C 
ATOM     10  C   UNL     1       3.079  -4.369   0.325  0.00  0.00    +0.037 C 
ATOM     11  C   UNL     1       2.545  -2.932   0.079  0.00  0.00    +0.163 C 
ENDROOT
BRANCH  11  12
ATOM     12  C   UNL     1       1.828  -2.874  -1.245  0.00  0.00    +0.239 C 
ATOM     13  O   UNL     1       2.398  -2.442  -2.225  0.00  0.00    -0.273 OA
ATOM     14  N   UNL     1       0.554  -3.303  -1.341  0.00  0.00    -0.262 N 
ATOM     15  C   UNL     1      -0.107  -3.249  -2.563  0.00  0.00    +0.188 A 
ATOM     16  N   UNL     1       0.335  -2.824  -3.730  0.00  0.00    -0.126 NA
ATOM     17  N   UNL     1      -0.391  -2.837  -4.764  0.00  0.00    -0.148 NA
ATOM     18  C   UNL     1      -1.627  -3.288  -4.675  0.00  0.00    +0.183 A 
ATOM     19  S   UNL     1      -1.682  -3.718  -2.941  0.00  0.00    -0.039 S 
ATOM     20  H   UNL     1       0.099  -3.648  -0.557  0.00  0.00    +0.157 HD
ENDBRANCH  11  12
BRANCH   1  24
ATOM     21  C   UNL     1      -0.015   1.381   0.048  0.00  0.00    +0.000 A 
ATOM     22  C   UNL     1       0.973   1.776  -0.836  0.00  0.00    +0.001 A 
ATOM     23  C   UNL     1       2.180   1.110  -0.869  0.00  0.00    +0.013 A 
ATOM     24  C   UNL     1       2.404   0.035  -0.007  0.00  0.00    +0.037 A 
ATOM     25  C   UNL     1       1.403  -0.358   0.882  0.00  0.00    +0.013 A 
ATOM     26  C   UNL     1       0.200   0.317   0.905  0.00  0.00    +0.001 A 
ENDBRANCH   1  24
TORSDOF 2
