REMARK  Name = ZINC14387101
REMARK  9 active torsions:
REMARK  status: ('A' for Active; 'I' for Inactive)
REMARK    1  A    between atoms: C_1  and  C_2
REMARK    2  A    between atoms: C_2  and  C_4
REMARK    3  A    between atoms: C_2  and  N_12
REMARK    4  A    between atoms: C_13  and  C_15
REMARK    5  A    between atoms: C_17  and  O_27
REMARK    6  A    between atoms: C_18  and  O_22
REMARK    7  A    between atoms: O_22  and  C_23
REMARK    8  A    between atoms: C_23  and  C_24
REMARK    9  A    between atoms: O_27  and  C_28
REMARK                            x       y       z     vdW  Elec       q    Type
REMARK                         _______ _______ _______ _____ _____    ______ ____
ROOT
ATOM      1  C   UNL     1      -1.858  -4.112   1.736  0.00  0.00    +0.042 A 
ATOM      2  C   UNL     1      -2.914  -4.804   2.336  0.00  0.00    +0.062 A 
ATOM      3  C   UNL     1      -2.697  -6.059   2.872  0.00  0.00    +0.164 A 
ATOM      4  C   UNL     1      -1.425  -6.627   2.824  0.00  0.00    +0.181 A 
ATOM      5  C   UNL     1      -0.374  -5.936   2.233  0.00  0.00    +0.087 A 
ATOM      6  C   UNL     1      -0.586  -4.686   1.691  0.00  0.00    +0.037 A 
ATOM      7 CL   UNL     1       1.208  -6.649   2.176  0.00  0.00    -0.080 Cl
ENDROOT
BRANCH   1   9
ATOM      8  N   UNL     1      -1.066  -2.104   0.585  0.00  0.00    -0.305 N 
ATOM      9  C   UNL     1      -2.086  -2.773   1.157  0.00  0.00    +0.245 C 
ATOM     10  O   UNL     1      -3.195  -2.274   1.197  0.00  0.00    -0.270 OA
ATOM     11  H   UNL     1      -0.182  -2.502   0.553  0.00  0.00    +0.150 HD
BRANCH   8  13
ATOM     12  C   UNL     1      -1.809  -0.920  -1.423  0.00  0.00    +0.033 C 
ATOM     13  C   UNL     1      -1.293  -0.775   0.010  0.00  0.00    +0.102 C 
BRANCH  13  14
ATOM     14  C   UNL     1       0.002  -0.004   0.002  0.00  0.00    -0.009 A 
ATOM     15  C   UNL     1       1.208  -0.679  -0.013  0.00  0.00    +0.008 A 
ATOM     16  C   UNL     1       2.396   0.027  -0.020  0.00  0.00    +0.020 A 
ATOM     17  C   UNL     1       2.379   1.411  -0.013  0.00  0.00    +0.042 A 
ATOM     18  C   UNL     1       1.172   2.087   0.002  0.00  0.00    +0.040 A 
ATOM     19  C   UNL     1      -0.017   1.379   0.010  0.00  0.00    +0.047 A 
ATOM     20 CL   UNL     1      -1.532   2.227   0.021  0.00  0.00    -0.083 Cl
ATOM     21 CL   UNL     1       3.871   2.298  -0.021  0.00  0.00    -0.083 Cl
ENDBRANCH  13  14
ENDBRANCH   8  13
ENDBRANCH   1   9
BRANCH   3  22
ATOM     22  O   UNL     1      -3.723  -6.737   3.452  0.00  0.00    -0.491 OA
ATOM     23  C   UNL     1      -4.999  -6.095   3.466  0.00  0.00    +0.277 C 
ENDBRANCH   3  22
BRANCH   4  24
ATOM     24  O   UNL     1      -1.212  -7.858   3.357  0.00  0.00    -0.478 OA
BRANCH  24  25
ATOM     25  C   UNL     1      -0.830  -7.913   4.732  0.00  0.00    +0.324 C 
BRANCH  25  26
ATOM     26  C   UNL     1      -0.639  -9.350   5.144  0.00  0.00    +0.248 C 
ATOM     27  O   UNL     1      -0.814 -10.240   4.338  0.00  0.00    -0.272 OA
ATOM     28  N   UNL     1      -0.275  -9.647   6.407  0.00  0.00    -0.327 N 
ATOM     29  H   UNL     1      -0.135  -8.935   7.051  0.00  0.00    +0.145 HD
ATOM     30  H   UNL     1      -0.152 -10.572   6.672  0.00  0.00    +0.145 HD
ENDBRANCH  25  26
ENDBRANCH  24  25
ENDBRANCH   4  24
TORSDOF 7
