REMARK  Name = ZINC59456610
REMARK  9 active torsions:
REMARK  status: ('A' for Active; 'I' for Inactive)
REMARK    1  A    between atoms: C_1  and  C_2
REMARK    2  A    between atoms: C_2  and  C_3
REMARK    3  A    between atoms: C_3  and  C_5
REMARK    4  A    between atoms: C_3  and  S_19
REMARK    5  A    between atoms: N_7  and  C_8
REMARK    6  A    between atoms: C_9  and  C_17
REMARK    7  A    between atoms: S_19  and  C_20
REMARK    8  A    between atoms: N_33  and  C_34
REMARK    9  A    between atoms: C_34  and  C_35
REMARK                            x       y       z     vdW  Elec       q    Type
REMARK                         _______ _______ _______ _____ _____    ______ ____
ROOT
ATOM      1  S   UNL     1      -0.438   0.031  -2.694  0.00  0.00    -0.073 S 
ENDROOT
BRANCH   1   2
ATOM      2  C   UNL     1       0.366  -0.630  -4.115  0.00  0.00    +0.199 A 
ATOM      3  N   UNL     1       1.478  -1.334  -4.127  0.00  0.00    -0.120 NA
ATOM      4  N   UNL     1       1.787  -1.660  -5.332  0.00  0.00    -0.106 NA
ATOM      5  C   UNL     1       0.887  -1.183  -6.170  0.00  0.00    +0.276 A 
ATOM      6  N   UNL     1      -0.049  -0.514  -5.405  0.00  0.00    -0.237 N 
ATOM      7  C   UNL     1      -1.115   0.084  -6.029  0.00  0.00    +0.152 A 
ATOM      8  C   UNL     1      -1.200  -0.019  -7.415  0.00  0.00    +0.136 A 
ATOM      9  C   UNL     1      -2.421   0.702  -7.812  0.00  0.00    +0.029 A 
ATOM     10  C   UNL     1      -3.039   0.952  -9.035  0.00  0.00    +0.012 A 
ATOM     11  C   UNL     1      -4.208   1.680  -9.074  0.00  0.00    +0.001 A 
ATOM     12  C   UNL     1      -4.770   2.164  -7.902  0.00  0.00    +0.002 A 
ATOM     13  C   UNL     1      -4.169   1.924  -6.685  0.00  0.00    +0.026 A 
ATOM     14  C   UNL     1      -2.989   1.191  -6.624  0.00  0.00    +0.053 A 
ATOM     15  N   UNL     1      -2.180   0.802  -5.572  0.00  0.00    -0.325 N 
ATOM     16  N   UNL     1      -0.258  -0.685  -8.095  0.00  0.00    -0.142 NA
ATOM     17  N   UNL     1       0.743  -1.237  -7.503  0.00  0.00    -0.108 NA
BRANCH  15  18
ATOM     18  C   UNL     1      -2.433   1.117  -4.164  0.00  0.00    +0.120 C 
ATOM     19  C   UNL     1      -3.136  -0.065  -3.495  0.00  0.00    +0.027 C 
ENDBRANCH  15  18
ENDBRANCH   1   2
BRANCH   1  20
ATOM     20  C   UNL     1       0.535  -0.607  -1.302  0.00  0.00    +0.140 C 
BRANCH  20  21
ATOM     21  C   UNL     1       0.391  -2.105  -1.234  0.00  0.00    +0.231 C 
ATOM     22  O   UNL     1      -0.546  -2.650  -1.778  0.00  0.00    -0.274 OA
ATOM     23  N   UNL     1       1.304  -2.840  -0.569  0.00  0.00    -0.278 N 
ATOM     24  H   UNL     1       2.054  -2.404  -0.134  0.00  0.00    +0.155 HD
BRANCH  23  25
ATOM     25  C   UNL     1       1.172  -4.220  -0.506  0.00  0.00    +0.090 A 
ATOM     26  C   UNL     1       2.003  -5.127   0.132  0.00  0.00    +0.084 A 
ATOM     27  C   UNL     1       1.642  -6.531   0.049  0.00  0.00    -0.018 A 
ATOM     28  C   UNL     1       0.515  -6.771  -0.657  0.00  0.00    -0.004 A 
ATOM     29  S   UNL     1      -0.036  -5.173  -1.179  0.00  0.00    -0.077 S 
ATOM     30  C   UNL     1      -0.113  -8.104  -0.923  0.00  0.00    +0.043 C 
ATOM     31  C   UNL     1       0.916  -9.196  -0.593  0.00  0.00    +0.005 C 
ATOM     32  C   UNL     1       1.532  -8.899   0.777  0.00  0.00    +0.005 C 
ATOM     33  C   UNL     1       2.432  -7.664   0.687  0.00  0.00    +0.037 C 
BRANCH  26  34
ATOM     34  C   UNL     1       3.170  -4.698   0.842  0.00  0.00    +0.102 C 
ATOM     35  N   UNL     1       4.095  -4.357   1.406  0.00  0.00    -0.191 NA
ENDBRANCH  26  34
ENDBRANCH  23  25
ENDBRANCH  20  21
BRANCH  20  37
ATOM     36  C   UNL     1       0.303   1.519  -0.011  0.00  0.00    +0.005 C 
ATOM     37  C   UNL     1       0.029   0.014   0.001  0.00  0.00    +0.020 C 
ENDBRANCH  20  37
ENDBRANCH   1  20
TORSDOF 7
