REMARK  Name = ZINC59309564
REMARK  12 active torsions:
REMARK  status: ('A' for Active; 'I' for Inactive)
REMARK    1  A    between atoms: C_1  and  C_2
REMARK    2  A    between atoms: C_2  and  O_3
REMARK    3  A    between atoms: O_3  and  C_4
REMARK    4  A    between atoms: C_4  and  C_6
REMARK    5  A    between atoms: C_10  and  N_11
REMARK    6  A    between atoms: C_12  and  C_14
REMARK    7  A    between atoms: C_14  and  S_15
REMARK    8  A    between atoms: S_15  and  C_16
REMARK    9  A    between atoms: N_21  and  N_22
REMARK   10  A    between atoms: C_23  and  C_24
REMARK   11  A    between atoms: C_23  and  C_25
REMARK   12  A    between atoms: C_28  and  N_31
REMARK                            x       y       z     vdW  Elec       q    Type
REMARK                         _______ _______ _______ _____ _____    ______ ____
ROOT
ATOM      1  C   UNL     1      -5.510  -0.532   8.488  0.00  0.00    +0.211 A 
ATOM      2  N   UNL     1      -5.650  -1.423   9.475  0.00  0.00    -0.186 NA
ATOM      3  C   UNL     1      -4.630  -1.331  10.302  0.00  0.00    +0.232 A 
ATOM      4  N   UNL     1      -3.809  -0.362   9.846  0.00  0.00    -0.245 N 
ATOM      5  N   UNL     1      -4.395   0.135   8.671  0.00  0.00    -0.144 NA
ATOM      6  N   UNL     1      -4.435  -2.094  11.439  0.00  0.00    -0.205 N 
ATOM      7  H   UNL     1      -3.648  -1.953  11.989  0.00  0.00    +0.177 HD
ATOM      8  H   UNL     1      -2.976  -0.069  10.248  0.00  0.00    +0.192 HD
ENDROOT
BRANCH   6   9
ATOM      9  N   UNL     1      -5.372  -3.072  11.796  0.00  0.00    -0.184 NA
ATOM     10  C   UNL     1      -5.250  -3.708  12.921  0.00  0.00    +0.063 C 
ATOM     11  C   UNL     1      -6.144  -4.884  13.223  0.00  0.00    +0.068 C 
BRANCH  10  12
ATOM     12  C   UNL     1      -4.238  -3.280  13.904  0.00  0.00    -0.002 A 
ATOM     13  C   UNL     1      -3.963  -1.921  14.079  0.00  0.00    +0.011 A 
ATOM     14  C   UNL     1      -3.016  -1.525  14.998  0.00  0.00    +0.023 A 
ATOM     15  C   UNL     1      -2.334  -2.475  15.751  0.00  0.00    +0.025 A 
ATOM     16  C   UNL     1      -2.605  -3.829  15.578  0.00  0.00    +0.023 A 
ATOM     17  C   UNL     1      -3.555  -4.232  14.666  0.00  0.00    +0.011 A 
BRANCH  15  18
ATOM     18  N   UNL     1      -1.376  -2.071  16.680  0.00  0.00    -0.358 N 
ATOM     19  H   UNL     1      -1.185  -1.127  16.801  0.00  0.00    +0.142 HD
ATOM     20  H   UNL     1      -0.899  -2.732  17.206  0.00  0.00    +0.142 HD
ENDBRANCH  15  18
ENDBRANCH  10  12
ENDBRANCH   6   9
BRANCH   1  21
ATOM     21  S   UNL     1      -6.636  -0.296   7.153  0.00  0.00    -0.075 S 
BRANCH  21  22
ATOM     22  C   UNL     1      -5.882   1.030   6.171  0.00  0.00    +0.173 C 
BRANCH  22  24
ATOM     23  N   UNL     1      -6.393   2.291   4.106  0.00  0.00    -0.279 N 
ATOM     24  C   UNL     1      -6.756   1.333   4.982  0.00  0.00    +0.228 C 
ATOM     25  O   UNL     1      -7.786   0.716   4.813  0.00  0.00    -0.275 OA
ATOM     26  H   UNL     1      -5.569   2.785   4.241  0.00  0.00    +0.155 HD
BRANCH  23  31
ATOM     27  C   UNL     1      -6.986   3.510   2.019  0.00  0.00    +0.091 A 
ATOM     28  C   UNL     1      -7.992   3.604   0.961  0.00  0.00    -0.021 A 
ATOM     29  C   UNL     1      -9.018   2.747   1.103  0.00  0.00    -0.004 A 
ATOM     30  S   UNL     1      -8.651   1.849   2.589  0.00  0.00    -0.077 S 
ATOM     31  C   UNL     1      -7.197   2.571   3.012  0.00  0.00    +0.086 A 
ATOM     32  C   UNL     1     -10.024   2.888  -0.007  0.00  0.00    +0.043 C 
ATOM     33  C   UNL     1      -9.708   4.256  -0.649  0.00  0.00    +0.010 C 
ATOM     34  C   UNL     1      -8.214   4.428  -0.305  0.00  0.00    +0.037 C 
BRANCH  27  35
ATOM     35  C   UNL     1      -5.802   4.371   2.023  0.00  0.00    +0.342 C 
ATOM     36  O   UNL     1      -4.786   4.012   1.458  0.00  0.00    -0.245 OA
BRANCH  35  37
ATOM     37  O   UNL     1      -5.837   5.563   2.654  0.00  0.00    -0.461 OA
BRANCH  37  39
ATOM     38  C   UNL     1      -4.875   7.658   3.380  0.00  0.00    +0.048 C 
ATOM     39  C   UNL     1      -4.645   6.351   2.617  0.00  0.00    +0.229 C 
ENDBRANCH  37  39
ENDBRANCH  35  37
ENDBRANCH  27  35
ENDBRANCH  23  31
ENDBRANCH  22  24
ENDBRANCH  21  22
ENDBRANCH   1  21
TORSDOF 10
