REMARK  Name = ZINC13097721
REMARK  10 active torsions:
REMARK  status: ('A' for Active; 'I' for Inactive)
REMARK    1  A    between atoms: C_1  and  C_2
REMARK    2  A    between atoms: C_5  and  C_8
REMARK    3  A    between atoms: C_8  and  C_34
REMARK    4  A    between atoms: N_11  and  C_15
REMARK    5  A    between atoms: C_15  and  N_16
REMARK    6  A    between atoms: N_19  and  S_22
REMARK    7  A    between atoms: S_22  and  C_25
REMARK    8  A    between atoms: C_28  and  C_31
REMARK    9  A    between atoms: C_31  and  C_32
REMARK   10  A    between atoms: C_31  and  C_33
REMARK                            x       y       z     vdW  Elec       q    Type
REMARK                         _______ _______ _______ _____ _____    ______ ____
ROOT
ATOM      1  N   UNL     1       3.885  -5.248  -2.010  0.00  0.00    -0.284 NA
ATOM      2  C   UNL     1       3.496  -4.340  -3.097  0.00  0.00    +0.103 C 
ATOM      3  C   UNL     1       4.589  -3.283  -3.290  0.00  0.00    +0.125 C 
ATOM      4  N   UNL     1       5.875  -3.970  -3.483  0.00  0.00    -0.174 NA
ATOM      5  C   UNL     1       6.269  -4.995  -2.505  0.00  0.00    +0.125 C 
ATOM      6  C   UNL     1       5.111  -5.985  -2.343  0.00  0.00    +0.103 C 
ENDROOT
BRANCH   4   7
ATOM      7  S   UNL     1       6.853  -3.598  -4.766  0.00  0.00    +0.061 S 
ATOM      8  O   UNL     1       6.515  -2.277  -5.165  0.00  0.00    -0.153 OA
ATOM      9  O   UNL     1       8.173  -3.966  -4.391  0.00  0.00    -0.153 OA
BRANCH   7  10
ATOM     10  C   UNL     1       6.393  -4.659  -6.096  0.00  0.00    +0.105 A 
ATOM     11  C   UNL     1       7.014  -5.885  -6.248  0.00  0.00    +0.029 A 
ATOM     12  C   UNL     1       6.650  -6.719  -7.289  0.00  0.00    +0.006 A 
ATOM     13  C   UNL     1       5.672  -6.324  -8.182  0.00  0.00    -0.045 A 
ATOM     14  C   UNL     1       5.055  -5.096  -8.033  0.00  0.00    +0.006 A 
ATOM     15  C   UNL     1       5.416  -4.263  -6.990  0.00  0.00    +0.029 A 
BRANCH  13  16
ATOM     16  C   UNL     1       5.278  -7.231  -9.319  0.00  0.00    +0.013 C 
ATOM     17  C   UNL     1       6.497  -7.501 -10.202  0.00  0.00    +0.012 C 
ATOM     18  C   UNL     1       4.753  -8.554  -8.757  0.00  0.00    +0.012 C 
ENDBRANCH  13  16
ENDBRANCH   7  10
ENDBRANCH   4   7
BRANCH   1  19
ATOM     19  C   UNL     1       2.790  -6.170  -1.678  0.00  0.00    +0.205 C 
BRANCH  19  23
ATOM     20  C   UNL     1       0.058  -4.275  -0.021  0.00  0.00    +0.135 C 
ATOM     21  C   UNL     1       0.763  -4.793  -1.260  0.00  0.00    +0.252 C 
ATOM     22  O   UNL     1       0.439  -4.616  -2.415  0.00  0.00    -0.272 OA
ATOM     23  N   UNL     1       1.825  -5.490  -0.810  0.00  0.00    -0.210 N 
ATOM     24  C   UNL     1       1.889  -5.485   0.526  0.00  0.00    +0.311 C 
ATOM     25  O   UNL     1       2.758  -6.046   1.163  0.00  0.00    -0.252 OA
ATOM     26  N   UNL     1       0.883  -4.789   1.086  0.00  0.00    -0.281 N 
ATOM     27  C   UNL     1      -1.365  -4.831   0.060  0.00  0.00    +0.047 C 
ATOM     28  H   UNL     1       0.606  -4.566   2.127  0.00  0.00    +0.152 HD
BRANCH  20  33
ATOM     29  C   UNL     1      -0.018   1.503   0.010  0.00  0.00    +0.044 C 
ATOM     30  C   UNL     1       0.002  -0.004   0.002  0.00  0.00    -0.050 A 
ATOM     31  C   UNL     1      -0.006  -0.689  -1.199  0.00  0.00    +0.004 A 
ATOM     32  C   UNL     1       0.018  -2.071  -1.206  0.00  0.00    +0.006 A 
ATOM     33  C   UNL     1       0.039  -2.768  -0.013  0.00  0.00    -0.015 A 
ATOM     34  C   UNL     1       0.041  -2.084   1.188  0.00  0.00    +0.006 A 
ATOM     35  C   UNL     1       0.023  -0.702   1.195  0.00  0.00    +0.004 A 
ENDBRANCH  20  33
ENDBRANCH  19  23
ENDBRANCH   1  19
TORSDOF 6
