REMARK  Name = ZINC10141120
REMARK  3 active torsions:
REMARK  status: ('A' for Active; 'I' for Inactive)
REMARK    1  A    between atoms: C_8  and  S_10
REMARK    2  A    between atoms: S_10  and  C_11
REMARK    3  A    between atoms: C_11  and  C_12
REMARK                            x       y       z     vdW  Elec       q    Type
REMARK                         _______ _______ _______ _____ _____    ______ ____
ROOT
ATOM      1  C   UNL     1      -1.960   1.233   3.321  0.00  0.00    +0.174 C 
ENDROOT
BRANCH   1   2
ATOM      2  C   UNL     1      -1.248   0.708   2.101  0.00  0.00    +0.226 C 
ATOM      3  O   UNL     1      -1.157  -0.488   1.920  0.00  0.00    -0.275 OA
ATOM      4  N   UNL     1      -0.714   1.567   1.210  0.00  0.00    -0.291 N 
ATOM      5  C   UNL     1      -0.013   1.086   0.008  0.00  0.00    +0.127 C 
ATOM      6  C   UNL     1      -0.765   1.599  -1.222  0.00  0.00    +0.123 C 
ATOM      7  N   UNL     1      -1.079   3.014  -1.082  0.00  0.00    -0.313 N 
ATOM      8  C   UNL     1      -1.145   3.664   0.081  0.00  0.00    +0.230 C 
ATOM      9  O   UNL     1      -1.494   4.825   0.075  0.00  0.00    -0.274 OA
ATOM     10  C   UNL     1      -0.809   3.022   1.399  0.00  0.00    +0.203 C 
ATOM     11  H   UNL     1      -1.251   3.520  -1.892  0.00  0.00    +0.149 HD
ENDBRANCH   1   2
BRANCH   1  12
ATOM     12  S   UNL     1      -2.561  -0.155   4.314  0.00  0.00    -0.058 S 
BRANCH  12  20
ATOM     13  C   UNL     1      -5.081   3.547   8.683  0.00  0.00    +0.002 A 
ATOM     14  C   UNL     1      -5.445   2.347   9.275  0.00  0.00    +0.004 A 
ATOM     15  C   UNL     1      -5.112   1.146   8.683  0.00  0.00    +0.048 A 
ATOM     16  C   UNL     1      -4.411   1.135   7.488  0.00  0.00    +0.156 A 
ATOM     17  C   UNL     1      -4.041   2.347   6.886  0.00  0.00    +0.110 A 
ATOM     18  C   UNL     1      -4.383   3.555   7.495  0.00  0.00    +0.031 A 
ATOM     19  N   UNL     1      -3.369   2.026   5.746  0.00  0.00    -0.203 NA
ATOM     20  C   UNL     1      -3.327   0.722   5.636  0.00  0.00    +0.258 A 
ATOM     21  O   UNL     1      -3.950   0.151   6.682  0.00  0.00    -0.431 OA
ENDBRANCH  12  20
ENDBRANCH   1  12
TORSDOF 3
