REMARK  Name = ZINC10157406
REMARK  4 active torsions:
REMARK  status: ('A' for Active; 'I' for Inactive)
REMARK    1  A    between atoms: C_1  and  C_2
REMARK    2  A    between atoms: C_7  and  O_28
REMARK    3  A    between atoms: C_19  and  C_21
REMARK    4  A    between atoms: O_28  and  C_29
REMARK                            x       y       z     vdW  Elec       q    Type
REMARK                         _______ _______ _______ _____ _____    ______ ____
ROOT
ATOM      1  C   UNL     1      -1.141  -2.073  -0.248  0.00  0.00    +0.066 C 
ATOM      2  C   UNL     1       0.118  -2.872  -0.029  0.00  0.00    +0.051 A 
ATOM      3  C   UNL     1       0.057  -4.251   0.245  0.00  0.00    +0.025 A 
ATOM      4  C   UNL     1      -1.162  -4.940   0.327  0.00  0.00    +0.012 A 
ATOM      5  C   UNL     1      -1.163  -6.276   0.595  0.00  0.00    +0.004 A 
ATOM      6  C   UNL     1       0.028  -6.970   0.791  0.00  0.00    +0.048 A 
ATOM      7  C   UNL     1       1.235  -6.332   0.719  0.00  0.00    +0.146 A 
ATOM      8  C   UNL     1       1.274  -4.953   0.443  0.00  0.00    +0.118 A 
ATOM      9  N   UNL     1       2.427  -4.280   0.356  0.00  0.00    -0.210 NA
ATOM     10  C   UNL     1       2.423  -2.987   0.101  0.00  0.00    +0.223 A 
ATOM     11  N   UNL     1       1.301  -2.296  -0.090  0.00  0.00    -0.219 NA
ATOM     12  N   UNL     1       3.637  -2.319   0.022  0.00  0.00    -0.254 N 
ATOM     13  C   UNL     1       3.673  -1.003  -0.367  0.00  0.00    +0.203 A 
ATOM     14  N   UNL     1       4.874  -0.371  -0.467  0.00  0.00    -0.295 N 
ATOM     15  H   UNL     1       5.692  -0.851  -0.263  0.00  0.00    +0.172 HD
ATOM     16  C   UNL     1       4.931   0.922  -0.848  0.00  0.00    +0.253 A 
ATOM     17  O   UNL     1       6.003   1.496  -0.940  0.00  0.00    -0.268 OA
ATOM     18  C   UNL     1       3.734   1.595  -1.137  0.00  0.00    +0.098 A 
ATOM     19  C   UNL     1       2.537   0.904  -1.019  0.00  0.00    +0.080 A 
ATOM     20  N   UNL     1       2.546  -0.379  -0.631  0.00  0.00    -0.216 NA
ATOM     21  H   UNL     1       4.460  -2.783   0.243  0.00  0.00    +0.158 HD
ENDROOT
BRANCH  19  22
ATOM     22  C   UNL     1       1.254   1.582  -1.316  0.00  0.00    +0.001 A 
ATOM     23  C   UNL     1       0.069   0.848  -1.367  0.00  0.00    +0.013 A 
ATOM     24  C   UNL     1      -1.122   1.483  -1.649  0.00  0.00    +0.039 A 
ATOM     25  C   UNL     1      -1.145   2.851  -1.871  0.00  0.00    +0.123 A 
ATOM     26  C   UNL     1       0.030   3.585  -1.821  0.00  0.00    +0.039 A 
ATOM     27  C   UNL     1       1.227   2.958  -1.545  0.00  0.00    +0.013 A 
ATOM     28  F   UNL     1      -2.314   3.469  -2.143  0.00  0.00    -0.205 F 
ENDBRANCH  19  22
BRANCH   7  29
ATOM     29  O   UNL     1       2.388  -7.025   0.911  0.00  0.00    -0.493 OA
ATOM     30  C   UNL     1       2.267  -8.422   1.186  0.00  0.00    +0.277 C 
ENDBRANCH   7  29
TORSDOF 2
