REMARK  Name = ZINC01923324
REMARK  10 active torsions:
REMARK  status: ('A' for Active; 'I' for Inactive)
REMARK    1  A    between atoms: C_1  and  C_2
REMARK    2  A    between atoms: C_9  and  N_15
REMARK    3  A    between atoms: C_10  and  C_11
REMARK    4  A    between atoms: C_11  and  O_13
REMARK    5  A    between atoms: O_13  and  C_14
REMARK    6  A    between atoms: C_16  and  C_18
REMARK    7  A    between atoms: C_18  and  N_19
REMARK    8  A    between atoms: C_23  and  S_24
REMARK    9  A    between atoms: S_24  and  C_25
REMARK   10  A    between atoms: C_25  and  C_26
REMARK                            x       y       z     vdW  Elec       q    Type
REMARK                         _______ _______ _______ _____ _____    ______ ____
ROOT
ATOM      1  N   UNL     1      -1.280  -2.321  -2.485  0.00  0.00    -0.278 N 
ATOM      2  C   UNL     1      -1.323  -3.176  -3.527  0.00  0.00    +0.238 C 
ATOM      3  O   UNL     1      -1.367  -4.371  -3.329  0.00  0.00    -0.273 OA
ATOM      4  H   UNL     1      -1.245  -1.365  -2.643  0.00  0.00    +0.155 HD
ENDROOT
BRANCH   1  12
ATOM      5  C   UNL     1      -1.431  -5.475   4.671  0.00  0.00    +0.008 C 
ATOM      6  C   UNL     1      -1.689  -4.522   3.503  0.00  0.00    -0.009 C 
ATOM      7  C   UNL     1      -0.801  -3.282   3.642  0.00  0.00    +0.008 C 
ATOM      8  C   UNL     1      -1.227  -2.221   2.626  0.00  0.00    +0.037 C 
ATOM      9  C   UNL     1      -1.260  -2.856   1.241  0.00  0.00    -0.021 A 
ATOM     10  C   UNL     1      -1.320  -4.197   1.093  0.00  0.00    -0.004 A 
ATOM     11  S   UNL     1      -1.346  -4.458  -0.658  0.00  0.00    -0.077 S 
ATOM     12  C   UNL     1      -1.287  -2.809  -1.188  0.00  0.00    +0.086 A 
ATOM     13  C   UNL     1      -1.248  -2.096   0.003  0.00  0.00    +0.091 A 
ATOM     14  C   UNL     1      -1.351  -5.226   2.180  0.00  0.00    +0.046 C 
BRANCH  13  15
ATOM     15  C   UNL     1      -1.191  -0.633   0.010  0.00  0.00    +0.342 C 
ATOM     16  O   UNL     1      -2.220   0.016   0.023  0.00  0.00    -0.245 OA
BRANCH  15  17
ATOM     17  O   UNL     1       0.002  -0.004   0.002  0.00  0.00    -0.464 OA
ATOM     18  C   UNL     1      -0.018   1.448   0.010  0.00  0.00    +0.280 C 
ENDBRANCH  15  17
ENDBRANCH  13  15
ENDBRANCH   1  12
BRANCH   2  19
ATOM     19  C   UNL     1      -1.316  -2.645  -4.937  0.00  0.00    +0.223 C 
BRANCH  19  20
ATOM     20  N   UNL     1      -1.368  -3.765  -5.881  0.00  0.00    -0.282 N 
ATOM     21  C   UNL     1      -2.501  -4.335  -6.388  0.00  0.00    +0.216 A 
ATOM     22  N   UNL     1      -2.141  -5.303  -7.194  0.00  0.00    -0.113 NA
ATOM     23  N   UNL     1      -0.741  -5.358  -7.208  0.00  0.00    -0.121 NA
ATOM     24  C   UNL     1      -0.291  -4.418  -6.413  0.00  0.00    +0.194 A 
ATOM     25  N   UNL     1      -3.805  -3.957  -6.098  0.00  0.00    -0.328 N 
ATOM     26  H   UNL     1      -3.973  -3.224  -5.484  0.00  0.00    +0.145 HD
ATOM     27  H   UNL     1      -4.549  -4.425  -6.510  0.00  0.00    +0.145 HD
BRANCH  24  28
ATOM     28  S   UNL     1       1.403  -4.061  -6.084  0.00  0.00    -0.081 S 
BRANCH  28  29
ATOM     29  C   UNL     1       2.308  -5.271  -7.088  0.00  0.00    +0.114 C 
BRANCH  29  30
ATOM     30  C   UNL     1       3.790  -5.074  -6.896  0.00  0.00    -0.019 A 
ATOM     31  C   UNL     1       4.486  -4.216  -7.728  0.00  0.00    +0.006 A 
ATOM     32  C   UNL     1       5.844  -4.032  -7.550  0.00  0.00    +0.000 A 
ATOM     33  C   UNL     1       6.509  -4.712  -6.546  0.00  0.00    +0.001 A 
ATOM     34  C   UNL     1       5.815  -5.573  -5.718  0.00  0.00    +0.020 A 
ATOM     35  C   UNL     1       4.455  -5.755  -5.892  0.00  0.00    +0.045 A 
ATOM     36 CL   UNL     1       3.582  -6.837  -4.852  0.00  0.00    -0.083 Cl
ENDBRANCH  29  30
ENDBRANCH  28  29
ENDBRANCH  24  28
ENDBRANCH  19  20
ENDBRANCH   2  19
TORSDOF 8
