REMARK  Name = ZINC13308929
REMARK  9 active torsions:
REMARK  status: ('A' for Active; 'I' for Inactive)
REMARK    1  A    between atoms: C_1  and  C_2
REMARK    2  A    between atoms: C_2  and  C_3
REMARK    3  A    between atoms: C_3  and  C_5
REMARK    4  A    between atoms: C_3  and  C_7
REMARK    5  A    between atoms: C_7  and  C_9
REMARK    6  A    between atoms: C_9  and  S_10
REMARK    7  A    between atoms: S_10  and  C_11
REMARK    8  A    between atoms: C_14  and  C_23
REMARK    9  A    between atoms: N_15  and  C_16
REMARK                            x       y       z     vdW  Elec       q    Type
REMARK                         _______ _______ _______ _____ _____    ______ ____
ROOT
ATOM      1  C   UNL     1      -1.117   6.888   4.569  0.00  0.00    +0.197 A 
ATOM      2  N   UNL     1       0.132   7.187   4.297  0.00  0.00    -0.122 NA
ATOM      3  N   UNL     1       0.430   8.336   4.790  0.00  0.00    -0.128 NA
ATOM      4  C   UNL     1      -0.612   8.844   5.408  0.00  0.00    +0.171 A 
ATOM      5  N   UNL     1      -1.639   7.935   5.282  0.00  0.00    -0.270 N 
ENDROOT
BRANCH   4   6
ATOM      6  C   UNL     1      -0.672  10.146   6.102  0.00  0.00    +0.045 A 
ATOM      7  C   UNL     1      -1.748  10.679   6.736  0.00  0.00    +0.095 A 
ATOM      8  N   UNL     1      -1.418  11.895   7.260  0.00  0.00    -0.360 N 
ATOM      9  H   UNL     1      -2.022  12.466   7.761  0.00  0.00    +0.165 HD
ATOM     10  C   UNL     1      -0.105  12.199   6.970  0.00  0.00    +0.047 A 
ATOM     11  C   UNL     1       0.422  11.124   6.234  0.00  0.00    +0.010 A 
ATOM     12  C   UNL     1       1.746  11.158   5.801  0.00  0.00    +0.011 A 
ATOM     13  C   UNL     1       2.533  12.249   6.097  0.00  0.00    +0.001 A 
ATOM     14  C   UNL     1       2.013  13.311   6.823  0.00  0.00    +0.002 A 
ATOM     15  C   UNL     1       0.706  13.291   7.258  0.00  0.00    +0.026 A 
ENDBRANCH   4   6
BRANCH   5  16
ATOM     16  C   UNL     1      -2.944   8.055   5.780  0.00  0.00    +0.051 A 
ATOM     17  C   UNL     1      -3.784   9.050   5.297  0.00  0.00    +0.028 A 
ATOM     18  C   UNL     1      -5.071   9.163   5.786  0.00  0.00    +0.022 A 
ATOM     19  C   UNL     1      -5.519   8.293   6.764  0.00  0.00    +0.041 A 
ATOM     20  C   UNL     1      -4.683   7.305   7.251  0.00  0.00    +0.022 A 
ATOM     21  C   UNL     1      -3.397   7.184   6.761  0.00  0.00    +0.028 A 
ATOM     22 CL   UNL     1      -7.135   8.443   7.382  0.00  0.00    -0.084 Cl
ENDBRANCH   5  16
BRANCH   1  23
ATOM     23  S   UNL     1      -1.966   5.417   4.098  0.00  0.00    -0.078 S 
BRANCH  23  24
ATOM     24  C   UNL     1      -0.643   4.562   3.206  0.00  0.00    +0.153 C 
BRANCH  24  25
ATOM     25  C   UNL     1      -1.154   3.240   2.696  0.00  0.00    +0.166 C 
ATOM     26  O   UNL     1      -2.295   2.909   2.914  0.00  0.00    -0.295 OA
BRANCH  25  27
ATOM     27  C   UNL     1      -0.242   2.330   1.915  0.00  0.00    +0.199 C 
BRANCH  27  29
ATOM     28  C   UNL     1      -1.821   2.118  -0.152  0.00  0.00    +0.059 C 
ATOM     29  C   UNL     1      -1.062   1.477   0.981  0.00  0.00    +0.008 C 
ATOM     30  H   UNL     1      -0.720  -0.287   1.891  0.00  0.00    +0.155 HD
ATOM     31  N   UNL     1      -1.149   0.185   1.095  0.00  0.00    -0.404 N 
ATOM     32  H   UNL     1      -1.650  -0.361   0.384  0.00  0.00    +0.155 HD
ENDBRANCH  27  29
BRANCH  27  33
ATOM     33  C   UNL     1       0.501   1.463   2.845  0.00  0.00    +0.079 C 
ATOM     34  N   UNL     1       1.074   0.795   3.563  0.00  0.00    -0.195 NA
ENDBRANCH  27  33
ENDBRANCH  25  27
ENDBRANCH  24  25
ENDBRANCH  23  24
ENDBRANCH   1  23
TORSDOF 8
