REMARK  Name = ZINC42872782
REMARK  2 active torsions:
REMARK  status: ('A' for Active; 'I' for Inactive)
REMARK    1  A    between atoms: C_3  and  C_6
REMARK    2  A    between atoms: N_14  and  C_15
REMARK                            x       y       z     vdW  Elec       q    Type
REMARK                         _______ _______ _______ _____ _____    ______ ____
ROOT
ATOM      1  C   UNL     1       3.761   1.845  -0.024  0.00  0.00    +0.114 C 
ATOM      2  C   UNL     1       4.340   1.753  -1.452  0.00  0.00    +0.029 C 
ATOM      3  C   UNL     1       5.809   1.318  -1.203  0.00  0.00    +0.021 C 
ATOM      4  C   UNL     1       5.652   0.381   0.021  0.00  0.00    +0.110 C 
ATOM      5  N   UNL     1       4.600   1.009   0.846  0.00  0.00    -0.278 N 
ATOM      6  C   UNL     1       4.434   0.844   2.174  0.00  0.00    +0.303 C 
ATOM      7  O   UNL     1       3.528   1.414   2.749  0.00  0.00    -0.253 OA
ATOM      8  N   UNL     1       5.274   0.046   2.863  0.00  0.00    -0.295 N 
ATOM      9  H   UNL     1       5.997  -0.409   2.404  0.00  0.00    +0.151 HD
ENDROOT
BRANCH   8  10
ATOM     10  C   UNL     1       5.094  -0.133   4.306  0.00  0.00    +0.097 C 
ATOM     11  C   UNL     1       5.825   0.988   5.064  0.00  0.00    +0.046 C 
ATOM     12  C   UNL     1       5.915   0.636   6.568  0.00  0.00    +0.168 C 
ATOM     13  S   UNL     1       5.908  -1.203   6.554  0.00  0.00    -0.029 S 
ATOM     14  O   UNL     1       7.187  -1.673   6.958  0.00  0.00    -0.174 OA
ATOM     15  O   UNL     1       4.748  -1.667   7.231  0.00  0.00    -0.174 OA
ATOM     16  C   UNL     1       5.706  -1.494   4.746  0.00  0.00    +0.188 C 
ENDBRANCH   8  10
BRANCH   1  19
ATOM     17  C   UNL     1      -0.016   1.351   0.009  0.00  0.00    +0.008 A 
ATOM     18  C   UNL     1       1.183   2.038   0.002  0.00  0.00    +0.013 A 
ATOM     19  C   UNL     1       2.343   1.336  -0.013  0.00  0.00    +0.010 A 
ATOM     20  S   UNL     1       1.754  -0.349  -0.017  0.00  0.00    -0.100 S 
ATOM     21  C   UNL     1       0.002  -0.004   0.002  0.00  0.00    +0.045 A 
ENDBRANCH   1  19
TORSDOF 2
