REMARK  Name = ZINC45162859
REMARK  7 active torsions:
REMARK  status: ('A' for Active; 'I' for Inactive)
REMARK    1  A    between atoms: C_7  and  C_11
REMARK    2  A    between atoms: C_12  and  C_13
REMARK    3  A    between atoms: C_12  and  C_15
REMARK    4  A    between atoms: N_17  and  C_18
REMARK    5  A    between atoms: C_19  and  C_27
REMARK    6  A    between atoms: N_29  and  C_30
REMARK    7  A    between atoms: C_30  and  C_31
REMARK                            x       y       z     vdW  Elec       q    Type
REMARK                         _______ _______ _______ _____ _____    ______ ____
ROOT
ATOM      1  C   UNL     1      -0.017  -7.974  -0.461  0.00  0.00    +0.085 A 
ATOM      2  C   UNL     1       0.315  -9.315  -0.578  0.00  0.00    +0.069 A 
ATOM      3  C   UNL     1      -0.781 -10.265  -0.669  0.00  0.00    -0.023 A 
ATOM      4  C   UNL     1      -2.006  -9.699  -0.627  0.00  0.00    -0.004 A 
ATOM      5  S   UNL     1      -1.696  -7.966  -0.464  0.00  0.00    -0.077 S 
ATOM      6  C   UNL     1      -3.325 -10.405  -0.699  0.00  0.00    +0.043 C 
ATOM      7  C   UNL     1      -3.081 -11.833  -1.208  0.00  0.00    +0.005 C 
ATOM      8  C   UNL     1      -1.924 -12.450  -0.415  0.00  0.00    +0.005 C 
ATOM      9  C   UNL     1      -0.608 -11.771  -0.800  0.00  0.00    +0.037 C 
ENDROOT
BRANCH   1  12
ATOM     10  C   UNL     1       0.340  -5.644  -0.246  0.00  0.00    +0.259 C 
ATOM     11  O   UNL     1      -0.865  -5.471  -0.233  0.00  0.00    -0.269 OA
ATOM     12  N   UNL     1       0.840  -6.890  -0.359  0.00  0.00    -0.275 N 
ATOM     13  H   UNL     1       1.800  -7.029  -0.370  0.00  0.00    +0.156 HD
BRANCH  10  15
ATOM     14  C   UNL     1       0.734  -3.216  -0.022  0.00  0.00    +0.034 C 
ATOM     15  C   UNL     1       1.248  -4.496  -0.138  0.00  0.00    +0.114 C 
BRANCH  14  22
ATOM     16  C   UNL     1       0.227   1.226   1.259  0.00  0.00    +0.001 A 
ATOM     17  C   UNL     1       1.375   1.966   1.015  0.00  0.00    +0.002 A 
ATOM     18  C   UNL     1       2.486   1.373   0.457  0.00  0.00    +0.026 A 
ATOM     19  C   UNL     1       2.463   0.020   0.133  0.00  0.00    +0.047 A 
ATOM     20  C   UNL     1       1.301  -0.726   0.381  0.00  0.00    +0.007 A 
ATOM     21  C   UNL     1       0.185  -0.115   0.944  0.00  0.00    +0.010 A 
ATOM     22  C   UNL     1       1.600  -2.100  -0.069  0.00  0.00    +0.001 A 
ATOM     23  C   UNL     1       2.897  -2.075  -0.544  0.00  0.00    +0.091 A 
ATOM     24  N   UNL     1       3.398  -0.830  -0.423  0.00  0.00    -0.360 N 
ATOM     25  H   UNL     1       4.292  -0.568  -0.690  0.00  0.00    +0.165 HD
ENDBRANCH  14  22
BRANCH  15  26
ATOM     26  C   UNL     1       2.665  -4.700  -0.154  0.00  0.00    +0.104 C 
ATOM     27  N   UNL     1       3.789  -4.862  -0.166  0.00  0.00    -0.191 NA
ENDBRANCH  15  26
ENDBRANCH  10  15
ENDBRANCH   1  12
BRANCH   2  28
ATOM     28  C   UNL     1       1.713  -9.756  -0.609  0.00  0.00    +0.247 C 
ATOM     29  O   UNL     1       2.287 -10.033   0.429  0.00  0.00    -0.270 OA
ATOM     30  N   UNL     1       2.362  -9.856  -1.785  0.00  0.00    -0.309 N 
ATOM     31  H   UNL     1       1.905  -9.635  -2.612  0.00  0.00    +0.149 HD
BRANCH  30  32
ATOM     32  C   UNL     1       3.759 -10.297  -1.816  0.00  0.00    +0.136 C 
BRANCH  32  33
ATOM     33  C   UNL     1       4.254 -10.322  -3.264  0.00  0.00    +0.135 C 
ATOM     34  C   UNL     1       5.684 -10.900  -3.318  0.00  0.00    +0.035 C 
ATOM     35  C   UNL     1       6.361 -10.005  -4.391  0.00  0.00    +0.031 C 
ATOM     36  C   UNL     1       5.658  -8.649  -4.129  0.00  0.00    +0.160 C 
ATOM     37  O   UNL     1       4.304  -8.989  -3.784  0.00  0.00    -0.375 OA
ENDBRANCH  32  33
ENDBRANCH  30  32
ENDBRANCH   2  28
TORSDOF 7
