REMARK  Name = ZINC04083950
REMARK  9 active torsions:
REMARK  status: ('A' for Active; 'I' for Inactive)
REMARK    1  A    between atoms: C_1  and  C_2
REMARK    2  A    between atoms: C_7  and  O_10
REMARK    3  A    between atoms: O_10  and  C_11
REMARK    4  A    between atoms: C_11  and  C_13
REMARK    5  A    between atoms: C_14  and  C_31
REMARK    6  A    between atoms: C_19  and  C_21
REMARK    7  A    between atoms: C_23  and  O_29
REMARK    8  A    between atoms: C_24  and  O_28
REMARK    9  A    between atoms: O_29  and  C_30
REMARK                            x       y       z     vdW  Elec       q    Type
REMARK                         _______ _______ _______ _____ _____    ______ ____
ROOT
ATOM      1  C   UNL     1       2.895  -4.608   3.171  0.00  0.00    +0.078 C 
ATOM      2  C   UNL     1       3.634  -5.736   3.091  0.00  0.00    +0.021 C 
ATOM      3  N   UNL     1       4.345  -6.190   4.164  0.00  0.00    -0.273 N 
ATOM      4  C   UNL     1       4.369  -5.575   5.353  0.00  0.00    +0.304 C 
ATOM      5  O   UNL     1       5.033  -6.056   6.251  0.00  0.00    -0.252 OA
ATOM      6  N   UNL     1       3.682  -4.439   5.587  0.00  0.00    -0.288 N 
ATOM      7  C   UNL     1       2.887  -3.863   4.490  0.00  0.00    +0.144 C 
ATOM      8  C   UNL     1       3.675  -6.505   1.795  0.00  0.00    +0.061 C 
ATOM      9  H   UNL     1       4.862  -7.005   4.060  0.00  0.00    +0.156 HD
ATOM     10  H   UNL     1       3.713  -4.010   6.457  0.00  0.00    +0.151 HD
ENDROOT
BRANCH   7  11
ATOM     11  C   UNL     1       1.458  -3.765   4.960  0.00  0.00    -0.018 A 
ATOM     12  C   UNL     1       0.745  -2.598   4.759  0.00  0.00    +0.055 A 
ATOM     13  C   UNL     1      -0.569  -2.506   5.190  0.00  0.00    +0.163 A 
ATOM     14  C   UNL     1      -1.168  -3.591   5.824  0.00  0.00    +0.173 A 
ATOM     15  C   UNL     1      -0.447  -4.758   6.021  0.00  0.00    +0.063 A 
ATOM     16  C   UNL     1       0.863  -4.845   5.584  0.00  0.00    +0.025 A 
ATOM     17 BR   UNL     1      -1.256  -6.235   6.883  0.00  0.00    -0.046 Br
BRANCH  14  18
ATOM     18  O   UNL     1      -2.457  -3.505   6.249  0.00  0.00    -0.503 OA
ATOM     19  H   UNL     1      -3.108  -3.784   5.590  0.00  0.00    +0.292 HD
ENDBRANCH  14  18
BRANCH  13  20
ATOM     20  O   UNL     1      -1.272  -1.359   4.994  0.00  0.00    -0.491 OA
ATOM     21  C   UNL     1      -0.632  -0.327   4.241  0.00  0.00    +0.277 C 
ENDBRANCH  13  20
ENDBRANCH   7  11
BRANCH   1  22
ATOM     22  C   UNL     1       2.159  -4.136   2.059  0.00  0.00    +0.339 C 
ATOM     23  O   UNL     1       2.583  -3.207   1.399  0.00  0.00    -0.245 OA
BRANCH  22  24
ATOM     24  O   UNL     1       0.985  -4.716   1.732  0.00  0.00    -0.458 OA
BRANCH  24  30
ATOM     25  C   UNL     1      -3.345  -4.269  -0.551  0.00  0.00    +0.007 C 
ATOM     26  C   UNL     1      -1.837  -4.024  -0.649  0.00  0.00    -0.011 C 
ATOM     27  C   UNL     1      -1.273  -4.792  -1.847  0.00  0.00    +0.003 C 
ATOM     28  C   UNL     1       0.234  -4.547  -1.945  0.00  0.00    +0.004 C 
ATOM     29  C   UNL     1       0.914  -5.031  -0.663  0.00  0.00    +0.045 C 
ATOM     30  C   UNL     1       0.350  -4.264   0.534  0.00  0.00    +0.177 C 
ATOM     31  C   UNL     1      -1.157  -4.508   0.633  0.00  0.00    +0.048 C 
ENDBRANCH  24  30
ENDBRANCH  22  24
ENDBRANCH   1  22
TORSDOF 6
