REMARK  Name = ZINC34701677
REMARK  9 active torsions:
REMARK  status: ('A' for Active; 'I' for Inactive)
REMARK    1  A    between atoms: C_1  and  C_2
REMARK    2  A    between atoms: C_2  and  C_3
REMARK    3  A    between atoms: C_6  and  N_9
REMARK    4  A    between atoms: N_9  and  C_10
REMARK    5  A    between atoms: C_16  and  C_17
REMARK    6  A    between atoms: C_19  and  N_26
REMARK    7  A    between atoms: C_21  and  O_24
REMARK    8  A    between atoms: C_22  and  O_23
REMARK    9  A    between atoms: O_24  and  C_25
REMARK                            x       y       z     vdW  Elec       q    Type
REMARK                         _______ _______ _______ _____ _____    ______ ____
ROOT
ATOM      1  C   UNL     1       3.810  -1.932  -4.887  0.00  0.00    +0.224 C 
ATOM      2  N   UNL     1       4.298  -2.675  -6.060  0.00  0.00    -0.284 N 
ATOM      3  C   UNL     1       5.245  -2.123  -6.797  0.00  0.00    +0.252 C 
ATOM      4  O   UNL     1       5.678  -2.702  -7.776  0.00  0.00    -0.270 OA
ATOM      5  C   UNL     1       5.774  -0.800  -6.421  0.00  0.00    +0.074 C 
ATOM      6  C   UNL     1       6.734  -0.067  -7.034  0.00  0.00    +0.031 C 
ATOM      7  S   UNL     1       4.830  -0.404  -4.955  0.00  0.00    -0.078 S 
ATOM      8  H   UNL     1       3.933  -3.545  -6.286  0.00  0.00    +0.152 HD
ENDROOT
BRANCH   6   9
ATOM      9  C   UNL     1       6.997   1.311  -6.596  0.00  0.00    +0.023 A 
ATOM     10  C   UNL     1       6.044   2.004  -5.841  0.00  0.00    +0.044 A 
ATOM     11  C   UNL     1       6.296   3.296  -5.433  0.00  0.00    +0.130 A 
ATOM     12  C   UNL     1       7.489   3.915  -5.766  0.00  0.00    +0.082 A 
ATOM     13  C   UNL     1       8.443   3.242  -6.513  0.00  0.00    +0.164 A 
ATOM     14  C   UNL     1       8.208   1.936  -6.928  0.00  0.00    +0.166 A 
BRANCH  11  15
ATOM     15  N   UNL     1       5.285   4.026  -4.635  0.00  0.00    +0.057 N 
ATOM     16  O   UNL     1       4.242   3.489  -4.343  0.00  0.00    -0.126 OA
ATOM     17  O   UNL     1       5.503   5.159  -4.275  0.00  0.00    -0.126 OA
ENDBRANCH  11  15
BRANCH  14  18
ATOM     18  O   UNL     1       9.143   1.272  -7.655  0.00  0.00    -0.503 OA
ATOM     19  H   UNL     1       9.051   1.386  -8.611  0.00  0.00    +0.292 HD
ENDBRANCH  14  18
BRANCH  13  20
ATOM     20  O   UNL     1       9.612   3.857  -6.835  0.00  0.00    -0.491 OA
ATOM     21  C   UNL     1       9.790   5.197  -6.372  0.00  0.00    +0.277 C 
ENDBRANCH  13  20
ENDBRANCH   6   9
BRANCH   1  22
ATOM     22  N   UNL     1       2.385  -1.617  -5.021  0.00  0.00    -0.317 N 
ATOM     23  H   UNL     1       1.940  -1.740  -5.873  0.00  0.00    +0.149 HD
BRANCH  22  27
ATOM     24  C   UNL     1       0.249  -0.199  -1.740  0.00  0.00    -0.048 A 
ATOM     25  C   UNL     1      -0.388  -0.372  -2.955  0.00  0.00    +0.005 A 
ATOM     26  C   UNL     1       0.318  -0.842  -4.046  0.00  0.00    +0.023 A 
ATOM     27  C   UNL     1       1.669  -1.141  -3.920  0.00  0.00    +0.029 A 
ATOM     28  C   UNL     1       2.305  -0.966  -2.698  0.00  0.00    +0.023 A 
ATOM     29  C   UNL     1       1.595  -0.490  -1.613  0.00  0.00    +0.005 A 
BRANCH  24  31
ATOM     30  C   UNL     1      -0.458   1.843  -0.523  0.00  0.00    +0.009 C 
ATOM     31  C   UNL     1      -0.524   0.315  -0.553  0.00  0.00    +0.032 C 
ENDBRANCH  24  31
ENDBRANCH  22  27
ENDBRANCH   1  22
TORSDOF 7
