REMARK  Name = ZINC39973662
REMARK  14 active torsions:
REMARK  status: ('A' for Active; 'I' for Inactive)
REMARK    1  A    between atoms: C_1  and  C_2
REMARK    2  A    between atoms: C_2  and  C_3
REMARK    3  A    between atoms: C_4  and  C_32
REMARK    4  A    between atoms: C_6  and  N_11
REMARK    5  A    between atoms: C_7  and  C_8
REMARK    6  A    between atoms: C_12  and  C_14
REMARK    7  A    between atoms: C_14  and  S_15
REMARK    8  A    between atoms: S_15  and  C_16
REMARK    9  A    between atoms: C_19  and  C_24
REMARK   10  A    between atoms: N_20  and  C_21
REMARK   11  A    between atoms: C_21  and  C_22
REMARK   12  A    between atoms: C_26  and  C_29
REMARK   13  A    between atoms: C_29  and  C_30
REMARK   14  A    between atoms: C_29  and  C_31
REMARK                            x       y       z     vdW  Elec       q    Type
REMARK                         _______ _______ _______ _____ _____    ______ ____
ROOT
ATOM      1  C   UNL     1       6.016  -1.567  -4.651  0.00  0.00    +0.173 C 
ENDROOT
BRANCH   1   3
ATOM      2  N   UNL     1       4.324  -0.348  -3.322  0.00  0.00    -0.279 N 
ATOM      3  C   UNL     1       4.590  -1.199  -4.332  0.00  0.00    +0.228 C 
ATOM      4  O   UNL     1       3.682  -1.668  -4.985  0.00  0.00    -0.275 OA
ATOM      5  H   UNL     1       5.050   0.028  -2.800  0.00  0.00    +0.155 HD
BRANCH   2   9
ATOM      6  C   UNL     1       1.121   1.022  -1.947  0.00  0.00    -0.024 A 
ATOM      7  C   UNL     1       0.388   0.338  -2.845  0.00  0.00    -0.008 A 
ATOM      8  S   UNL     1       1.614  -0.535  -3.794  0.00  0.00    -0.078 S 
ATOM      9  C   UNL     1       3.011  -0.009  -3.029  0.00  0.00    +0.084 A 
ATOM     10  C   UNL     1       2.553   0.848  -2.039  0.00  0.00    +0.068 A 
ATOM     11  C   UNL     1      -1.110   0.315  -3.007  0.00  0.00    +0.052 C 
BRANCH  10  12
ATOM     12  C   UNL     1       3.473   1.537  -1.129  0.00  0.00    +0.244 C 
ATOM     13  O   UNL     1       3.799   1.012  -0.080  0.00  0.00    -0.270 OA
ATOM     14  N   UNL     1       3.957   2.752  -1.453  0.00  0.00    -0.325 N 
ATOM     15  H   UNL     1       3.697   3.171  -2.289  0.00  0.00    +0.145 HD
ATOM     16  H   UNL     1       4.566   3.208  -0.851  0.00  0.00    +0.145 HD
ENDBRANCH  10  12
BRANCH   6  18
ATOM     17  C   UNL     1       0.350   3.333  -1.483  0.00  0.00    +0.009 C 
ATOM     18  C   UNL     1       0.488   1.919  -0.915  0.00  0.00    +0.033 C 
ENDBRANCH   6  18
ENDBRANCH   2   9
ENDBRANCH   1   3
BRANCH   1  19
ATOM     19  S   UNL     1       6.045  -2.721  -6.050  0.00  0.00    -0.077 S 
BRANCH  19  20
ATOM     20  C   UNL     1       7.758  -3.051  -6.296  0.00  0.00    +0.193 A 
ATOM     21  N   UNL     1       8.754  -2.558  -5.598  0.00  0.00    -0.122 NA
ATOM     22  N   UNL     1       9.872  -3.007  -6.045  0.00  0.00    -0.128 NA
ATOM     23  C   UNL     1       9.659  -3.815  -7.057  0.00  0.00    +0.166 A 
ATOM     24  N   UNL     1       8.298  -3.873  -7.247  0.00  0.00    -0.298 N 
BRANCH  23  25
ATOM     25  C   UNL     1      10.687  -4.530  -7.842  0.00  0.00    +0.027 A 
ATOM     26  C   UNL     1      11.876  -4.948  -7.248  0.00  0.00    +0.023 A 
ATOM     27  C   UNL     1      12.791  -5.599  -7.999  0.00  0.00    -0.007 A 
ATOM     28  S   UNL     1      12.002  -5.652  -9.599  0.00  0.00    -0.101 S 
ATOM     29  C   UNL     1      10.491  -4.804  -9.169  0.00  0.00    +0.057 A 
BRANCH  27  30
ATOM     30  C   UNL     1      14.136  -6.143  -7.590  0.00  0.00    +0.020 C 
ATOM     31  C   UNL     1      14.168  -7.654  -7.826  0.00  0.00    +0.013 C 
ATOM     32  C   UNL     1      15.231  -5.473  -8.422  0.00  0.00    +0.013 C 
ENDBRANCH  27  30
ENDBRANCH  23  25
BRANCH  24  33
ATOM     33  C   UNL     1       7.577  -4.651  -8.258  0.00  0.00    +0.152 C 
BRANCH  33  34
ATOM     34  C   UNL     1       7.278  -3.775  -9.447  0.00  0.00    -0.013 C 
ATOM     35  C   UNL     1       7.632  -4.158 -10.648  0.00  0.00    +0.005 C 
ENDBRANCH  33  34
ENDBRANCH  24  33
ENDBRANCH  19  20
ENDBRANCH   1  19
TORSDOF 10
