REMARK  Name = ZINC09067043
REMARK  5 active torsions:
REMARK  status: ('A' for Active; 'I' for Inactive)
REMARK    1  A    between atoms: C_4  and  C_7
REMARK    2  A    between atoms: C_7  and  N_8
REMARK    3  A    between atoms: C_19  and  C_21
REMARK    4  A    between atoms: N_26  and  S_27
REMARK    5  A    between atoms: S_27  and  C_30
REMARK                            x       y       z     vdW  Elec       q    Type
REMARK                         _______ _______ _______ _____ _____    ______ ____
ROOT
ATOM      1  N   UNL     1      -3.997   1.381   1.670  0.00  0.00    -0.245 N 
ATOM      2  C   UNL     1      -2.649   1.263   1.967  0.00  0.00    +0.169 A 
ATOM      3  N   UNL     1      -1.762   0.440   1.459  0.00  0.00    -0.221 NA
ATOM      4  C   UNL     1      -0.467   0.440   1.842  0.00  0.00    +0.115 A 
ATOM      5  C   UNL     1       0.581  -0.393   1.382  0.00  0.00    +0.150 A 
ATOM      6  C   UNL     1       1.851  -0.265   1.886  0.00  0.00    +0.040 A 
ATOM      7  C   UNL     1       2.151   0.675   2.862  0.00  0.00    +0.004 A 
ATOM      8  C   UNL     1       1.150   1.501   3.337  0.00  0.00    +0.017 A 
ATOM      9  C   UNL     1      -0.124   1.380   2.839  0.00  0.00    +0.044 A 
ATOM     10  S   UNL     1      -1.674   2.196   3.139  0.00  0.00    -0.052 S 
ATOM     11  F   UNL     1       0.330  -1.321   0.432  0.00  0.00    -0.203 F 
ATOM     12  C   UNL     1      -4.587   0.487   0.851  0.00  0.00    +0.240 C 
ATOM     13  O   UNL     1      -5.749   0.630   0.534  0.00  0.00    -0.273 OA
ENDROOT
BRANCH  12  14
ATOM     14  C   UNL     1      -3.803  -0.689   0.330  0.00  0.00    +0.166 C 
ATOM     15  C   UNL     1      -3.188  -0.357  -1.053  0.00  0.00    +0.031 C 
ATOM     16  C   UNL     1      -3.010  -1.773  -1.663  0.00  0.00    +0.019 C 
ATOM     17  C   UNL     1      -4.239  -2.537  -1.127  0.00  0.00    +0.110 C 
ATOM     18  N   UNL     1      -4.699  -1.834   0.082  0.00  0.00    -0.165 NA
BRANCH  18  19
ATOM     19  S   UNL     1      -6.005  -2.256   1.009  0.00  0.00    +0.062 S 
ATOM     20  O   UNL     1      -6.290  -1.139   1.841  0.00  0.00    -0.153 OA
ATOM     21  O   UNL     1      -6.968  -2.813   0.124  0.00  0.00    -0.153 OA
BRANCH  19  22
ATOM     22  C   UNL     1      -5.487  -3.559   2.075  0.00  0.00    +0.106 A 
ATOM     23  C   UNL     1      -5.532  -4.869   1.637  0.00  0.00    +0.031 A 
ATOM     24  C   UNL     1      -5.122  -5.892   2.471  0.00  0.00    +0.040 A 
ATOM     25  C   UNL     1      -4.676  -5.605   3.750  0.00  0.00    +0.124 A 
ATOM     26  C   UNL     1      -4.636  -4.293   4.190  0.00  0.00    +0.040 A 
ATOM     27  C   UNL     1      -5.041  -3.271   3.352  0.00  0.00    +0.031 A 
ATOM     28  F   UNL     1      -4.279  -6.604   4.568  0.00  0.00    -0.205 F 
ENDBRANCH  19  22
ENDBRANCH  18  19
ENDBRANCH  12  14
BRANCH   1  29
ATOM     29  C   UNL     1      -4.781   2.476   2.246  0.00  0.00    +0.150 C 
BRANCH  29  33
ATOM     30  C   UNL     1      -4.644   5.853  -0.367  0.00  0.00    +0.000 A 
ATOM     31  C   UNL     1      -5.641   4.907  -0.512  0.00  0.00    +0.000 A 
ATOM     32  C   UNL     1      -5.686   3.814   0.333  0.00  0.00    +0.005 A 
ATOM     33  C   UNL     1      -4.733   3.667   1.324  0.00  0.00    -0.030 A 
ATOM     34  C   UNL     1      -3.739   4.616   1.473  0.00  0.00    +0.005 A 
ATOM     35  C   UNL     1      -3.692   5.707   0.624  0.00  0.00    +0.000 A 
ENDBRANCH  29  33
ENDBRANCH   1  29
TORSDOF 5
