REMARK  Name = ZINC02998343
REMARK  8 active torsions:
REMARK  status: ('A' for Active; 'I' for Inactive)
REMARK    1  A    between atoms: C_3  and  C_10
REMARK    2  A    between atoms: C_5  and  N_7
REMARK    3  A    between atoms: C_11  and  C_12
REMARK    4  A    between atoms: C_11  and  N_18
REMARK    5  A    between atoms: N_14  and  C_15
REMARK    6  A    between atoms: C_15  and  C_16
REMARK    7  A    between atoms: C_16  and  O_17
REMARK    8  A    between atoms: C_19  and  C_21
REMARK                            x       y       z     vdW  Elec       q    Type
REMARK                         _______ _______ _______ _____ _____    ______ ____
ROOT
ATOM      1  C   UNK A   1       0.020   5.503   0.062  0.00  0.00    +0.036 C 
ATOM      2  C   UNK A   1      -1.222   6.028  -0.051  0.00  0.00    +0.097 C 
ENDROOT
BRANCH   1   5
ATOM      3  C   UNK A   1      -0.547   1.883  -0.740  0.00  0.00    +0.003 A 
ATOM      4  C   UNK A   1      -0.738   3.247  -0.662  0.00  0.00    +0.008 A 
ATOM      5  C   UNK A   1       0.212   4.046  -0.019  0.00  0.00    -0.021 A 
ATOM      6  C   UNK A   1       1.347   3.454   0.546  0.00  0.00    +0.040 A 
ATOM      7  C   UNK A   1       1.520   2.089   0.465  0.00  0.00    +0.127 A 
ATOM      8  C   UNK A   1       0.575   1.304  -0.173  0.00  0.00    +0.033 A 
BRANCH   7   9
ATOM      9  N   UNK A   1       2.719   1.461   1.062  0.00  0.00    +0.056 N 
ATOM     10  O   UNK A   1       2.874   0.255   0.992  0.00  0.00    -0.126 OA
ATOM     11  O   UNK A   1       3.552   2.150   1.625  0.00  0.00    -0.126 OA
ENDBRANCH   7   9
ENDBRANCH   1   5
BRANCH   2  12
ATOM     12  C   UNK A   1      -1.398   7.486  -0.140  0.00  0.00    +0.258 C 
ATOM     13  O   UNK A   1      -0.433   8.221  -0.049  0.00  0.00    -0.269 OA
ATOM     14  N   UNK A   1      -2.628   8.006  -0.321  0.00  0.00    -0.308 N 
ATOM     15  H   UNK A   1      -3.405   7.426  -0.318  0.00  0.00    +0.149 HD
BRANCH  14  16
ATOM     16  C   UNK A   1      -2.791   9.448  -0.522  0.00  0.00    +0.132 C 
BRANCH  16  17
ATOM     17  C   UNK A   1      -4.275   9.773  -0.702  0.00  0.00    +0.174 C 
BRANCH  17  18
ATOM     18  O   UNK A   1      -4.977   9.478   0.507  0.00  0.00    -0.393 OA
ATOM     19  H   UNK A   1      -5.926   9.661   0.466  0.00  0.00    +0.209 HD
ENDBRANCH  17  18
ENDBRANCH  16  17
ENDBRANCH  14  16
ENDBRANCH   2  12
BRANCH   2  20
ATOM     20  N   UNK A   1      -2.337   5.186  -0.083  0.00  0.00    -0.277 N 
ATOM     21  C   UNK A   0      -3.185   5.231  -1.129  0.00  0.00    +0.248 C 
ATOM     22  O   UNK A   0      -2.932   5.936  -2.087  0.00  0.00    -0.270 OA
ATOM     23  H   UNK A   1      -2.501   4.570   0.648  0.00  0.00    +0.155 HD
BRANCH  21  24
ATOM     24  C   UNK A   0      -4.422   4.421  -1.113  0.00  0.00    +0.038 A 
ATOM     25  C   UNK A   0      -4.712   3.606  -0.018  0.00  0.00    +0.013 A 
ATOM     26  C   UNK A   0      -5.870   2.857  -0.006  0.00  0.00    +0.002 A 
ATOM     27  C   UNK A   0      -6.739   2.905  -1.082  0.00  0.00    +0.015 A 
ATOM     28  C   UNK A   0      -6.455   3.707  -2.174  0.00  0.00    +0.019 A 
ATOM     29  C   UNK A   0      -5.302   4.465  -2.195  0.00  0.00    +0.028 A 
ATOM     30 BR   UNK A   0      -7.650   3.764  -3.639  0.00  0.00    -0.050 Br
ENDBRANCH  21  24
ENDBRANCH   2  20
TORSDOF 8
