REMARK  Name = ZINC05321736
REMARK  2 active torsions:
REMARK  status: ('A' for Active; 'I' for Inactive)
REMARK    1  A    between atoms: C_4  and  C_7
REMARK    2  A    between atoms: C_8  and  C_9
REMARK                            x       y       z     vdW  Elec       q    Type
REMARK                         _______ _______ _______ _____ _____    ______ ____
ROOT
ATOM      1  C   UNL     1      -1.278   5.926  -2.561  0.00  0.00    +0.087 C 
ATOM      2  N   UNL     1      -0.168   6.273  -3.179  0.00  0.00    -0.089 NA
ATOM      3  O   UNL     1       1.017   5.928  -2.503  0.00  0.00    -0.389 OA
ATOM      4  C   UNL     1       0.696   5.280  -1.267  0.00  0.00    +0.217 C 
ATOM      5  C   UNL     1      -0.869   5.263  -1.267  0.00  0.00    +0.088 C 
ATOM      6  C   UNL     1      -1.228   3.749  -1.353  0.00  0.00    +0.015 C 
ATOM      7  C   UNL     1      -0.063   3.222  -2.261  0.00  0.00    +0.013 C 
ATOM      8  C   UNL     1       1.105   3.780  -1.375  0.00  0.00    +0.046 C 
ATOM      9  C   UNL     1       0.737   3.171   0.011  0.00  0.00    +0.094 C 
ATOM     10  C   UNL     1      -0.818   3.150   0.026  0.00  0.00    +0.091 C 
ATOM     11  C   UNL     1      -1.146   1.674   0.016  0.00  0.00    +0.223 C 
ATOM     12  O   UNL     1      -2.264   1.205   0.019  0.00  0.00    -0.275 OA
ATOM     13  N   UNL     1      -0.011   0.966   0.007  0.00  0.00    -0.256 N 
ATOM     14  C   UNL     1       1.104   1.704   0.001  0.00  0.00    +0.223 C 
ATOM     15  O   UNL     1       2.235   1.266  -0.011  0.00  0.00    -0.275 OA
ATOM     16  H   UNL     1       0.002  -0.004   0.002  0.00  0.00    +0.157 HD
ENDROOT
BRANCH   1  18
ATOM     17  C   UNL     1      -2.897   6.750  -4.183  0.00  0.00    +0.010 C 
ATOM     18  C   UNL     1      -2.656   6.145  -3.003  0.00  0.00    +0.027 C 
BRANCH  17  22
ATOM     19  C   UNL     1      -6.891   7.383  -5.466  0.00  0.00    +0.000 A 
ATOM     20  C   UNL     1      -5.838   7.800  -6.262  0.00  0.00    +0.001 A 
ATOM     21  C   UNL     1      -4.537   7.598  -5.851  0.00  0.00    +0.008 A 
ATOM     22  C   UNL     1      -4.283   6.970  -4.628  0.00  0.00    -0.025 A 
ATOM     23  C   UNL     1      -5.352   6.547  -3.832  0.00  0.00    +0.008 A 
ATOM     24  C   UNL     1      -6.647   6.761  -4.254  0.00  0.00    +0.001 A 
ENDBRANCH  17  22
ENDBRANCH   1  18
TORSDOF 2
