REMARK  Name = ZINC20040409
REMARK  8 active torsions:
REMARK  status: ('A' for Active; 'I' for Inactive)
REMARK    1  A    between atoms: C_1  and  O_2
REMARK    2  A    between atoms: O_2  and  C_3
REMARK    3  A    between atoms: C_8  and  N_9
REMARK    4  A    between atoms: C_10  and  C_30
REMARK    5  A    between atoms: C_13  and  S_14
REMARK    6  A    between atoms: S_14  and  C_15
REMARK    7  A    between atoms: C_15  and  C_16
REMARK    8  A    between atoms: N_22  and  C_23
REMARK                            x       y       z     vdW  Elec       q    Type
REMARK                         _______ _______ _______ _____ _____    ______ ____
ROOT
ATOM      1  S   UNL     1      -2.377   0.858  -2.740  0.00  0.00    -0.078 S 
ENDROOT
BRANCH   1   6
ATOM      2  N   UNL     1      -2.063   0.927   0.042  0.00  0.00    -0.266 N 
ATOM      3  C   UNL     1      -2.834   0.595   1.136  0.00  0.00    +0.176 A 
ATOM      4  N   UNL     1      -3.976   0.133   0.675  0.00  0.00    -0.127 NA
ATOM      5  N   UNL     1      -3.972   0.154  -0.610  0.00  0.00    -0.122 NA
ATOM      6  C   UNL     1      -2.833   0.635  -1.052  0.00  0.00    +0.197 A 
BRANCH   2  12
ATOM      7  C   UNL     1      -0.576   2.839   0.075  0.00  0.00    +0.144 A 
ATOM      8  C   UNL     1       0.709   3.360   0.076  0.00  0.00    +0.048 A 
ATOM      9  C   UNL     1       1.798   2.510   0.056  0.00  0.00    +0.004 A 
ATOM     10  C   UNL     1       1.611   1.140   0.036  0.00  0.00    +0.002 A 
ATOM     11  C   UNL     1       0.334   0.613   0.036  0.00  0.00    +0.030 A 
ATOM     12  C   UNL     1      -0.765   1.460   0.049  0.00  0.00    +0.092 A 
BRANCH   7  14
ATOM     13  C   UNL     1      -1.379   5.077   0.116  0.00  0.00    +0.277 C 
ATOM     14  O   UNL     1      -1.649   3.674   0.095  0.00  0.00    -0.493 OA
ENDBRANCH   7  14
ENDBRANCH   2  12
BRANCH   3  15
ATOM     15  C   UNL     1      -2.451   0.731   2.550  0.00  0.00    +0.057 A 
ATOM     16  C   UNL     1      -3.246   0.692   3.669  0.00  0.00    +0.019 A 
ATOM     17  C   UNL     1      -2.656   0.840   4.904  0.00  0.00    +0.008 A 
ATOM     18  C   UNL     1      -1.313   1.031   4.977  0.00  0.00    +0.046 A 
ATOM     19  S   UNL     1      -0.834   0.997   3.258  0.00  0.00    -0.094 S 
ENDBRANCH   3  15
ENDBRANCH   1   6
BRANCH   1  20
ATOM     20  C   UNL     1      -3.879   0.259  -3.552  0.00  0.00    +0.153 C 
BRANCH  20  21
ATOM     21  C   UNL     1      -3.715   0.358  -5.047  0.00  0.00    +0.146 A 
ATOM     22  N   UNL     1      -4.084   1.459  -5.679  0.00  0.00    -0.199 NA
ATOM     23  C   UNL     1      -3.935   1.552  -6.998  0.00  0.00    +0.217 A 
ATOM     24  N   UNL     1      -3.426   0.533  -7.682  0.00  0.00    -0.181 NA
ATOM     25  C   UNL     1      -3.062  -0.574  -7.044  0.00  0.00    +0.224 A 
ATOM     26  N   UNL     1      -3.209  -0.658  -5.723  0.00  0.00    -0.198 NA
ATOM     27  N   UNL     1      -2.532  -1.636  -7.750  0.00  0.00    -0.284 N 
ATOM     28  N   UNL     1      -4.315   2.705  -7.656  0.00  0.00    -0.327 N 
ATOM     29  H   UNL     1      -2.147  -2.516  -7.213  0.00  0.00    +0.155 HD
ATOM     30  H   UNL     1      -4.192   2.781  -8.747  0.00  0.00    +0.145 HD
ATOM     31  H   UNL     1      -4.740   3.546  -7.090  0.00  0.00    +0.145 HD
BRANCH  27  32
ATOM     32  C   UNL     1      -2.485  -1.594  -9.147  0.00  0.00    +0.034 A 
ATOM     33  C   UNL     1      -3.486  -0.944  -9.857  0.00  0.00    +0.023 A 
ATOM     34  C   UNL     1      -3.433  -0.898 -11.237  0.00  0.00    +0.002 A 
ATOM     35  C   UNL     1      -2.392  -1.509 -11.911  0.00  0.00    +0.000 A 
ATOM     36  C   UNL     1      -1.397  -2.162 -11.207  0.00  0.00    +0.002 A 
ATOM     37  C   UNL     1      -1.441  -2.206  -9.827  0.00  0.00    +0.023 A 
ENDBRANCH  27  32
ENDBRANCH  20  21
ENDBRANCH   1  20
TORSDOF 7
