REMARK  Name = ZINC09382076
REMARK  9 active torsions:
REMARK  status: ('A' for Active; 'I' for Inactive)
REMARK    1  A    between atoms: C_1  and  C_2
REMARK    2  A    between atoms: C_6  and  N_9
REMARK    3  A    between atoms: C_7  and  C_8
REMARK    4  A    between atoms: C_10  and  C_12
REMARK    5  A    between atoms: C_12  and  S_13
REMARK    6  A    between atoms: S_13  and  C_14
REMARK    7  A    between atoms: C_17  and  C_26
REMARK    8  A    between atoms: N_18  and  C_19
REMARK    9  A    between atoms: C_26  and  C_27
REMARK                            x       y       z     vdW  Elec       q    Type
REMARK                         _______ _______ _______ _____ _____    ______ ____
ROOT
ATOM      1  C   UNL     1       0.158   0.934   2.735  0.00  0.00    +0.197 A 
ATOM      2  N   UNL     1       1.220   0.190   2.533  0.00  0.00    -0.122 NA
ATOM      3  N   UNL     1       1.728  -0.163   3.659  0.00  0.00    -0.133 NA
ATOM      4  C   UNL     1       1.023   0.322   4.641  0.00  0.00    +0.144 A 
ATOM      5  N   UNL     1      -0.005   1.040   4.089  0.00  0.00    -0.274 N 
ENDROOT
BRANCH   5   6
ATOM      6  C   UNL     1      -1.013   1.738   4.770  0.00  0.00    +0.050 A 
ATOM      7  C   UNL     1      -0.688   2.832   5.561  0.00  0.00    +0.028 A 
ATOM      8  C   UNL     1      -1.683   3.521   6.227  0.00  0.00    +0.022 A 
ATOM      9  C   UNL     1      -3.001   3.115   6.115  0.00  0.00    +0.041 A 
ATOM     10  C   UNL     1      -3.326   2.022   5.332  0.00  0.00    +0.022 A 
ATOM     11  C   UNL     1      -2.336   1.333   4.660  0.00  0.00    +0.028 A 
ATOM     12 CL   UNL     1      -4.248   3.979   6.958  0.00  0.00    -0.084 Cl
ENDBRANCH   5   6
BRANCH   1  13
ATOM     13  S   UNL     1      -0.869   1.655   1.497  0.00  0.00    -0.076 S 
BRANCH  13  14
ATOM     14  C   UNL     1      -0.021   1.073   0.008  0.00  0.00    +0.173 C 
BRANCH  14  16
ATOM     15  N   UNL     1      -0.288   1.272  -2.443  0.00  0.00    -0.285 N 
ATOM     16  C   UNL     1      -0.743   1.582  -1.213  0.00  0.00    +0.227 C 
ATOM     17  O   UNL     1      -1.734   2.271  -1.088  0.00  0.00    -0.275 OA
ATOM     18  H   UNL     1       0.547   0.790  -2.544  0.00  0.00    +0.155 HD
BRANCH  15  24
ATOM     19  C   UNL     1      -0.412   2.361  -7.236  0.00  0.00    +0.044 C 
ATOM     20  C   UNL     1      -1.107   2.181  -5.911  0.00  0.00    -0.046 A 
ATOM     21  C   UNL     1      -2.471   2.386  -5.812  0.00  0.00    +0.004 A 
ATOM     22  C   UNL     1      -3.112   2.222  -4.598  0.00  0.00    +0.002 A 
ATOM     23  C   UNL     1      -2.391   1.852  -3.479  0.00  0.00    +0.023 A 
ATOM     24  C   UNL     1      -1.022   1.646  -3.575  0.00  0.00    +0.037 A 
ATOM     25  C   UNL     1      -0.380   1.818  -4.794  0.00  0.00    -0.026 A 
ATOM     26  C   UNL     1       1.108   1.601  -4.901  0.00  0.00    +0.046 C 
ENDBRANCH  15  24
ENDBRANCH  14  16
ENDBRANCH  13  14
ENDBRANCH   1  13
BRANCH   4  27
ATOM     27  C   UNL     1       1.289   0.130   6.112  0.00  0.00    +0.130 C 
BRANCH  27  28
ATOM     28  C   UNL     1       0.566  -1.101   6.597  0.00  0.00    +0.033 A 
ATOM     29  C   UNL     1       1.209  -2.286   6.655  0.00  0.00    +0.091 A 
ATOM     30  C   UNL     1       0.509  -3.428   7.114  0.00  0.00    +0.254 A 
ATOM     31  O   UNL     1       1.067  -4.508   7.176  0.00  0.00    -0.268 OA
ATOM     32  N   UNL     1      -0.783  -3.308   7.482  0.00  0.00    -0.275 N 
ATOM     33  H   UNL     1      -1.285  -4.110   7.807  0.00  0.00    +0.173 HD
ATOM     34  C   UNL     1      -1.400  -2.114   7.413  0.00  0.00    +0.327 A 
ATOM     35  O   UNL     1      -2.565  -2.021   7.749  0.00  0.00    -0.247 OA
ATOM     36  N   UNL     1      -0.744  -1.020   6.985  0.00  0.00    -0.311 N 
ATOM     37  H   UNL     1      -1.218  -0.140   6.949  0.00  0.00    +0.170 HD
ENDBRANCH  27  28
ENDBRANCH   4  27
TORSDOF 7
