REMARK  Name = ZINC59170680
REMARK  9 active torsions:
REMARK  status: ('A' for Active; 'I' for Inactive)
REMARK    1  A    between atoms: C_1  and  C_2
REMARK    2  A    between atoms: C_2  and  O_3
REMARK    3  A    between atoms: O_3  and  C_4
REMARK    4  A    between atoms: N_12  and  N_13
REMARK    5  A    between atoms: N_13  and  S_14
REMARK    6  A    between atoms: S_14  and  C_17
REMARK    7  A    between atoms: C_20  and  C_23
REMARK    8  A    between atoms: C_24  and  C_26
REMARK    9  A    between atoms: N_28  and  C_29
REMARK                            x       y       z     vdW  Elec       q    Type
REMARK                         _______ _______ _______ _____ _____    ______ ____
ROOT
ATOM      1  C   UNL     1       0.601  -1.903  -1.780  0.00  0.00    +0.163 A 
ATOM      2  C   UNL     1       0.643  -2.728  -0.668  0.00  0.00    +0.049 A 
ATOM      3  C   UNL     1       1.203  -3.993  -0.751  0.00  0.00    +0.004 A 
ATOM      4  C   UNL     1       1.728  -4.447  -1.942  0.00  0.00    +0.012 A 
ATOM      5  C   UNL     1       1.694  -3.625  -3.073  0.00  0.00    +0.022 A 
ATOM      6  C   UNL     1       1.119  -2.346  -2.991  0.00  0.00    +0.179 A 
ATOM      7  O   UNL     1       1.075  -1.553  -4.093  0.00  0.00    -0.434 OA
ATOM      8  C   UNL     1       2.040  -1.759  -5.037  0.00  0.00    +0.225 A 
ATOM      9  N   UNL     1       2.607  -0.757  -5.648  0.00  0.00    -0.260 N 
ATOM     10  C   UNL     1       2.420  -3.157  -5.346  0.00  0.00    +0.099 A 
ATOM     11  C   UNL     1       2.250  -4.086  -4.351  0.00  0.00    +0.030 A 
ATOM     12  H   UNL     1       3.348  -0.915  -6.254  0.00  0.00    +0.189 HD
ENDROOT
BRANCH  10  13
ATOM     13  C   UNL     1       2.968  -3.530  -6.660  0.00  0.00    +0.253 C 
ATOM     14  O   UNL     1       3.181  -2.672  -7.496  0.00  0.00    -0.270 OA
ATOM     15  N   UNL     1       3.232  -4.822  -6.938  0.00  0.00    -0.281 N 
ATOM     16  H   UNL     1       2.977  -5.515  -6.309  0.00  0.00    +0.155 HD
BRANCH  15  17
ATOM     17  C   UNL     1       3.875  -5.164  -8.133  0.00  0.00    +0.034 A 
ATOM     18  C   UNL     1       4.810  -4.301  -8.691  0.00  0.00    +0.026 A 
ATOM     19  C   UNL     1       5.443  -4.640  -9.871  0.00  0.00    +0.040 A 
ATOM     20  C   UNL     1       5.147  -5.839 -10.497  0.00  0.00    +0.124 A 
ATOM     21  C   UNL     1       4.215  -6.700  -9.943  0.00  0.00    +0.040 A 
ATOM     22  C   UNL     1       3.584  -6.368  -8.760  0.00  0.00    +0.026 A 
ATOM     23  F   UNL     1       5.767  -6.168 -11.651  0.00  0.00    -0.205 F 
ENDBRANCH  15  17
ENDBRANCH  10  13
BRANCH   9  24
ATOM     24  N   UNL     1       2.148   0.548  -5.428  0.00  0.00    -0.157 N 
ATOM     25  H   UNL     1       1.457   0.715  -4.768  0.00  0.00    +0.194 HD
BRANCH  24  26
ATOM     26  S   UNL     1       2.784   1.807  -6.297  0.00  0.00    +0.085 S 
ATOM     27  O   UNL     1       1.949   2.931  -6.054  0.00  0.00    -0.149 OA
ATOM     28  O   UNL     1       4.179   1.821  -6.027  0.00  0.00    -0.149 OA
BRANCH  26  29
ATOM     29  C   UNL     1       2.605   1.406  -8.003  0.00  0.00    +0.110 A 
ATOM     30  C   UNL     1       3.647   0.806  -8.685  0.00  0.00    +0.029 A 
ATOM     31  C   UNL     1       3.506   0.491 -10.024  0.00  0.00    +0.005 A 
ATOM     32  C   UNL     1       2.323   0.776 -10.680  0.00  0.00    -0.050 A 
ATOM     33  C   UNL     1       1.281   1.375  -9.998  0.00  0.00    +0.005 A 
ATOM     34  C   UNL     1       1.420   1.686  -8.658  0.00  0.00    +0.029 A 
ATOM     35  C   UNL     1       2.170   0.434 -12.140  0.00  0.00    +0.044 C 
ENDBRANCH  26  29
ENDBRANCH  24  26
ENDBRANCH   9  24
BRANCH   1  36
ATOM     36  O   UNL     1       0.049  -0.663  -1.689  0.00  0.00    -0.489 OA
BRANCH  36  38
ATOM     37  C   UNL     1      -1.041   1.140  -0.504  0.00  0.00    +0.048 C 
ATOM     38  C   UNL     1      -0.464  -0.274  -0.413  0.00  0.00    +0.226 C 
ENDBRANCH  36  38
ENDBRANCH   1  36
TORSDOF 7
