REMARK  Name = ZINC12890263
REMARK  4 active torsions:
REMARK  status: ('A' for Active; 'I' for Inactive)
REMARK    1  A    between atoms: C_1  and  C_2
REMARK    2  A    between atoms: C_8  and  C_13
REMARK    3  A    between atoms: N_15  and  C_16
REMARK    4  A    between atoms: C_22  and  C_24
REMARK                            x       y       z     vdW  Elec       q    Type
REMARK                         _______ _______ _______ _____ _____    ______ ____
ROOT
ATOM      1  C   UNL     1       1.261  -2.183  -0.061  0.00  0.00    +0.045 C 
ATOM      2  C   UNL     1       1.229  -0.677  -0.036  0.00  0.00    -0.034 A 
ATOM      3  C   UNL     1       0.002  -0.003  -0.004  0.00  0.00    +0.008 A 
ATOM      4  C   UNL     1      -0.017   1.361   0.018  0.00  0.00    +0.047 A 
ATOM      5  C   UNL     1       1.196   2.070   0.007  0.00  0.00    +0.140 A 
ATOM      6  N   UNL     1       1.172   3.405   0.030  0.00  0.00    -0.237 NA
ATOM      7  C   UNL     1       2.279   4.117   0.022  0.00  0.00    +0.131 A 
ATOM      8  C   UNL     1       3.523   3.472  -0.009  0.00  0.00    +0.119 A 
ATOM      9  C   UNL     1       3.549   2.057  -0.033  0.00  0.00    +0.271 A 
ATOM     10  O   UNL     1       4.609   1.456  -0.060  0.00  0.00    -0.266 OA
ATOM     11  N   UNL     1       2.377   1.385  -0.024  0.00  0.00    -0.267 N 
ATOM     12  C   UNL     1       2.387   0.024  -0.046  0.00  0.00    +0.099 A 
ENDROOT
BRANCH   8  13
ATOM     13  C   UNL     1       4.770   4.246  -0.018  0.00  0.00    +0.251 C 
ATOM     14  O   UNL     1       4.732   5.459  -0.104  0.00  0.00    -0.270 OA
ATOM     15  N   UNL     1       5.956   3.612   0.070  0.00  0.00    -0.308 N 
ATOM     16  H   UNL     1       5.990   2.643   0.064  0.00  0.00    +0.149 HD
BRANCH  15  17
ATOM     17  C   UNL     1       7.195   4.388   0.173  0.00  0.00    +0.076 C 
ATOM     18  C   UNL     1       7.672   4.777  -1.227  0.00  0.00    +0.022 C 
ATOM     19  C   UNL     1       8.965   5.588  -1.119  0.00  0.00    +0.002 C 
ATOM     20  C   UNL     1      10.040   4.743  -0.430  0.00  0.00    +0.000 C 
ATOM     21  C   UNL     1       9.562   4.354   0.970  0.00  0.00    +0.005 C 
ATOM     22  C   UNL     1       8.269   3.544   0.862  0.00  0.00    +0.006 C 
ATOM     23  C   UNL     1       7.792   3.155   2.263  0.00  0.00    +0.009 C 
ENDBRANCH  15  17
ENDBRANCH   8  13
TORSDOF 2
