REMARK  Name = ZINC52067025
REMARK  7 active torsions:
REMARK  status: ('A' for Active; 'I' for Inactive)
REMARK    1  A    between atoms: C_1  and  C_2
REMARK    2  A    between atoms: C_2  and  C_4
REMARK    3  A    between atoms: C_2  and  N_22
REMARK    4  A    between atoms: C_9  and  O_10
REMARK    5  A    between atoms: O_10  and  C_11
REMARK    6  A    between atoms: C_18  and  O_20
REMARK    7  A    between atoms: N_22  and  C_23
REMARK                            x       y       z     vdW  Elec       q    Type
REMARK                         _______ _______ _______ _____ _____    ______ ____
ROOT
ATOM      1  C   UNL     1       0.734  -0.327  -1.306  0.00  0.00    -0.019 A 
ATOM      2  C   UNL     1       0.000  -0.686  -2.420  0.00  0.00    +0.020 A 
ATOM      3  C   UNL     1       0.610  -1.358  -3.464  0.00  0.00    +0.018 A 
ATOM      4  C   UNL     1       1.956  -1.672  -3.395  0.00  0.00    +0.019 A 
ATOM      5  C   UNL     1       2.693  -1.314  -2.283  0.00  0.00    +0.047 A 
ATOM      6  C   UNL     1       2.085  -0.635  -1.237  0.00  0.00    +0.123 A 
ATOM      7 BR   UNL     1      -0.397  -1.849  -4.987  0.00  0.00    -0.050 Br
ENDROOT
BRANCH   1   9
ATOM      8  C   UNL     1       0.272   1.912  -0.345  0.00  0.00    -0.009 C 
ATOM      9  C   UNL     1       0.069   0.406  -0.169  0.00  0.00    -0.041 C 
BRANCH   9  10
ATOM     10  N   UNL     1      -1.368   0.102  -0.165  0.00  0.00    +0.382 N 
ATOM     11  C   UNL     1      -1.996   0.718   1.011  0.00  0.00    -0.100 C 
ATOM     12  H   UNL     1      -1.792   0.470  -1.004  0.00  0.00    -0.085 HD
ATOM     13  H   UNL     1      -1.501  -0.898  -0.132  0.00  0.00    -0.085 HD
ENDBRANCH   9  10
ENDBRANCH   1   9
BRANCH   6  14
ATOM     14  O   UNL     1       2.809  -0.278  -0.144  0.00  0.00    -0.484 OA
BRANCH  14  15
ATOM     15  C   UNL     1       4.216  -0.529  -0.188  0.00  0.00    +0.224 C 
ATOM     16  C   UNL     1       4.464  -2.008   0.183  0.00  0.00    +0.213 C 
ATOM     17  S   UNL     1       6.034  -1.879   1.145  0.00  0.00    -0.025 S 
ATOM     18  O   UNL     1       7.134  -1.821   0.246  0.00  0.00    -0.174 OA
ATOM     19  O   UNL     1       6.027  -2.842   2.189  0.00  0.00    -0.174 OA
ATOM     20  C   UNL     1       5.738  -0.201   1.856  0.00  0.00    +0.201 C 
ATOM     21  C   UNL     1       4.914   0.460   0.733  0.00  0.00    +0.177 C 
BRANCH  21  22
ATOM     22  O   UNL     1       3.927   1.303   1.330  0.00  0.00    -0.386 OA
ATOM     23  H   UNL     1       4.288   1.966   1.934  0.00  0.00    +0.210 HD
ENDBRANCH  21  22
ENDBRANCH  14  15
ENDBRANCH   6  14
TORSDOF 5
