REMARK  Name = ZINC16525438
REMARK  3 active torsions:
REMARK  status: ('A' for Active; 'I' for Inactive)
REMARK    1  A    between atoms: C_7  and  C_19
REMARK    2  A    between atoms: N_9  and  C_10
REMARK    3  A    between atoms: C_10  and  C_11
REMARK                            x       y       z     vdW  Elec       q    Type
REMARK                         _______ _______ _______ _____ _____    ______ ____
ROOT
ATOM      1  C   UNL     1      -0.114  -2.707  -4.417  0.00  0.00    +0.001 A 
ATOM      2  C   UNL     1       0.585  -2.751  -3.219  0.00  0.00    +0.002 A 
ATOM      3  C   UNL     1       0.164  -2.015  -2.133  0.00  0.00    +0.026 A 
ATOM      4  C   UNL     1      -0.972  -1.219  -2.232  0.00  0.00    +0.050 A 
ATOM      5  C   UNL     1      -1.678  -1.175  -3.445  0.00  0.00    +0.007 A 
ATOM      6  C   UNL     1      -1.242  -1.924  -4.535  0.00  0.00    +0.010 A 
ATOM      7  C   UNL     1      -2.810  -0.256  -3.222  0.00  0.00    +0.002 A 
ATOM      8  C   UNL     1      -2.712   0.172  -1.927  0.00  0.00    +0.095 A 
ATOM      9  N   UNL     1      -1.625  -0.391  -1.341  0.00  0.00    -0.342 N 
ENDROOT
BRANCH   7  10
ATOM     10  C   UNL     1      -3.838   0.120  -4.193  0.00  0.00    +0.038 C 
ATOM     11  C   UNL     1      -5.003   0.680  -3.768  0.00  0.00    +0.098 C 
ATOM     12  C   UNL     1      -6.031   1.236  -4.577  0.00  0.00    +0.266 C 
ATOM     13  O   UNL     1      -6.038   1.303  -5.793  0.00  0.00    -0.268 OA
ATOM     14  N   UNL     1      -6.996   1.673  -3.745  0.00  0.00    -0.235 N 
ATOM     15  C   UNL     1      -6.637   1.434  -2.473  0.00  0.00    +0.311 C 
ATOM     16  O   UNL     1      -7.301   1.720  -1.495  0.00  0.00    -0.252 OA
ATOM     17  N   UNL     1      -5.434   0.833  -2.441  0.00  0.00    -0.265 N 
ATOM     18  H   UNL     1      -7.823   2.098  -4.023  0.00  0.00    +0.159 HD
ATOM     19  H   UNL     1      -4.951   0.556  -1.646  0.00  0.00    +0.157 HD
ENDBRANCH   7  10
BRANCH   9  20
ATOM     20  C   UNL     1      -1.206  -0.157   0.043  0.00  0.00    +0.158 C 
BRANCH  20  21
ATOM     21  C   UNL     1      -0.167   0.935   0.075  0.00  0.00    -0.009 A 
ATOM     22  C   UNL     1       1.177   0.610   0.071  0.00  0.00    +0.008 A 
ATOM     23  C   UNL     1       2.130   1.610   0.102  0.00  0.00    +0.020 A 
ATOM     24  C   UNL     1       1.740   2.937   0.136  0.00  0.00    +0.042 A 
ATOM     25  C   UNL     1       0.395   3.263   0.139  0.00  0.00    +0.040 A 
ATOM     26  C   UNL     1      -0.558   2.261   0.109  0.00  0.00    +0.047 A 
ATOM     27 CL   UNL     1      -2.246   2.669   0.107  0.00  0.00    -0.083 Cl
ATOM     28 CL   UNL     1       2.937   4.194   0.174  0.00  0.00    -0.083 Cl
ENDBRANCH  20  21
ENDBRANCH   9  20
TORSDOF 3
