REMARK  Name = ZINC20154868
REMARK  11 active torsions:
REMARK  status: ('A' for Active; 'I' for Inactive)
REMARK    1  A    between atoms: C_1  and  C_2
REMARK    2  A    between atoms: C_2  and  C_3
REMARK    3  A    between atoms: C_2  and  C_4
REMARK    4  A    between atoms: C_4  and  S_5
REMARK    5  A    between atoms: S_5  and  C_6
REMARK    6  A    between atoms: C_14  and  C_15
REMARK    7  A    between atoms: C_17  and  O_30
REMARK    8  A    between atoms: C_18  and  O_22
REMARK    9  A    between atoms: O_22  and  C_23
REMARK   10  A    between atoms: C_23  and  C_25
REMARK   11  A    between atoms: O_30  and  C_31
REMARK                            x       y       z     vdW  Elec       q    Type
REMARK                         _______ _______ _______ _____ _____    ______ ____
ROOT
ATOM      1  C   UNL     1      -3.398  -2.900  -0.494  0.00  0.00    +0.176 C 
ATOM      2  N   UNL     1      -4.409  -2.085  -0.622  0.00  0.00    -0.185 NA
ATOM      3  S   UNL     1      -5.724  -3.095  -0.866  0.00  0.00    +0.048 S 
ATOM      4  C   UNL     1      -4.961  -4.573  -0.749  0.00  0.00    +0.183 C 
ATOM      5  N   UNL     1      -5.458  -5.789  -0.799  0.00  0.00    -0.152 NA
ATOM      6  C   UNL     1      -4.645  -6.845  -0.614  0.00  0.00    +0.273 C 
ATOM      7  O   UNL     1      -5.051  -7.984  -0.784  0.00  0.00    -0.268 OA
ATOM      8  C   UNL     1      -3.244  -6.593  -0.196  0.00  0.00    +0.079 C 
ATOM      9  C   UNL     1      -2.511  -7.530   0.496  0.00  0.00    +0.024 C 
ATOM     10  C   UNL     1      -2.673  -5.266  -0.568  0.00  0.00    +0.137 C 
ATOM     11  N   UNL     1      -1.412  -5.079  -0.848  0.00  0.00    -0.284 NA
ATOM     12  N   UNL     1      -3.632  -4.233  -0.592  0.00  0.00    -0.211 N 
ATOM     13  H   UNL     1      -0.793  -5.825  -0.820  0.00  0.00    +0.188 HD
ENDROOT
BRANCH   9  14
ATOM     14  C   UNL     1      -3.164  -8.738   1.008  0.00  0.00    -0.019 A 
ATOM     15  C   UNL     1      -2.474  -9.958   1.023  0.00  0.00    +0.057 A 
ATOM     16  C   UNL     1      -3.095 -11.092   1.508  0.00  0.00    +0.164 A 
ATOM     17  C   UNL     1      -4.406 -11.023   1.980  0.00  0.00    +0.192 A 
ATOM     18  C   UNL     1      -5.092  -9.814   1.966  0.00  0.00    +0.087 A 
ATOM     19  C   UNL     1      -4.479  -8.675   1.490  0.00  0.00    +0.032 A 
ATOM     20 CL   UNL     1      -6.723  -9.737   2.556  0.00  0.00    -0.080 Cl
BRANCH  16  21
ATOM     21  O   UNL     1      -2.428 -12.277   1.524  0.00  0.00    -0.491 OA
ATOM     22  C   UNL     1      -1.089 -12.275   1.025  0.00  0.00    +0.277 C 
ENDBRANCH  16  21
BRANCH  17  23
ATOM     23  O   UNL     1      -5.014 -12.140   2.455  0.00  0.00    -0.415 OA
BRANCH  23  24
ATOM     24  C   UNL     1      -4.890 -12.418   3.770  0.00  0.00    +0.380 C 
ATOM     25  O   UNL     1      -4.250 -11.677   4.491  0.00  0.00    -0.241 OA
BRANCH  24  26
ATOM     26  C   UNL     1      -5.528 -13.612   4.329  0.00  0.00    +0.212 A 
ATOM     27  C   UNL     1      -5.488 -14.007   5.636  0.00  0.00    +0.056 A 
ATOM     28  C   UNL     1      -6.228 -15.196   5.722  0.00  0.00    +0.042 A 
ATOM     29  C   UNL     1      -6.682 -15.472   4.479  0.00  0.00    +0.196 A 
ATOM     30  O   UNL     1      -6.263 -14.513   3.644  0.00  0.00    -0.456 OA
ENDBRANCH  24  26
ENDBRANCH  23  24
ENDBRANCH  17  23
ENDBRANCH   9  14
BRANCH   1  31
ATOM     31  S   UNL     1      -1.771  -2.285  -0.208  0.00  0.00    -0.089 S 
BRANCH  31  32
ATOM     32  C   UNL     1      -1.985  -0.484  -0.159  0.00  0.00    +0.080 C 
BRANCH  32  34
ATOM     33  C   UNL     1      -0.789   1.703   0.004  0.00  0.00    +0.008 C 
ATOM     34  C   UNL     1      -0.631   0.183   0.087  0.00  0.00    -0.007 C 
ATOM     35  C   UNL     1      -0.117  -0.201   1.475  0.00  0.00    +0.008 C 
ENDBRANCH  32  34
ENDBRANCH  31  32
ENDBRANCH   1  31
TORSDOF 8
