REMARK  Name = ZINC13479347
REMARK  9 active torsions:
REMARK  status: ('A' for Active; 'I' for Inactive)
REMARK    1  A    between atoms: C_1  and  N_2
REMARK    2  A    between atoms: N_2  and  C_3
REMARK    3  A    between atoms: N_2  and  S_28
REMARK    4  A    between atoms: C_3  and  C_4
REMARK    5  A    between atoms: C_4  and  C_6
REMARK    6  A    between atoms: C_4  and  C_22
REMARK    7  A    between atoms: C_6  and  C_7
REMARK    8  A    between atoms: C_7  and  N_70
REMARK    9  A    between atoms: S_28  and  C_31
REMARK                            x       y       z     vdW  Elec       q    Type
REMARK                         _______ _______ _______ _____ _____    ______ ____
ROOT
ATOM      1  C   UNL     1       9.565   4.004  -2.348  0.00  0.00    +0.033 C 
ENDROOT
BRANCH   1   2
ATOM      2  C   UNL     1       9.327   5.482  -2.176  0.00  0.00    -0.043 A 
ATOM      3  C   UNL     1       8.493   6.154  -3.049  0.00  0.00    +0.004 A 
ATOM      4  C   UNL     1       8.271   7.509  -2.889  0.00  0.00    +0.000 A 
ATOM      5  C   UNL     1       8.891   8.194  -1.861  0.00  0.00    +0.000 A 
ATOM      6  C   UNL     1       9.730   7.523  -0.991  0.00  0.00    +0.000 A 
ATOM      7  C   UNL     1       9.948   6.167  -1.148  0.00  0.00    +0.004 A 
ENDBRANCH   1   2
BRANCH   1   8
ATOM      8  C   UNL     1      10.176   3.742  -3.726  0.00  0.00    +0.117 C 
BRANCH   8  10
ATOM      9  C   UNL     1      11.636   5.772  -4.161  0.00  0.00    +0.131 C 
ATOM     10  N   UNL     1      11.503   4.359  -3.796  0.00  0.00    -0.179 NA
BRANCH  10  11
ATOM     11  S   UNL     1      12.853   3.459  -3.464  0.00  0.00    +0.061 S 
ATOM     12  O   UNL     1      13.864   4.376  -3.065  0.00  0.00    -0.153 OA
ATOM     13  O   UNL     1      12.431   2.383  -2.638  0.00  0.00    -0.153 OA
BRANCH  11  14
ATOM     14  C   UNL     1      13.391   2.747  -4.983  0.00  0.00    +0.105 A 
ATOM     15  C   UNL     1      12.918   1.507  -5.371  0.00  0.00    +0.028 A 
ATOM     16  C   UNL     1      13.336   0.951  -6.565  0.00  0.00    +0.002 A 
ATOM     17  C   UNL     1      14.236   1.629  -7.366  0.00  0.00    +0.000 A 
ATOM     18  C   UNL     1      14.713   2.866  -6.976  0.00  0.00    +0.002 A 
ATOM     19  C   UNL     1      14.291   3.425  -5.784  0.00  0.00    +0.028 A 
ENDBRANCH  11  14
ENDBRANCH  10  11
ENDBRANCH   8  10
ENDBRANCH   1   8
BRANCH   1  20
ATOM     20  C   UNL     1       8.235   3.256  -2.229  0.00  0.00    -0.009 C 
BRANCH  20  21
ATOM     21  C   UNL     1       7.685   3.415  -0.810  0.00  0.00    -0.078 C 
BRANCH  21  36
ATOM     22  C   UNL     1       5.968   2.626   0.702  0.00  0.00    -0.078 C 
ATOM     23  C   UNL     1       4.717   1.749   0.801  0.00  0.00    -0.006 C 
ATOM     24  C   UNL     1       3.611   2.349  -0.074  0.00  0.00    +0.005 C 
ATOM     25  C   UNL     1       4.114   2.456  -1.518  0.00  0.00    -0.006 C 
ATOM     26  C   UNL     1       5.382   3.312  -1.548  0.00  0.00    -0.078 C 
ATOM     27  C   UNL     1       3.288   3.770   0.442  0.00  0.00    +0.120 C 
ATOM     28  S   UNL     1       1.490   3.833   0.052  0.00  0.00    +0.055 S 
ATOM     29  O   UNL     1       1.312   4.254  -1.294  0.00  0.00    -0.252 OA
ATOM     30  C   UNL     1       1.164   2.084   0.002  0.00  0.00    +0.043 A 
ATOM     31  C   UNL     1       2.397   1.452  -0.032  0.00  0.00    -0.025 A 
ATOM     32  C   UNL     1       2.397   0.054  -0.034  0.00  0.00    +0.005 A 
ATOM     33  C   UNL     1       1.220  -0.658  -0.015  0.00  0.00    +0.000 A 
ATOM     34  C   UNL     1       0.002  -0.004   0.002  0.00  0.00    +0.001 A 
ATOM     35  C   UNL     1      -0.017   1.379   0.010  0.00  0.00    +0.017 A 
ATOM     36  N   UNL     1       6.414   2.669  -0.707  0.00  0.00    +0.380 N 
ATOM     37  H   UNL     1       6.563   1.709  -1.039  0.00  0.00    -0.082 HD
ENDBRANCH  21  36
ENDBRANCH  20  21
ENDBRANCH   1  20
TORSDOF 8
