REMARK  Name = ZINC29496284
REMARK  8 active torsions:
REMARK  status: ('A' for Active; 'I' for Inactive)
REMARK    1  A    between atoms: C_1  and  C_2
REMARK    2  A    between atoms: C_2  and  C_3
REMARK    3  A    between atoms: C_2  and  C_4
REMARK    4  A    between atoms: C_4  and  N_5
REMARK    5  A    between atoms: C_6  and  S_8
REMARK    6  A    between atoms: S_8  and  C_9
REMARK    7  A    between atoms: C_9  and  C_10
REMARK    8  A    between atoms: C_16  and  C_18
REMARK                            x       y       z     vdW  Elec       q    Type
REMARK                         _______ _______ _______ _____ _____    ______ ____
ROOT
ATOM      1  C   UNL     1       1.941  -0.042  -2.263  0.00  0.00    +0.226 C 
ATOM      2  O   UNL     1       1.853   0.997  -2.883  0.00  0.00    -0.275 OA
ATOM      3  N   UNL     1       2.055  -0.017  -0.920  0.00  0.00    -0.294 N 
ATOM      4  C   UNL     1       2.169  -1.199  -0.046  0.00  0.00    +0.108 C 
ATOM      5  C   UNL     1       2.876  -0.680   1.231  0.00  0.00    +0.021 C 
ATOM      6  C   UNL     1       2.254   0.733   1.379  0.00  0.00    +0.029 C 
ATOM      7  C   UNL     1       2.086   1.192  -0.084  0.00  0.00    +0.106 C 
ENDROOT
BRANCH   7   8
ATOM      8  C   UNL     1       0.795   1.954  -0.237  0.00  0.00    -0.023 A 
ATOM      9  C   UNL     1      -0.402   1.270  -0.340  0.00  0.00    +0.009 A 
ATOM     10  C   UNL     1      -1.587   1.966  -0.487  0.00  0.00    +0.050 A 
ATOM     11  C   UNL     1      -1.580   3.352  -0.521  0.00  0.00    +0.162 A 
ATOM     12  C   UNL     1      -0.377   4.040  -0.416  0.00  0.00    +0.162 A 
ATOM     13  C   UNL     1       0.810   3.336  -0.275  0.00  0.00    +0.055 A 
ATOM     14  O   UNL     1      -0.347   5.400  -0.444  0.00  0.00    -0.485 OA
ATOM     15  C   UNL     1      -1.509   6.059  -0.960  0.00  0.00    +0.270 C 
ATOM     16  C   UNL     1      -2.749   5.413  -0.325  0.00  0.00    +0.270 C 
ATOM     17  O   UNL     1      -2.755   4.023  -0.668  0.00  0.00    -0.485 OA
ENDBRANCH   7   8
BRANCH   1  18
ATOM     18  C   UNL     1       1.922  -1.359  -2.994  0.00  0.00    +0.173 C 
BRANCH  18  19
ATOM     19  S   UNL     1       1.760  -1.061  -4.771  0.00  0.00    -0.084 S 
BRANCH  19  21
ATOM     20  N   UNL     1       1.869  -3.712  -4.521  0.00  0.00    -0.368 N 
ATOM     21  C   UNL     1       1.764  -2.721  -5.362  0.00  0.00    +0.126 C 
ATOM     22  N   UNL     1       1.658  -2.972  -6.710  0.00  0.00    -0.339 N 
ATOM     23  H   UNL     1       1.569  -2.136  -7.420  0.00  0.00    +0.144 HD
ATOM     24  H   UNL     1       1.660  -4.008  -7.079  0.00  0.00    +0.144 HD
ATOM     25  H   UNL     1       1.891  -3.515  -3.438  0.00  0.00    +0.161 HD
BRANCH  20  26
ATOM     26  C   UNL     1       1.957  -5.088  -5.016  0.00  0.00    +0.117 C 
BRANCH  26  28
ATOM     27  C   UNL     1       3.474  -5.775  -3.154  0.00  0.00    +0.009 C 
ATOM     28  C   UNL     1       3.331  -5.667  -4.674  0.00  0.00    +0.002 C 
ATOM     29  C   UNL     1       3.469  -7.057  -5.299  0.00  0.00    +0.009 C 
ENDBRANCH  26  28
ENDBRANCH  20  26
ENDBRANCH  19  21
ENDBRANCH  18  19
ENDBRANCH   1  18
TORSDOF 6
