REMARK  Name = ZINC40933251
REMARK  8 active torsions:
REMARK  status: ('A' for Active; 'I' for Inactive)
REMARK    1  A    between atoms: C_1  and  C_2
REMARK    2  A    between atoms: C_2  and  N_3
REMARK    3  A    between atoms: C_4  and  C_18
REMARK    4  A    between atoms: C_5  and  N_17
REMARK    5  A    between atoms: N_8  and  C_9
REMARK    6  A    between atoms: C_9  and  C_16
REMARK    7  A    between atoms: C_18  and  C_19
REMARK    8  A    between atoms: C_18  and  C_20
REMARK                            x       y       z     vdW  Elec       q    Type
REMARK                         _______ _______ _______ _____ _____    ______ ____
ROOT
ATOM      1  N   UNL     1      -1.692  -1.359  -0.178  0.00  0.00    -0.283 N 
ATOM      2  C   UNL     1      -2.732  -1.508   0.706  0.00  0.00    +0.064 A 
ATOM      3  C   UNL     1      -3.848  -1.813   0.010  0.00  0.00    +0.113 A 
ATOM      4  C   UNL     1      -3.479  -1.857  -1.405  0.00  0.00    +0.289 A 
ATOM      5  O   UNL     1      -4.221  -2.102  -2.340  0.00  0.00    -0.264 OA
ATOM      6  N   UNL     1      -2.163  -1.570  -1.479  0.00  0.00    -0.241 N 
ENDROOT
BRANCH   6   7
ATOM      7  C   UNL     1      -1.366  -1.497  -2.705  0.00  0.00    +0.083 C 
ATOM      8  C   UNL     1      -2.210  -2.013  -3.870  0.00  0.00    +0.054 C 
ATOM      9  C   UNL     1      -2.997  -0.844  -4.525  0.00  0.00    +0.168 C 
ATOM     10  S   UNL     1      -1.704   0.473  -4.457  0.00  0.00    -0.029 S 
ATOM     11  O   UNL     1      -0.802   0.299  -5.540  0.00  0.00    -0.174 OA
ATOM     12  O   UNL     1      -2.331   1.733  -4.260  0.00  0.00    -0.174 OA
ATOM     13  C   UNL     1      -0.882  -0.046  -2.894  0.00  0.00    +0.195 C 
ATOM     14  C   UNL     1      -0.144  -2.405  -2.549  0.00  0.00    +0.038 C 
ENDBRANCH   6   7
BRANCH   3  15
ATOM     15  N   UNL     1      -5.131  -2.047   0.549  0.00  0.00    -0.352 N 
ATOM     16  H   UNL     1      -5.272  -1.994   1.507  0.00  0.00    +0.143 HD
ATOM     17  H   UNL     1      -5.872  -2.261  -0.040  0.00  0.00    +0.143 HD
ENDBRANCH   3  15
BRANCH   2  18
ATOM     18  C   UNL     1      -2.642  -1.357   2.203  0.00  0.00    +0.033 C 
ATOM     19  C   UNL     1      -1.519  -2.247   2.739  0.00  0.00    +0.014 C 
ATOM     20  C   UNL     1      -2.345   0.103   2.551  0.00  0.00    +0.014 C 
ENDBRANCH   2  18
BRANCH   1  22
ATOM     21  C   UNL     1       0.491  -2.313   0.372  0.00  0.00    +0.029 C 
ATOM     22  C   UNL     1      -0.312  -1.025   0.182  0.00  0.00    +0.138 C 
ENDBRANCH   1  22
TORSDOF 4
