REMARK  Name = ZINC14720760
REMARK  11 active torsions:
REMARK  status: ('A' for Active; 'I' for Inactive)
REMARK    1  A    between atoms: C_1  and  C_2
REMARK    2  A    between atoms: C_2  and  C_3
REMARK    3  A    between atoms: C_3  and  C_4
REMARK    4  A    between atoms: C_4  and  N_5
REMARK    5  A    between atoms: N_5  and  C_6
REMARK    6  A    between atoms: C_7  and  N_19
REMARK    7  A    between atoms: N_8  and  C_15
REMARK    8  A    between atoms: C_15  and  C_16
REMARK    9  A    between atoms: C_16  and  C_17
REMARK   10  A    between atoms: C_16  and  C_18
REMARK   11  A    between atoms: C_20  and  C_22
REMARK                            x       y       z     vdW  Elec       q    Type
REMARK                         _______ _______ _______ _____ _____    ______ ____
ROOT
ATOM      1  N   UNL     1       2.770   7.725  -0.087  0.00  0.00    -0.260 N 
ATOM      2  C   UNL     1       3.014   6.431   0.203  0.00  0.00    +0.259 C 
ATOM      3  O   UNL     1       4.158   6.015   0.215  0.00  0.00    -0.269 OA
ENDROOT
BRANCH   2   4
ATOM      4  C   UNL     1       1.899   5.524   0.503  0.00  0.00    +0.094 A 
ATOM      5  C   UNL     1       1.929   4.175   0.682  0.00  0.00    +0.068 A 
ATOM      6  C   UNL     1       0.738   3.480   0.966  0.00  0.00    +0.008 A 
ATOM      7  C   UNL     1       0.564   2.088   1.183  0.00  0.00    +0.010 A 
ATOM      8  C   UNL     1      -0.665   1.575   1.447  0.00  0.00    +0.001 A 
ATOM      9  C   UNL     1      -1.794   2.383   1.511  0.00  0.00    +0.001 A 
ATOM     10  C   UNL     1      -1.669   3.743   1.312  0.00  0.00    +0.016 A 
ATOM     11  C   UNL     1      -0.427   4.278   1.042  0.00  0.00    +0.021 A 
ATOM     12  S   UNL     1       0.173   5.918   0.723  0.00  0.00    -0.082 S 
ATOM     13 CL   UNL     1       3.431   3.314   0.562  0.00  0.00    -0.082 Cl
ENDBRANCH   2   4
BRANCH   1  14
ATOM     14  C   UNL     1       3.834   8.581  -0.441  0.00  0.00    +0.140 A 
ATOM     15  C   UNL     1       4.837   8.865   0.463  0.00  0.00    +0.127 A 
ATOM     16  N   UNL     1       5.861   9.703   0.089  0.00  0.00    -0.280 N 
ATOM     17  C   UNL     1       5.886  10.239  -1.145  0.00  0.00    +0.331 A 
ATOM     18  O   UNL     1       6.800  10.978  -1.457  0.00  0.00    -0.246 OA
ATOM     19  N   UNL     1       4.917   9.974  -2.039  0.00  0.00    -0.273 N 
ATOM     20  H   UNL     1       4.956  10.389  -2.948  0.00  0.00    +0.173 HD
ATOM     21  C   UNL     1       3.894   9.155  -1.725  0.00  0.00    +0.277 A 
ATOM     22  O   UNL     1       3.024   8.917  -2.545  0.00  0.00    -0.266 OA
BRANCH  15  23
ATOM     23  N   UNL     1       4.813   8.317   1.724  0.00  0.00    -0.343 N 
ATOM     24  H   UNL     1       4.128   7.672   1.959  0.00  0.00    +0.144 HD
ATOM     25  H   UNL     1       5.480   8.576   2.378  0.00  0.00    +0.144 HD
ENDBRANCH  15  23
BRANCH  16  26
ATOM     26  C   UNL     1       6.933  10.013   1.039  0.00  0.00    +0.131 C 
BRANCH  26  27
ATOM     27  C   UNL     1       8.058   8.988   0.891  0.00  0.00    +0.003 C 
ATOM     28  C   UNL     1       9.229   9.382   1.793  0.00  0.00    +0.009 C 
ATOM     29  C   UNL     1       7.545   7.605   1.297  0.00  0.00    +0.009 C 
ENDBRANCH  26  27
ENDBRANCH  16  26
ENDBRANCH   1  14
BRANCH   1  30
ATOM     30  C   UNL     1       1.401   8.242  -0.034  0.00  0.00    +0.114 C 
BRANCH  30  31
ATOM     31  C   UNL     1       1.045   8.596   1.411  0.00  0.00    +0.019 C 
BRANCH  31  33
ATOM     32  C   UNL     1      -0.742   9.490   2.912  0.00  0.00    +0.004 C 
ATOM     33  C   UNL     1      -0.386   9.136   1.467  0.00  0.00    -0.002 C 
ENDBRANCH  31  33
ENDBRANCH  30  31
ENDBRANCH   1  30
TORSDOF 8
