REMARK  Name = ZINC05642260
REMARK  3 active torsions:
REMARK  status: ('A' for Active; 'I' for Inactive)
REMARK    1  A    between atoms: C_4  and  C_8
REMARK    2  A    between atoms: N_9  and  N_10
REMARK    3  A    between atoms: C_11  and  C_13
REMARK                            x       y       z     vdW  Elec       q    Type
REMARK                         _______ _______ _______ _____ _____    ______ ____
ROOT
ATOM      1  C   UNL     1      -4.756   0.061   0.459  0.00  0.00    +0.152 A 
ATOM      2  C   UNL     1      -6.017  -0.499   0.771  0.00  0.00    +0.005 A 
ATOM      3  C   UNL     1      -6.883   0.541   0.778  0.00  0.00    +0.040 A 
ATOM      4  N   UNL     1      -6.177   1.652   0.479  0.00  0.00    -0.281 N 
ATOM      5  H   UNL     1      -6.561   2.573   0.410  0.00  0.00    +0.189 HD
ATOM      6  N   UNL     1      -4.940   1.356   0.297  0.00  0.00    -0.169 NA
ATOM      7  C   UNL     1      -8.362   0.471   1.060  0.00  0.00    +0.055 C 
ATOM      8  C   UNL     1      -8.993  -0.630   0.197  0.00  0.00    +0.006 C 
ATOM      9  C   UNL     1     -10.511  -0.623   0.393  0.00  0.00    +0.000 C 
ATOM     10  C   UNL     1     -10.992  -2.043   0.697  0.00  0.00    +0.000 C 
ATOM     11  C   UNL     1     -10.344  -2.536   1.992  0.00  0.00    +0.000 C 
ATOM     12  C   UNL     1      -9.281  -3.586   1.663  0.00  0.00    +0.000 C 
ATOM     13  C   UNL     1      -8.532  -3.971   2.940  0.00  0.00    +0.000 C 
ATOM     14  C   UNL     1      -7.067  -3.545   2.820  0.00  0.00    +0.000 C 
ATOM     15  C   UNL     1      -6.996  -2.071   2.418  0.00  0.00    +0.005 C 
ATOM     16  C   UNL     1      -6.331  -1.948   1.046  0.00  0.00    +0.039 C 
ENDROOT
BRANCH   1  18
ATOM     17  N   UNL     1      -2.332   0.011   0.126  0.00  0.00    -0.202 N 
ATOM     18  C   UNL     1      -3.478  -0.668   0.333  0.00  0.00    +0.284 C 
ATOM     19  O   UNL     1      -3.459  -1.881   0.415  0.00  0.00    -0.267 OA
ATOM     20  H   UNL     1      -2.356   0.971  -0.013  0.00  0.00    +0.178 HD
BRANCH  17  22
ATOM     21  C   UNL     1       0.003  -0.004   0.015  0.00  0.00    +0.141 C 
ATOM     22  N   UNL     1      -1.107  -0.669   0.110  0.00  0.00    -0.187 NA
BRANCH  21  26
ATOM     23  C   UNL     1      -0.036   4.237   0.225  0.00  0.00    +0.003 A 
ATOM     24  C   UNL     1      -0.577   3.491   1.258  0.00  0.00    +0.021 A 
ATOM     25  C   UNL     1      -0.568   2.112   1.197  0.00  0.00    +0.051 A 
ATOM     26  C   UNL     1      -0.011   1.469   0.087  0.00  0.00    +0.031 A 
ATOM     27  C   UNL     1       0.538   2.229  -0.949  0.00  0.00    +0.051 A 
ATOM     28  C   UNL     1       0.517   3.607  -0.876  0.00  0.00    +0.021 A 
ATOM     29 CL   UNL     1       1.239   1.442  -2.329  0.00  0.00    -0.083 Cl
ATOM     30 CL   UNL     1      -1.247   1.179   2.494  0.00  0.00    -0.083 Cl
ENDBRANCH  21  26
ENDBRANCH  17  22
ENDBRANCH   1  18
TORSDOF 3
