REMARK  Name = ZINC59830580
REMARK  9 active torsions:
REMARK  status: ('A' for Active; 'I' for Inactive)
REMARK    1  A    between atoms: C_1  and  C_2
REMARK    2  A    between atoms: C_2  and  C_23
REMARK    3  A    between atoms: N_3  and  N_4
REMARK    4  A    between atoms: C_7  and  S_10
REMARK    5  A    between atoms: S_10  and  C_11
REMARK    6  A    between atoms: C_11  and  C_12
REMARK    7  A    between atoms: C_12  and  C_13
REMARK    8  A    between atoms: N_15  and  C_16
REMARK    9  A    between atoms: C_28  and  O_29
REMARK                            x       y       z     vdW  Elec       q    Type
REMARK                         _______ _______ _______ _____ _____    ______ ____
ROOT
ATOM      1  N   UNL     1       0.016   0.034   2.339  0.00  0.00    -0.205 N 
ATOM      2  C   UNL     1       0.039  -0.664   3.533  0.00  0.00    +0.232 A 
ATOM      3  N   UNL     1       0.057  -1.974   3.664  0.00  0.00    -0.186 NA
ATOM      4  C   UNL     1       0.077  -2.296   4.961  0.00  0.00    +0.210 A 
ATOM      5  N   UNL     1       0.072  -1.195   5.674  0.00  0.00    -0.144 NA
ATOM      6  N   UNL     1       0.052  -0.121   4.769  0.00  0.00    -0.245 N 
ATOM      7  H   UNL     1       0.008   1.004   2.344  0.00  0.00    +0.177 HD
ATOM      8  H   UNL     1       0.048   0.824   4.989  0.00  0.00    +0.192 HD
ENDROOT
BRANCH   1  11
ATOM      9  C   UNL     1      -0.030   1.502   0.010  0.00  0.00    +0.068 C 
ATOM     10  C   UNL     1      -0.018  -0.005   0.002  0.00  0.00    +0.067 C 
ATOM     11  N   UNL     1       0.004  -0.660   1.122  0.00  0.00    -0.184 NA
BRANCH  10  12
ATOM     12  C   UNL     1      -0.030  -0.736  -1.278  0.00  0.00    +0.039 A 
ATOM     13  C   UNL     1      -0.048  -0.035  -2.487  0.00  0.00    +0.013 A 
ATOM     14  C   UNL     1      -0.059  -0.724  -3.681  0.00  0.00    +0.001 A 
ATOM     15  C   UNL     1      -0.054  -2.109  -3.688  0.00  0.00    +0.004 A 
ATOM     16  C   UNL     1      -0.037  -2.814  -2.499  0.00  0.00    +0.046 A 
ATOM     17  C   UNL     1      -0.019  -2.137  -1.290  0.00  0.00    +0.126 A 
BRANCH  17  18
ATOM     18  O   UNL     1       0.004  -2.829  -0.122  0.00  0.00    -0.506 OA
ATOM     19  H   UNL     1      -0.873  -3.037   0.230  0.00  0.00    +0.292 HD
ENDBRANCH  17  18
ENDBRANCH  10  12
ENDBRANCH   1  11
BRANCH   4  20
ATOM     20  S   UNL     1       0.106  -3.934   5.609  0.00  0.00    -0.084 S 
BRANCH  20  21
ATOM     21  C   UNL     1       0.126  -3.695   7.407  0.00  0.00    +0.086 C 
BRANCH  21  22
ATOM     22  C   UNL     1       0.151  -5.058   8.102  0.00  0.00    +0.107 C 
BRANCH  22  23
ATOM     23  C   UNL     1       0.167  -4.859   9.596  0.00  0.00    +0.218 C 
ATOM     24  O   UNL     1       0.159  -3.738  10.059  0.00  0.00    -0.275 OA
ATOM     25  N   UNL     1       0.191  -5.927  10.418  0.00  0.00    -0.285 N 
ATOM     26  H   UNL     1       0.130  -6.823  10.051  0.00  0.00    +0.155 HD
BRANCH  25  27
ATOM     27  C   UNL     1       0.304  -5.744  11.801  0.00  0.00    +0.033 A 
ATOM     28  C   UNL     1       1.027  -6.649  12.566  0.00  0.00    +0.024 A 
ATOM     29  C   UNL     1       1.137  -6.466  13.930  0.00  0.00    +0.017 A 
ATOM     30  C   UNL     1       0.527  -5.381  14.535  0.00  0.00    +0.018 A 
ATOM     31  C   UNL     1      -0.194  -4.477  13.775  0.00  0.00    +0.017 A 
ATOM     32  C   UNL     1      -0.303  -4.653  12.410  0.00  0.00    +0.024 A 
ATOM     33 BR   UNL     1       0.679  -5.133  16.404  0.00  0.00    -0.050 Br
ENDBRANCH  25  27
ENDBRANCH  22  23
ENDBRANCH  21  22
ENDBRANCH  20  21
ENDBRANCH   4  20
TORSDOF 8
