REMARK  Name = ZINC40742668
REMARK  11 active torsions:
REMARK  status: ('A' for Active; 'I' for Inactive)
REMARK    1  A    between atoms: C_1  and  O_2
REMARK    2  A    between atoms: O_2  and  C_3
REMARK    3  A    between atoms: C_5  and  C_20
REMARK    4  A    between atoms: C_8  and  O_9
REMARK    5  A    between atoms: O_9  and  C_10
REMARK    6  A    between atoms: C_10  and  C_11
REMARK    7  A    between atoms: C_20  and  N_21
REMARK    8  A    between atoms: N_21  and  CA_22
REMARK    9  A    between atoms: CA_22  and  CB_24
REMARK   10  A    between atoms: CA_22  and  C_35
REMARK   11  A    between atoms: CB_24  and  CG_25
REMARK                            x       y       z     vdW  Elec       q    Type
REMARK                         _______ _______ _______ _____ _____    ______ ____
ROOT
ATOM      1  C   UNL     1      -1.201  -0.638   0.010  0.00  0.00    +0.163 A 
ATOM      2  C   UNL     1      -2.374   0.100   0.019  0.00  0.00    +0.051 A 
ATOM      3  C   UNL     1      -3.597  -0.545   0.028  0.00  0.00    -0.059 A 
ATOM      4  C   UNL     1      -3.653  -1.927   0.027  0.00  0.00    +0.025 A 
ATOM      5  C   UNL     1      -2.486  -2.669   0.018  0.00  0.00    +0.086 A 
ATOM      6  C   UNL     1      -1.257  -2.028   0.003  0.00  0.00    +0.181 A 
ATOM      7 CL   UNL     1      -2.560  -4.404   0.018  0.00  0.00    -0.080 Cl
ENDROOT
BRANCH   1   9
ATOM      8  C   UNL     1      -0.017   1.425   0.010  0.00  0.00    +0.277 C 
ATOM      9  O   UNL     1       0.002  -0.004   0.002  0.00  0.00    -0.491 OA
ENDBRANCH   1   9
BRANCH   6  10
ATOM     10  O   UNL     1      -0.108  -2.756  -0.012  0.00  0.00    -0.482 OA
BRANCH  10  11
ATOM     11  C   UNL     1       0.453  -3.110   1.254  0.00  0.00    +0.269 C 
BRANCH  11  12
ATOM     12  C   UNL     1       1.713  -3.909   1.040  0.00  0.00    +0.043 A 
ATOM     13  C   UNL     1       1.649  -5.288   0.936  0.00  0.00    +0.131 A 
ATOM     14  C   UNL     1       2.808  -6.021   0.739  0.00  0.00    +0.039 A 
ATOM     15  C   UNL     1       4.026  -5.375   0.646  0.00  0.00    +0.004 A 
ATOM     16  C   UNL     1       4.089  -3.998   0.749  0.00  0.00    +0.020 A 
ATOM     17  C   UNL     1       2.932  -3.264   0.940  0.00  0.00    +0.050 A 
ATOM     18 CL   UNL     1       3.012  -1.534   1.062  0.00  0.00    -0.083 Cl
ATOM     19  F   UNL     1       0.458  -5.919   1.028  0.00  0.00    -0.205 F 
ENDBRANCH  11  12
ENDBRANCH  10  11
ENDBRANCH   6  10
BRANCH   3  20
ATOM     20  C   ACE A   0      -4.871   0.259   0.038  0.00  0.00    -0.045 C 
BRANCH  20  21
ATOM     21  N   UNL     1      -5.296   0.521  -1.344  0.00  0.00    +0.391 N 
ATOM     22  H1  UNL     1      -4.575   1.039  -1.824  0.00  0.00    -0.084 HD
ATOM     23  H2  UNL     1      -5.454  -0.354  -1.819  0.00  0.00    -0.084 HD
BRANCH  21  24
ATOM     24  CA  UNL     1      -6.538   1.305  -1.334  0.00  0.00    +0.048 C 
BRANCH  24  25
ATOM     25  C   UNL     1      -7.646   0.484  -0.726  0.00  0.00    +0.343 C 
ATOM     26  O   UNL     1      -7.421  -0.650  -0.337  0.00  0.00    -0.248 OA
ATOM     27  OXT UNL     1      -8.766   0.953  -0.623  0.00  0.00    -0.248 OA
ENDBRANCH  24  25
BRANCH  24  28
ATOM     28  CB  UNL     1      -6.913   1.685  -2.767  0.00  0.00    +0.032 C 
BRANCH  28  29
ATOM     29  CG  UNL     1      -5.864   2.608  -3.333  0.00  0.00    -0.023 A 
ATOM     30  CD1 UNL     1      -5.901   3.950  -3.341  0.00  0.00    +0.087 A 
ATOM     31  NE1 UNL     1      -4.774   4.444  -3.938  0.00  0.00    -0.360 N 
ATOM     32  HE1 UNL     1      -4.575   5.386  -4.061  0.00  0.00    +0.165 HD
ATOM     33  CE2 UNL     1      -3.963   3.406  -4.341  0.00  0.00    +0.047 A 
ATOM     34  CD2 UNL     1      -4.608   2.210  -3.973  0.00  0.00    +0.003 A 
ATOM     35  CE3 UNL     1      -4.008   0.981  -4.254  0.00  0.00    +0.010 A 
ATOM     36  CZ3 UNL     1      -2.795   0.946  -4.881  0.00  0.00    +0.001 A 
ATOM     37  CH2 UNL     1      -2.153   2.123  -5.242  0.00  0.00    +0.002 A 
ATOM     38  CZ2 UNL     1      -2.731   3.346  -4.983  0.00  0.00    +0.026 A 
ENDBRANCH  28  29
ENDBRANCH  24  28
ENDBRANCH  21  24
ENDBRANCH  20  21
ENDBRANCH   3  20
TORSDOF 10
