REMARK  Name = ZINC39659627
REMARK  8 active torsions:
REMARK  status: ('A' for Active; 'I' for Inactive)
REMARK    1  A    between atoms: C_1  and  C_2
REMARK    2  A    between atoms: C_2  and  C_35
REMARK    3  A    between atoms: C_5  and  C_8
REMARK    4  A    between atoms: C_8  and  N_9
REMARK    5  A    between atoms: C_10  and  C_12
REMARK    6  A    between atoms: C_23  and  C_25
REMARK    7  A    between atoms: C_28  and  O_32
REMARK    8  A    between atoms: O_32  and  C_33
REMARK                            x       y       z     vdW  Elec       q    Type
REMARK                         _______ _______ _______ _____ _____    ______ ____
ROOT
ATOM      1  C   UNL     1       3.733  -1.025   5.773  0.00  0.00    +0.100 C 
ATOM      2  C   UNL     1       2.246  -0.827   6.143  0.00  0.00    +0.121 C 
ATOM      3  N   UNL     1       1.875  -2.061   6.875  0.00  0.00    -0.296 N 
ATOM      4  C   UNL     1       3.063  -2.366   7.708  0.00  0.00    +0.115 C 
ATOM      5  C   UNL     1       4.267  -2.033   6.804  0.00  0.00    -0.004 C 
ATOM      6  C   UNL     1       5.387  -1.405   7.627  0.00  0.00    -0.010 C 
ATOM      7  C   UNL     1       5.941  -2.444   8.605  0.00  0.00    -0.082 C 
ATOM      8  N   UNL     1       6.446  -3.602   7.858  0.00  0.00    +0.379 N 
ATOM      9  C   UNL     1       5.343  -4.256   7.144  0.00  0.00    -0.082 C 
ATOM     10  C   UNL     1       4.764  -3.293   6.103  0.00  0.00    -0.010 C 
ATOM     11  C   UNL     1       0.719  -2.749   6.801  0.00  0.00    +0.247 C 
ATOM     12  O   UNL     1      -0.118  -2.443   5.975  0.00  0.00    -0.270 OA
ATOM     13  H   UNL     1       7.140  -3.296   7.194  0.00  0.00    -0.086 HD
ATOM     14  H   UNL     1       6.865  -4.258   8.500  0.00  0.00    -0.086 HD
ENDROOT
BRANCH  11  15
ATOM     15  C   UNL     1       0.470  -3.874   7.723  0.00  0.00    +0.040 A 
ATOM     16  C   UNL     1       1.178  -3.966   8.924  0.00  0.00    +0.036 A 
ATOM     17  C   UNL     1       0.943  -5.018   9.783  0.00  0.00    +0.085 A 
ATOM     18  C   UNL     1       0.002  -5.988   9.455  0.00  0.00    +0.157 A 
ATOM     19  C   UNL     1      -0.705  -5.900   8.261  0.00  0.00    +0.085 A 
ATOM     20  C   UNL     1      -0.479  -4.848   7.400  0.00  0.00    +0.036 A 
ATOM     21 CL   UNL     1      -1.878  -7.114   7.856  0.00  0.00    -0.080 Cl
ATOM     22 CL   UNL     1       1.822  -5.133  11.275  0.00  0.00    -0.080 Cl
BRANCH  18  23
ATOM     23  O   UNL     1      -0.227  -7.024  10.303  0.00  0.00    -0.492 OA
ATOM     24  C   UNL     1      -1.240  -6.839  11.293  0.00  0.00    +0.277 C 
ENDBRANCH  18  23
ENDBRANCH  11  15
BRANCH   1  26
ATOM     25  N   UNL     1       4.991  -1.399   3.675  0.00  0.00    -0.312 N 
ATOM     26  C   UNL     1       3.856  -1.585   4.379  0.00  0.00    +0.218 C 
ATOM     27  O   UNL     1       2.935  -2.204   3.891  0.00  0.00    -0.275 OA
ATOM     28  H   UNL     1       5.728  -0.904   4.066  0.00  0.00    +0.149 HD
BRANCH  25  29
ATOM     29  C   UNL     1       5.110  -1.944   2.321  0.00  0.00    +0.138 C 
BRANCH  29  34
ATOM     30  C   UNL     1       8.964   0.210   1.098  0.00  0.00    +0.074 C 
ATOM     31  C   UNL     1       7.587  -0.042   0.481  0.00  0.00    +0.165 C 
ATOM     32  O   UNL     1       7.614  -1.259  -0.276  0.00  0.00    -0.347 OA
ATOM     33  C   UNL     1       6.650  -2.154   0.315  0.00  0.00    +0.196 C 
ATOM     34  C   UNL     1       6.486  -1.593   1.750  0.00  0.00    +0.164 C 
ATOM     35  O   UNL     1       6.606  -0.168   1.524  0.00  0.00    -0.342 OA
ATOM     36  C   UNL     1       7.214   1.123  -0.438  0.00  0.00    +0.074 C 
ENDBRANCH  29  34
ENDBRANCH  25  29
ENDBRANCH   1  26
TORSDOF 5
