REMARK  Name = ZINC13978758
REMARK  10 active torsions:
REMARK  status: ('A' for Active; 'I' for Inactive)
REMARK    1  A    between atoms: C_1  and  C_2
REMARK    2  A    between atoms: C_6  and  O_8
REMARK    3  A    between atoms: O_8  and  C_9
REMARK    4  A    between atoms: C_9  and  C_10
REMARK    5  A    between atoms: N_12  and  N_13
REMARK    6  A    between atoms: N_13  and  C_14
REMARK    7  A    between atoms: C_14  and  N_16
REMARK    8  A    between atoms: C_17  and  C_19
REMARK    9  A    between atoms: C_19  and  O_20
REMARK   10  A    between atoms: O_20  and  C_21
REMARK                            x       y       z     vdW  Elec       q    Type
REMARK                         _______ _______ _______ _____ _____    ______ ____
ROOT
ATOM      1  C   UNL     1      -5.294  -4.186   0.004  0.00  0.00    +0.153 C 
ATOM      2  S   UNL     1      -6.868  -4.860   0.008  0.00  0.00    -0.017 S 
ENDROOT
BRANCH   1   3
ATOM      3  N   UNL     1      -4.215  -4.995  -0.005  0.00  0.00    -0.264 N 
ATOM      4  C   UNL     1      -4.375  -6.333  -0.012  0.00  0.00    +0.256 C 
ATOM      5  O   UNL     1      -5.490  -6.810  -0.009  0.00  0.00    -0.272 OA
ATOM      6  H   UNL     1      -3.323  -4.613  -0.007  0.00  0.00    +0.157 HD
BRANCH   4   7
ATOM      7  C   UNL     1      -3.169  -7.236  -0.022  0.00  0.00    +0.325 C 
BRANCH   7   8
ATOM      8  O   UNL     1      -3.596  -8.600  -0.028  0.00  0.00    -0.481 OA
BRANCH   8   9
ATOM      9  C   UNL     1      -2.624  -9.550  -0.037  0.00  0.00    +0.139 A 
ATOM     10  C   UNL     1      -1.288  -9.178  -0.042  0.00  0.00    +0.048 A 
ATOM     11  C   UNL     1      -0.302 -10.145  -0.052  0.00  0.00    +0.019 A 
ATOM     12  C   UNL     1      -0.645 -11.485  -0.057  0.00  0.00    +0.019 A 
ATOM     13  C   UNL     1      -1.977 -11.860  -0.053  0.00  0.00    +0.039 A 
ATOM     14  C   UNL     1      -2.967 -10.895  -0.037  0.00  0.00    +0.084 A 
ATOM     15 CL   UNL     1      -4.638 -11.366  -0.025  0.00  0.00    -0.080 Cl
ATOM     16 BR   UNL     1       0.708 -12.807  -0.072  0.00  0.00    -0.050 Br
ENDBRANCH   8   9
ENDBRANCH   7   8
ENDBRANCH   4   7
ENDBRANCH   1   3
BRANCH   1  17
ATOM     17  N   UNL     1      -5.133  -2.848   0.011  0.00  0.00    -0.245 N 
ATOM     18  H   UNL     1      -5.910  -2.267   0.018  0.00  0.00    +0.172 HD
BRANCH  17  21
ATOM     19  C   UNL     1      -3.685  -0.959   0.014  0.00  0.00    +0.267 C 
ATOM     20  O   UNL     1      -4.655  -0.232   0.023  0.00  0.00    -0.271 OA
ATOM     21  N   UNL     1      -3.845  -2.297   0.008  0.00  0.00    -0.232 N 
ATOM     22  H   UNL     1      -3.069  -2.879   0.001  0.00  0.00    +0.173 HD
BRANCH  19  23
ATOM     23  C   UNL     1      -2.299  -0.366   0.011  0.00  0.00    +0.326 C 
BRANCH  23  24
ATOM     24  O   UNL     1      -2.391   1.060   0.019  0.00  0.00    -0.483 OA
BRANCH  24  30
ATOM     25  C   UNL     1      -0.065   5.351   0.029  0.00  0.00    +0.044 C 
ATOM     26  C   UNL     1      -0.049   3.844   0.022  0.00  0.00    -0.047 A 
ATOM     27  C   UNL     1       1.156   3.166   0.007  0.00  0.00    +0.003 A 
ATOM     28  C   UNL     1       1.174   1.783   0.000  0.00  0.00    +0.004 A 
ATOM     29  C   UNL     1      -0.013   1.076   0.008  0.00  0.00    +0.045 A 
ATOM     30  C   UNL     1      -1.223   1.754   0.017  0.00  0.00    +0.121 A 
ATOM     31  C   UNL     1      -1.238   3.141   0.029  0.00  0.00    +0.049 A 
ENDBRANCH  24  30
ENDBRANCH  23  24
ENDBRANCH  19  23
ENDBRANCH  17  21
ENDBRANCH   1  17
TORSDOF 9
