REMARK  Name = ZINC16192912
REMARK  2 active torsions:
REMARK  status: ('A' for Active; 'I' for Inactive)
REMARK    1  A    between atoms: C_3  and  C_7
REMARK    2  A    between atoms: N_8  and  N_9
REMARK                            x       y       z     vdW  Elec       q    Type
REMARK                         _______ _______ _______ _____ _____    ______ ____
ROOT
ATOM      1  N   UNL     1      -2.143   0.595  -0.287  0.00  0.00    -0.127 N 
ATOM      2  C   UNL     1      -1.122   1.270  -0.922  0.00  0.00    +0.246 C 
ATOM      3  O   UNL     1      -1.141   1.853  -1.980  0.00  0.00    -0.273 OA
ATOM      4  C   UNL     1      -0.013   1.100   0.008  0.00  0.00    +0.097 C 
ATOM      5  C   UNL     1       1.454   1.356  -0.004  0.00  0.00    +0.027 C 
ATOM      6  C   UNL     1       1.864  -0.050   0.572  0.00  0.00    -0.026 C 
ATOM      7  C   UNL     1       1.291  -0.316   1.732  0.00  0.00    -0.026 C 
ATOM      8  C   UNL     1       0.331   0.670   2.383  0.00  0.00    +0.027 C 
ATOM      9  C   UNL     1      -0.697   1.200   1.387  0.00  0.00    +0.097 C 
ATOM     10  C   UNL     1      -1.859   0.290   1.015  0.00  0.00    +0.246 C 
ATOM     11  O   UNL     1      -2.406  -0.523   1.724  0.00  0.00    -0.273 OA
ATOM     12  C   UNL     1       1.282   1.919   2.546  0.00  0.00    +0.001 C 
ATOM     13  C   UNL     1       1.881   2.274   1.166  0.00  0.00    +0.001 C 
ATOM     14  C   UNL     1       0.891   3.204   1.825  0.00  0.00    +0.009 C 
ENDROOT
BRANCH   1  16
ATOM     15  C   UNL     1      -3.521   0.545  -2.177  0.00  0.00    +0.156 C 
ATOM     16  N   UNL     1      -3.325   0.216  -0.934  0.00  0.00    -0.176 NA
BRANCH  15  19
ATOM     17  C   UNL     1      -6.360  -0.140  -4.389  0.00  0.00    +0.019 A 
ATOM     18  C   UNL     1      -5.098   0.426  -4.160  0.00  0.00    +0.028 A 
ATOM     19  C   UNL     1      -4.759   0.147  -2.854  0.00  0.00    +0.059 A 
ATOM     20  N   UNL     1      -5.790  -0.576  -2.303  0.00  0.00    -0.360 N 
ATOM     21  H   UNL     1      -5.822  -0.912  -1.393  0.00  0.00    +0.165 HD
ATOM     22  C   UNL     1      -6.759  -0.740  -3.244  0.00  0.00    +0.083 A 
ENDBRANCH  15  19
ENDBRANCH   1  16
TORSDOF 2
