REMARK  Name = ZINC16650939
REMARK  7 active torsions:
REMARK  status: ('A' for Active; 'I' for Inactive)
REMARK    1  A    between atoms: C_1  and  C_2
REMARK    2  A    between atoms: C_2  and  C_3
REMARK    3  A    between atoms: C_3  and  C_4
REMARK    4  A    between atoms: C_5  and  C_26
REMARK    5  A    between atoms: C_15  and  C_25
REMARK    6  A    between atoms: C_18  and  C_24
REMARK    7  A    between atoms: C_20  and  C_23
REMARK                            x       y       z     vdW  Elec       q    Type
REMARK                         _______ _______ _______ _____ _____    ______ ____
ROOT
ATOM      1  C   UNL     1      -0.016   1.360   0.009  0.00  0.00    +0.038 A 
ATOM      2  C   UNL     1       0.002  -0.004   0.002  0.00  0.00    +0.050 A 
ATOM      3  N   UNL     1       1.163  -0.656  -0.012  0.00  0.00    -0.221 NA
ATOM      4  C   UNL     1       2.312  -0.011  -0.020  0.00  0.00    +0.202 A 
ATOM      5  N   UNL     1       2.355   1.349  -0.013  0.00  0.00    -0.295 N 
ATOM      6  H   UNL     1       3.210   1.808  -0.018  0.00  0.00    +0.172 HD
ATOM      7  C   UNL     1       1.206   2.056   0.002  0.00  0.00    +0.256 A 
ATOM      8  O   UNL     1       1.227   3.276   0.007  0.00  0.00    -0.267 OA
ATOM      9  N   UNL     1       3.485  -0.724  -0.034  0.00  0.00    -0.254 N 
ATOM     10  C   UNL     1       3.454  -2.110  -0.040  0.00  0.00    +0.222 A 
ATOM     11  N   UNL     1       2.272  -2.723  -0.032  0.00  0.00    -0.219 NA
ATOM     12  C   UNL     1       2.176  -4.036  -0.038  0.00  0.00    +0.051 A 
ATOM     13  C   UNL     1       3.361  -4.795  -0.053  0.00  0.00    +0.022 A 
ATOM     14  C   UNL     1       3.347  -6.197  -0.059  0.00  0.00    +0.015 A 
ATOM     15  C   UNL     1       4.526  -6.880  -0.073  0.00  0.00    -0.049 A 
ATOM     16  C   UNL     1       5.745  -6.205  -0.081  0.00  0.00    +0.008 A 
ATOM     17  C   UNL     1       5.795  -4.844  -0.075  0.00  0.00    -0.024 A 
ATOM     18  C   UNL     1       4.602  -4.107  -0.061  0.00  0.00    +0.079 A 
ATOM     19  N   UNL     1       4.596  -2.768  -0.059  0.00  0.00    -0.214 NA
ATOM     20  C   UNL     1       7.125  -4.135  -0.085  0.00  0.00    +0.046 C 
ATOM     21  C   UNL     1       4.511  -8.387  -0.081  0.00  0.00    +0.044 C 
ATOM     22  C   UNL     1       0.829  -4.711  -0.028  0.00  0.00    +0.066 C 
ATOM     23  C   UNL     1      -1.293  -0.774   0.010  0.00  0.00    +0.066 C 
ATOM     24  H   UNL     1       4.335  -0.257  -0.039  0.00  0.00    +0.158 HD
ENDROOT
BRANCH   1  25
ATOM     25  C   UNL     1      -1.324   2.109   0.020  0.00  0.00    +0.042 C 
BRANCH  25  27
ATOM     26  C   UNL     1      -3.026   3.223   1.471  0.00  0.00    +0.004 C 
ATOM     27  C   UNL     1      -1.698   2.463   1.461  0.00  0.00    +0.001 C 
ENDBRANCH  25  27
ENDBRANCH   1  25
TORSDOF 2
