REMARK  Name = ZINC17939991
REMARK  10 active torsions:
REMARK  status: ('A' for Active; 'I' for Inactive)
REMARK    1  A    between atoms: C_1  and  C_2
REMARK    2  A    between atoms: C_5  and  C_8
REMARK    3  A    between atoms: C_10  and  C_13
REMARK    4  A    between atoms: C_13  and  O_15
REMARK    5  A    between atoms: O_15  and  C_16
REMARK    6  A    between atoms: C_16  and  C_18
REMARK    7  A    between atoms: C_16  and  C_19
REMARK    8  A    between atoms: N_21  and  C_22
REMARK    9  A    between atoms: C_25  and  S_28
REMARK   10  A    between atoms: S_28  and  N_31
REMARK                            x       y       z     vdW  Elec       q    Type
REMARK                         _______ _______ _______ _____ _____    ______ ____
ROOT
ATOM      1  C   UNL     1       2.425  -4.236  -0.260  0.00  0.00    +0.259 C 
ATOM      2  C   UNL     1       1.892  -4.858   1.032  0.00  0.00    +0.062 C 
ENDROOT
BRANCH   1   3
ATOM      3  C   UNL     1       2.410  -2.734  -0.138  0.00  0.00    +0.258 C 
ATOM      4  O   UNL     1       3.452  -2.114  -0.144  0.00  0.00    -0.271 OA
ATOM      5  N   UNL     1       1.237  -2.079  -0.021  0.00  0.00    -0.282 N 
ATOM      6  H   UNL     1       0.409  -2.578   0.061  0.00  0.00    +0.155 HD
BRANCH   5   7
ATOM      7  C   UNL     1       1.214  -0.680  -0.019  0.00  0.00    +0.034 A 
ATOM      8  C   UNL     1       2.137   0.032  -0.773  0.00  0.00    +0.025 A 
ATOM      9  C   UNL     1       2.112   1.413  -0.768  0.00  0.00    +0.030 A 
ATOM     10  C   UNL     1       1.169   2.086  -0.013  0.00  0.00    +0.105 A 
ATOM     11  C   UNL     1       0.249   1.380   0.739  0.00  0.00    +0.030 A 
ATOM     12  C   UNL     1       0.269  -0.001   0.738  0.00  0.00    +0.025 A 
BRANCH  10  13
ATOM     13  S   UNL     1       1.141   3.848  -0.009  0.00  0.00    +0.056 S 
ATOM     14  O   UNL     1       0.513   4.241   1.203  0.00  0.00    -0.153 OA
ATOM     15  O   UNL     1       2.449   4.276  -0.363  0.00  0.00    -0.153 OA
BRANCH  13  16
ATOM     16  N   UNL     1       0.139   4.324  -1.238  0.00  0.00    -0.204 NA
ATOM     17  H   UNL     1      -0.357   5.155  -1.165  0.00  0.00    +0.144 HD
ATOM     18  H   UNL     1       0.048   3.773  -2.031  0.00  0.00    +0.144 HD
ENDBRANCH  13  16
ENDBRANCH  10  13
ENDBRANCH   5   7
ENDBRANCH   1   3
BRANCH   1  19
ATOM     19  O   UNL     1       3.785  -4.689  -0.490  0.00  0.00    -0.448 OA
BRANCH  19  20
ATOM     20  C   UNL     1       3.941  -5.817  -1.211  0.00  0.00    +0.359 C 
ATOM     21  O   UNL     1       2.966  -6.406  -1.636  0.00  0.00    -0.243 OA
BRANCH  20  24
ATOM     22  C   UNL     1       7.567  -6.177  -1.278  0.00  0.00    +0.109 A 
ATOM     23  N   UNL     1       6.362  -5.700  -1.032  0.00  0.00    -0.232 NA
ATOM     24  C   UNL     1       5.291  -6.335  -1.484  0.00  0.00    +0.155 A 
ATOM     25  C   UNL     1       5.465  -7.492  -2.223  0.00  0.00    +0.082 A 
ATOM     26  S   UNL     1       7.196  -7.637  -2.237  0.00  0.00    -0.075 S 
BRANCH  22  31
ATOM     27  C   UNL     1      12.690  -4.085   0.306  0.00  0.00    +0.044 C 
ATOM     28  C   UNL     1      11.348  -4.633  -0.109  0.00  0.00    -0.050 A 
ATOM     29  C   UNL     1      11.280  -5.792  -0.861  0.00  0.00    +0.004 A 
ATOM     30  C   UNL     1      10.055  -6.299  -1.244  0.00  0.00    +0.011 A 
ATOM     31  C   UNL     1       8.884  -5.639  -0.871  0.00  0.00    +0.007 A 
ATOM     32  C   UNL     1       8.959  -4.467  -0.118  0.00  0.00    +0.011 A 
ATOM     33  C   UNL     1      10.190  -3.974   0.264  0.00  0.00    +0.004 A 
ENDBRANCH  22  31
ENDBRANCH  20  24
ENDBRANCH  19  20
ENDBRANCH   1  19
TORSDOF 8
