REMARK  Name = ZINC38890040
REMARK  9 active torsions:
REMARK  status: ('A' for Active; 'I' for Inactive)
REMARK    1  A    between atoms: C_1  and  C_2
REMARK    2  A    between atoms: C_5  and  N_9
REMARK    3  A    between atoms: C_6  and  C_8
REMARK    4  A    between atoms: C_12  and  C_15
REMARK    5  A    between atoms: N_17  and  C_18
REMARK    6  A    between atoms: C_18  and  C_19
REMARK    7  A    between atoms: C_19  and  C_20
REMARK    8  A    between atoms: C_23  and  S_26
REMARK    9  A    between atoms: S_26  and  N_29
REMARK                            x       y       z     vdW  Elec       q    Type
REMARK                         _______ _______ _______ _____ _____    ______ ____
ROOT
ATOM      1  C   UNL     1      -0.336  -8.102  -2.880  0.00  0.00    +0.263 C 
ATOM      2  O   UNL     1      -0.418  -8.544  -4.010  0.00  0.00    -0.269 OA
ATOM      3  N   UNL     1      -0.344  -8.941  -1.825  0.00  0.00    -0.310 N 
ATOM      4  H   UNL     1      -0.279  -8.588  -0.924  0.00  0.00    +0.149 HD
ENDROOT
BRANCH   1   8
ATOM      5  N   UNL     1       0.058  -4.168  -0.021  0.00  0.00    -0.294 N 
ATOM      6  C   UNL     1      -0.043  -4.856  -1.220  0.00  0.00    +0.163 A 
ATOM      7  N   UNL     1      -0.140  -6.153  -1.429  0.00  0.00    -0.220 NA
ATOM      8  C   UNL     1      -0.230  -6.650  -2.664  0.00  0.00    +0.135 A 
ATOM      9  C   UNL     1      -0.222  -5.786  -3.731  0.00  0.00    +0.081 A 
ATOM     10  S   UNL     1      -0.086  -4.216  -2.887  0.00  0.00    -0.060 S 
ATOM     11  H   UNL     1      -0.039  -4.642   0.820  0.00  0.00    +0.154 HD
BRANCH   5  16
ATOM     12  C   UNL     1       1.042   1.417  -0.031  0.00  0.00    +0.044 C 
ATOM     13  C   UNL     1       0.780  -0.067  -0.028  0.00  0.00    -0.050 A 
ATOM     14  C   UNL     1       1.298  -0.860  -1.036  0.00  0.00    +0.005 A 
ATOM     15  C   UNL     1       1.061  -2.221  -1.036  0.00  0.00    +0.024 A 
ATOM     16  C   UNL     1       0.301  -2.792  -0.023  0.00  0.00    +0.036 A 
ATOM     17  C   UNL     1      -0.218  -1.992   0.987  0.00  0.00    -0.029 A 
ATOM     18  C   UNL     1       0.028  -0.633   0.985  0.00  0.00    +0.008 A 
ATOM     19  C   UNL     1      -1.043  -2.607   2.087  0.00  0.00    +0.045 C 
ENDBRANCH   5  16
ENDBRANCH   1   8
BRANCH   3  20
ATOM     20  C   UNL     1      -0.450 -10.386  -2.040  0.00  0.00    +0.109 C 
BRANCH  20  21
ATOM     21  C   UNL     1      -0.435 -11.105  -0.690  0.00  0.00    +0.054 C 
BRANCH  21  22
ATOM     22  C   UNL     1      -0.544 -12.591  -0.910  0.00  0.00    -0.046 A 
ATOM     23  C   UNL     1      -1.788 -13.193  -0.963  0.00  0.00    +0.005 A 
ATOM     24  C   UNL     1      -1.888 -14.557  -1.165  0.00  0.00    +0.029 A 
ATOM     25  C   UNL     1      -0.745 -15.319  -1.316  0.00  0.00    +0.105 A 
ATOM     26  C   UNL     1       0.499 -14.717  -1.265  0.00  0.00    +0.029 A 
ATOM     27  C   UNL     1       0.599 -13.353  -1.067  0.00  0.00    +0.005 A 
BRANCH  25  28
ATOM     28  S   UNL     1      -0.872 -17.057  -1.573  0.00  0.00    +0.056 S 
ATOM     29  O   UNL     1       0.357 -17.623  -1.140  0.00  0.00    -0.153 OA
ATOM     30  O   UNL     1      -2.126 -17.457  -1.036  0.00  0.00    -0.153 OA
BRANCH  28  31
ATOM     31  N   UNL     1      -0.957 -17.306  -3.208  0.00  0.00    -0.204 NA
ATOM     32  H   UNL     1      -0.607 -18.124  -3.594  0.00  0.00    +0.144 HD
ATOM     33  H   UNL     1      -1.358 -16.633  -3.781  0.00  0.00    +0.144 HD
ENDBRANCH  28  31
ENDBRANCH  25  28
ENDBRANCH  21  22
ENDBRANCH  20  21
ENDBRANCH   3  20
TORSDOF 7
