REMARK  Name = ZINC33912805
REMARK  11 active torsions:
REMARK  status: ('A' for Active; 'I' for Inactive)
REMARK    1  A    between atoms: C_1  and  C_2
REMARK    2  A    between atoms: C_2  and  C_3
REMARK    3  A    between atoms: C_2  and  C_4
REMARK    4  A    between atoms: C_2  and  N_5
REMARK    5  A    between atoms: C_10  and  C_28
REMARK    6  A    between atoms: C_13  and  C_18
REMARK    7  A    between atoms: C_13  and  C_25
REMARK    8  A    between atoms: C_18  and  C_19
REMARK    9  A    between atoms: C_31  and  O_36
REMARK   10  A    between atoms: C_32  and  O_34
REMARK   11  A    between atoms: O_34  and  C_35
REMARK                            x       y       z     vdW  Elec       q    Type
REMARK                         _______ _______ _______ _____ _____    ______ ____
ROOT
ATOM      1  N   UNL     1       1.723   0.581  -0.816  0.00  0.00    -0.236 N 
ATOM      2  C   UNL     1       0.704  -0.032  -1.502  0.00  0.00    +0.225 C 
ATOM      3  O   UNL     1      -0.489   0.122  -1.350  0.00  0.00    -0.275 OA
ATOM      4  C   UNL     1       1.369  -0.900  -2.445  0.00  0.00    +0.077 C 
ATOM      5  C   UNL     1       1.098  -1.629  -3.692  0.00  0.00    -0.027 C 
ATOM      6  N   UNL     1       2.458  -1.913  -4.259  0.00  0.00    +0.395 N 
ATOM      7  C   UNL     1       3.464  -1.228  -3.382  0.00  0.00    +0.048 C 
ATOM      8  C   UNL     1       2.647  -0.047  -2.817  0.00  0.00    +0.086 C 
ATOM      9  C   UNL     1       2.939   0.414  -1.415  0.00  0.00    +0.225 C 
ATOM     10  O   UNL     1       4.030   0.596  -0.920  0.00  0.00    -0.275 OA
ATOM     11  H   UNL     1       2.627  -2.908  -4.261  0.00  0.00    -0.083 HD
ATOM     12  H   UNL     1       2.520  -1.551  -5.198  0.00  0.00    -0.083 HD
ENDROOT
BRANCH   5  13
ATOM     13  C   UNL     1       0.298  -0.774  -4.640  0.00  0.00    -0.057 A 
ATOM     14  C   UNL     1       0.931   0.190  -5.402  0.00  0.00    +0.006 A 
ATOM     15  C   UNL     1       0.201   0.977  -6.273  0.00  0.00    +0.049 A 
ATOM     16  C   UNL     1      -1.169   0.800  -6.383  0.00  0.00    +0.158 A 
ATOM     17  C   UNL     1      -1.807  -0.170  -5.616  0.00  0.00    +0.161 A 
ATOM     18  C   UNL     1      -1.068  -0.959  -4.749  0.00  0.00    +0.051 A 
BRANCH  17  19
ATOM     19  O   UNL     1      -3.151  -0.346  -5.721  0.00  0.00    -0.491 OA
ATOM     20  C   UNL     1      -3.738  -1.361  -4.903  0.00  0.00    +0.277 C 
ENDBRANCH  17  19
BRANCH  16  21
ATOM     21  O   UNL     1      -1.889   1.574  -7.239  0.00  0.00    -0.503 OA
ATOM     22  H   UNL     1      -1.969   1.206  -8.130  0.00  0.00    +0.292 HD
ENDBRANCH  16  21
ENDBRANCH   5  13
BRANCH   1  24
ATOM     23  C   UNL     1       1.980   2.784   0.214  0.00  0.00    +0.031 C 
ATOM     24  C   UNL     1       1.527   1.338   0.423  0.00  0.00    +0.036 C 
ATOM     25  C   UNL     1       2.350   0.703   1.545  0.00  0.00    +0.031 C 
ATOM     26  C   UNL     1       0.045   1.318   0.803  0.00  0.00    +0.031 C 
ENDBRANCH   1  24
BRANCH   7  27
ATOM     27  C   UNL     1       4.626  -0.723  -4.197  0.00  0.00    +0.346 C 
ATOM     28  O   UNL     1       4.661  -0.923  -5.399  0.00  0.00    -0.248 OA
ATOM     29  O   UNL     1       5.532  -0.114  -3.655  0.00  0.00    -0.248 OA
ENDBRANCH   7  27
BRANCH   7  30
ATOM     30  C   UNL     1       3.944  -2.167  -2.273  0.00  0.00    +0.003 C 
BRANCH  30  31
ATOM     31  C   UNL     1       4.994  -3.126  -2.837  0.00  0.00    -0.012 C 
ATOM     32  C   UNL     1       4.360  -3.994  -3.925  0.00  0.00    +0.003 C 
ATOM     33  C   UNL     1       5.410  -4.954  -4.489  0.00  0.00    +0.000 C 
ATOM     34  C   UNL     1       5.938  -5.849  -3.365  0.00  0.00    +0.000 C 
ATOM     35  C   UNL     1       6.572  -4.981  -2.277  0.00  0.00    +0.000 C 
ATOM     36  C   UNL     1       5.522  -4.021  -1.713  0.00  0.00    +0.003 C 
ENDBRANCH  30  31
ENDBRANCH   7  30
TORSDOF 7
