REMARK  Name = ZINC39469762
REMARK  8 active torsions:
REMARK  status: ('A' for Active; 'I' for Inactive)
REMARK    1  A    between atoms: C_1  and  C_2
REMARK    2  A    between atoms: C_2  and  O_3
REMARK    3  A    between atoms: O_3  and  C_4
REMARK    4  A    between atoms: P_13  and  S_29
REMARK    5  A    between atoms: C_21  and  C_22
REMARK    6  A    between atoms: C_27  and  O_28
REMARK    7  A    between atoms: S_29  and  O_32
REMARK    8  A    between atoms: O_32  and  C_33
REMARK                            x       y       z     vdW  Elec       q    Type
REMARK                         _______ _______ _______ _____ _____    ______ ____
ROOT
ATOM      1  C   UNL     1       0.777  -1.810  -1.336  0.00  0.00    +0.124 C 
ATOM      2  C   UNL     1       0.265  -2.641  -0.426  0.00  0.00    +0.023 C 
ATOM      3  C   UNL     1       0.401  -4.127  -0.617  0.00  0.00    +0.019 C 
ATOM      4  C   UNL     1       0.283  -4.852   0.718  0.00  0.00    -0.002 C 
ATOM      5  C   UNL     1       1.450  -4.482   1.642  0.00  0.00    -0.020 C 
ATOM      6  C   UNL     1       1.264  -5.276   2.941  0.00  0.00    +0.158 C 
ATOM      7  O   UNL     1       2.307  -4.931   3.870  0.00  0.00    -0.301 OA
ATOM      8  P   UNL     1       3.843  -4.983   3.334  0.00  0.00    +0.431 P 
ATOM      9  O   UNL     1       4.342  -6.376   3.340  0.00  0.00    -0.246 OA
ATOM     10  N   UNL     1       3.781  -4.404   1.789  0.00  0.00    -0.271 NA
ATOM     11  N   UNL     1       2.725  -4.803   0.997  0.00  0.00    +0.398 N 
ATOM     12  C   UNL     1       2.864  -4.060  -0.265  0.00  0.00    -0.046 C 
ATOM     13  C   UNL     1       1.768  -4.444  -1.232  0.00  0.00    +0.005 C 
ATOM     14  C   UNL     1       1.942  -3.620  -2.486  0.00  0.00    -0.013 C 
ATOM     15  C   UNL     1       1.456  -2.368  -2.528  0.00  0.00    +0.023 C 
ATOM     16  H   UNL     1       4.466  -3.806   1.451  0.00  0.00    +0.113 HD
ATOM     17  H   UNL     1       2.779  -5.797   0.828  0.00  0.00    -0.055 HD
ENDROOT
BRANCH  15  18
ATOM     18  C   UNL     1       1.603  -1.549  -3.756  0.00  0.00    +0.027 A 
ATOM     19  C   UNL     1       0.796  -1.800  -4.864  0.00  0.00    +0.012 A 
ATOM     20  C   UNL     1       0.936  -1.035  -6.004  0.00  0.00    +0.001 A 
ATOM     21  C   UNL     1       1.875  -0.019  -6.051  0.00  0.00    +0.004 A 
ATOM     22  C   UNL     1       2.680   0.238  -4.958  0.00  0.00    +0.046 A 
ATOM     23  C   UNL     1       2.546  -0.519  -3.804  0.00  0.00    +0.125 A 
BRANCH  23  24
ATOM     24  O   UNL     1       3.333  -0.264  -2.727  0.00  0.00    -0.506 OA
ATOM     25  H   UNL     1       4.165  -0.757  -2.722  0.00  0.00    +0.292 HD
ENDBRANCH  23  24
ENDBRANCH  15  18
BRANCH   8  26
ATOM     26  S   UNL     1       5.083  -3.753   4.535  0.00  0.00    +0.209 S 
ATOM     27  O   UNL     1       6.417  -3.967   4.094  0.00  0.00    -0.126 OA
ATOM     28  O   UNL     1       4.484  -2.465   4.553  0.00  0.00    -0.126 OA
BRANCH  26  29
ATOM     29  O   UNL     1       5.005  -4.289   5.958  0.00  0.00    -0.339 OA
BRANCH  29  30
ATOM     30  C   UNL     1       5.705  -5.436   6.156  0.00  0.00    +0.157 A 
ATOM     31  C   UNL     1       5.095  -6.666   5.956  0.00  0.00    +0.048 A 
ATOM     32  C   UNL     1       5.809  -7.831   6.158  0.00  0.00    +0.004 A 
ATOM     33  C   UNL     1       7.131  -7.772   6.559  0.00  0.00    +0.000 A 
ATOM     34  C   UNL     1       7.742  -6.548   6.759  0.00  0.00    +0.004 A 
ATOM     35  C   UNL     1       7.034  -5.380   6.553  0.00  0.00    +0.048 A 
ENDBRANCH  29  30
ENDBRANCH  26  29
ENDBRANCH   8  26
BRANCH   1  36
ATOM     36  O   UNL     1       0.671  -0.465  -1.174  0.00  0.00    -0.492 OA
BRANCH  36  38
ATOM     37  C   UNL     1      -0.019   1.526   0.010  0.00  0.00    +0.048 C 
ATOM     38  C   UNL     1       0.002  -0.004   0.002  0.00  0.00    +0.225 C 
ENDBRANCH  36  38
ENDBRANCH   1  36
TORSDOF 7
