REMARK  Name = ZINC03596853
REMARK  6 active torsions:
REMARK  status: ('A' for Active; 'I' for Inactive)
REMARK    1  A    between atoms: C_1  and  C_2
REMARK    2  A    between atoms: C_2  and  C_3
REMARK    3  A    between atoms: C_2  and  N_4
REMARK    4  A    between atoms: C_8  and  C_10
REMARK    5  A    between atoms: C_10  and  O_11
REMARK    6  A    between atoms: O_11  and  C_12
REMARK                            x       y       z     vdW  Elec       q    Type
REMARK                         _______ _______ _______ _____ _____    ______ ____
ROOT
ATOM      1  O   UNL     1      -0.017   1.425   0.010  0.00  0.00    -0.466 OA
ENDROOT
BRANCH   1   2
ATOM      2  C   UNL     1       1.180   2.055   0.002  0.00  0.00    +0.226 A 
ATOM      3  C   UNL     1       1.256   3.467   0.009  0.00  0.00    +0.065 A 
ATOM      4  C   UNL     1       0.113   4.275   0.024  0.00  0.00    +0.035 A 
ATOM      5  C   UNL     1       0.248   5.633   0.030  0.00  0.00    +0.043 A 
ATOM      6  C   UNL     1       1.509   6.226   0.021  0.00  0.00    +0.042 A 
ATOM      7  C   UNL     1       2.643   5.467   0.006  0.00  0.00    +0.068 A 
ATOM      8  C   UNL     1       2.539   4.068   0.000  0.00  0.00    +0.096 A 
ATOM      9  N   UNL     1       3.621   3.276  -0.014  0.00  0.00    -0.234 NA
ATOM     10  C   UNL     1       3.489   1.971  -0.020  0.00  0.00    +0.225 A 
ATOM     11  N   UNL     1       2.310   1.367  -0.007  0.00  0.00    -0.201 NA
ATOM     12 CL   UNL     1       4.203   6.228  -0.005  0.00  0.00    -0.081 Cl
ATOM     13 CL   UNL     1      -1.169   6.635   0.049  0.00  0.00    -0.083 Cl
ENDBRANCH   1   2
BRANCH   1  14
ATOM     14  C   UNL     1       0.002  -0.004   0.002  0.00  0.00    +0.326 C 
BRANCH  14  19
ATOM     15  N   UNL     1      -3.133  -3.649   0.012  0.00  0.00    -0.297 N 
ATOM     16  C   UNL     1      -2.904  -2.321   0.017  0.00  0.00    +0.306 C 
ATOM     17  O   UNL     1      -3.839  -1.543   0.030  0.00  0.00    -0.252 OA
ATOM     18  N   UNL     1      -1.640  -1.854   0.008  0.00  0.00    -0.237 N 
ATOM     19  C   UNL     1      -1.412  -0.526   0.013  0.00  0.00    +0.258 C 
ATOM     20  O   UNL     1      -2.344   0.249   0.026  0.00  0.00    -0.272 OA
ATOM     21  H   UNL     1      -2.387  -4.269   0.002  0.00  0.00    +0.151 HD
ATOM     22  H   UNL     1      -0.894  -2.474  -0.003  0.00  0.00    +0.159 HD
BRANCH  15  24
ATOM     23  C   UNL     1      -4.539  -5.556  -0.594  0.00  0.00    +0.027 C 
ATOM     24  C   UNL     1      -4.507  -4.156   0.023  0.00  0.00    +0.068 C 
ATOM     25  C   UNL     1      -5.015  -4.222   1.464  0.00  0.00    +0.027 C 
ENDBRANCH  15  24
ENDBRANCH  14  19
ENDBRANCH   1  14
TORSDOF 4
