REMARK  Name = ZINC66206592
REMARK  7 active torsions:
REMARK  status: ('A' for Active; 'I' for Inactive)
REMARK    1  A    between atoms: C_1  and  S_2
REMARK    2  A    between atoms: S_2  and  C_3
REMARK    3  A    between atoms: C_6  and  N_9
REMARK    4  A    between atoms: C_10  and  C_12
REMARK    5  A    between atoms: N_14  and  C_15
REMARK    6  A    between atoms: C_15  and  C_16
REMARK    7  A    between atoms: C_16  and  N_22
REMARK                            x       y       z     vdW  Elec       q    Type
REMARK                         _______ _______ _______ _____ _____    ______ ____
ROOT
ATOM      1  C   UNL     1       3.699  -1.741   9.328  0.00  0.00    +0.299 C 
ATOM      2  O   UNL     1       4.053  -2.212   8.267  0.00  0.00    -0.265 OA
ATOM      3  N   UNL     1       4.096  -0.502   9.682  0.00  0.00    -0.309 N 
ATOM      4  H   UNL     1       3.813  -0.126  10.530  0.00  0.00    +0.149 HD
ENDROOT
BRANCH   1   6
ATOM      5  N   UNL     1       2.428  -3.773   9.890  0.00  0.00    -0.276 N 
ATOM      6  C   UNL     1       2.825  -2.534  10.243  0.00  0.00    +0.303 C 
ATOM      7  O   UNL     1       2.471  -2.063  11.305  0.00  0.00    -0.265 OA
ATOM      8  H   UNL     1       2.777  -4.182   9.082  0.00  0.00    +0.155 HD
BRANCH   5  12
ATOM      9  C   UNL     1      -0.240  -5.893  12.212  0.00  0.00    +0.097 A 
ATOM     10  C   UNL     1      -0.273  -4.503  12.269  0.00  0.00    +0.036 A 
ATOM     11  C   UNL     1       0.614  -3.775  11.498  0.00  0.00    +0.027 A 
ATOM     12  C   UNL     1       1.513  -4.468  10.687  0.00  0.00    +0.052 A 
ATOM     13  C   UNL     1       1.488  -5.855  10.681  0.00  0.00    +0.135 A 
ATOM     14  N   UNL     1       0.631  -6.518  11.434  0.00  0.00    -0.247 NA
BRANCH   9  16
ATOM     15  C   UNL     1      -0.952  -8.556  12.801  0.00  0.00    +0.091 C 
ATOM     16  S   UNL     1      -1.365  -6.833  13.190  0.00  0.00    -0.109 S 
ENDBRANCH   9  16
ENDBRANCH   5  12
ENDBRANCH   1   6
BRANCH   3  17
ATOM     17  C   UNL     1       4.954   0.276   8.784  0.00  0.00    +0.093 C 
BRANCH  17  18
ATOM     18  C   UNL     1       5.357   1.583   9.470  0.00  0.00    -0.050 C 
ATOM     19  C   UNL     1       6.244   2.400   8.530  0.00  0.00    -0.010 C 
ATOM     20  C   UNL     1       7.500   1.596   8.186  0.00  0.00    -0.001 C 
ATOM     21  C   UNL     1       8.271   1.281   9.469  0.00  0.00    -0.000 C 
ATOM     22  C   UNL     1       7.384   0.464  10.410  0.00  0.00    -0.001 C 
ATOM     23  C   UNL     1       6.128   1.268  10.754  0.00  0.00    -0.010 C 
BRANCH  18  24
ATOM     24  N   UNL     1       4.151   2.354   9.801  0.00  0.00    +0.384 N 
ATOM     25  C   UNL     1       3.350   2.551   8.586  0.00  0.00    -0.078 C 
ATOM     26  C   UNL     1       2.054   3.284   8.939  0.00  0.00    -0.019 C 
ATOM     27  C   UNL     1       2.395   4.645   9.554  0.00  0.00    -0.004 C 
ATOM     28  C   UNL     1       3.292   4.431  10.776  0.00  0.00    -0.019 C 
ATOM     29  C   UNL     1       4.542   3.656  10.356  0.00  0.00    -0.078 C 
ATOM     30  H   UNL     1       3.606   1.849  10.483  0.00  0.00    -0.081 HD
ENDBRANCH  18  24
ENDBRANCH  17  18
ENDBRANCH   3  17
TORSDOF 6
