REMARK  Name = ZINC13310847
REMARK  7 active torsions:
REMARK  status: ('A' for Active; 'I' for Inactive)
REMARK    1  A    between atoms: C_1  and  S_2
REMARK    2  A    between atoms: S_2  and  C_5
REMARK    3  A    between atoms: C_8  and  N_14
REMARK    4  A    between atoms: C_9  and  N_11
REMARK    5  A    between atoms: N_17  and  S_20
REMARK    6  A    between atoms: S_20  and  C_23
REMARK    7  A    between atoms: C_27  and  C_29
REMARK                            x       y       z     vdW  Elec       q    Type
REMARK                         _______ _______ _______ _____ _____    ______ ____
ROOT
ATOM      1  N   UNL     1       2.401   1.108  -0.015  0.00  0.00    -0.326 N 
ATOM      2  C   UNL     1       2.559   0.340  -1.257  0.00  0.00    +0.122 C 
ATOM      3  C   UNL     1       3.976  -0.241  -1.317  0.00  0.00    +0.128 C 
ATOM      4  N   UNL     1       4.223  -0.999  -0.081  0.00  0.00    -0.174 NA
ATOM      5  C   UNL     1       3.955  -0.338   1.205  0.00  0.00    +0.128 C 
ATOM      6  C   UNL     1       2.539   0.246   1.166  0.00  0.00    +0.122 C 
ENDROOT
BRANCH   1  10
ATOM      7  C   UNL     1      -1.237   3.134   0.031  0.00  0.00    +0.090 A 
ATOM      8  C   UNL     1      -1.217   1.751   0.017  0.00  0.00    +0.029 A 
ATOM      9  C   UNL     1      -0.013   1.076   0.008  0.00  0.00    +0.027 A 
ATOM     10  C   UNL     1       1.181   1.788   0.000  0.00  0.00    +0.060 A 
ATOM     11  C   UNL     1       1.157   3.176   0.008  0.00  0.00    +0.149 A 
ATOM     12  C   UNL     1      -0.051   3.845   0.023  0.00  0.00    +0.061 A 
BRANCH   7  14
ATOM     13  C   UNL     1      -3.200   4.227  -1.698  0.00  0.00    +0.200 C 
ATOM     14  S   UNL     1      -2.776   3.991   0.050  0.00  0.00    -0.006 S 
ATOM     15  O   UNL     1      -3.688   3.085   0.657  0.00  0.00    -0.170 OA
ATOM     16  O   UNL     1      -2.486   5.242   0.657  0.00  0.00    -0.170 OA
ENDBRANCH   7  14
BRANCH  11  17
ATOM     17  N   UNL     1       2.426   3.939   0.001  0.00  0.00    +0.058 N 
ATOM     18  O   UNL     1       2.405   5.156   0.007  0.00  0.00    -0.126 OA
ATOM     19  O   UNL     1       3.491   3.348  -0.012  0.00  0.00    -0.126 OA
ENDBRANCH  11  17
ENDBRANCH   1  10
BRANCH   4  20
ATOM     20  S   UNL     1       4.790  -2.554  -0.136  0.00  0.00    +0.061 S 
ATOM     21  O   UNL     1       5.457  -2.699  -1.383  0.00  0.00    -0.153 OA
ATOM     22  O   UNL     1       5.436  -2.795   1.106  0.00  0.00    -0.153 OA
BRANCH  20  23
ATOM     23  C   UNL     1       3.386  -3.618  -0.189  0.00  0.00    +0.106 A 
ATOM     24  C   UNL     1       2.830  -4.085   0.990  0.00  0.00    +0.031 A 
ATOM     25  C   UNL     1       1.726  -4.916   0.960  0.00  0.00    +0.041 A 
ATOM     26  C   UNL     1       1.175  -5.295  -0.251  0.00  0.00    +0.138 A 
ATOM     27  C   UNL     1       1.736  -4.830  -1.445  0.00  0.00    +0.100 A 
ATOM     28  C   UNL     1       2.849  -3.987  -1.404  0.00  0.00    +0.046 A 
ATOM     29  F   UNL     1       0.099  -6.111  -0.280  0.00  0.00    -0.205 F 
BRANCH  27  30
ATOM     30  C   UNL     1       1.156  -5.229  -2.742  0.00  0.00    +0.389 C 
ATOM     31  O   UNL     1       0.188  -5.963  -2.774  0.00  0.00    -0.240 OA
ATOM     32  O   UNL     1       1.699  -4.779  -3.890  0.00  0.00    -0.240 OA
ENDBRANCH  27  30
ENDBRANCH  20  23
ENDBRANCH   4  20
TORSDOF 6
