REMARK  Name = ZINC21239931
REMARK  8 active torsions:
REMARK  status: ('A' for Active; 'I' for Inactive)
REMARK    1  A    between atoms: C_1  and  C_2
REMARK    2  A    between atoms: C_2  and  O_3
REMARK    3  A    between atoms: O_3  and  C_4
REMARK    4  A    between atoms: C_7  and  C_13
REMARK    5  A    between atoms: C_9  and  O_10
REMARK    6  A    between atoms: O_10  and  C_11
REMARK    7  A    between atoms: C_11  and  C_12
REMARK    8  A    between atoms: C_18  and  C_23
REMARK                            x       y       z     vdW  Elec       q    Type
REMARK                         _______ _______ _______ _____ _____    ______ ____
ROOT
ATOM      1  C   UNL     1       4.972   4.048  -0.023  0.00  0.00    +0.136 C 
ATOM      2  C   UNL     1       5.408   4.262   1.406  0.00  0.00    +0.036 C 
ATOM      3  C   UNL     1       6.420   3.628   2.026  0.00  0.00    +0.017 C 
ATOM      4  C   UNL     1       6.763   3.950   3.470  0.00  0.00    +0.059 C 
ATOM      5  C   UNL     1       5.499   4.343   4.233  0.00  0.00    +0.032 C 
ATOM      6  C   UNL     1       4.897   5.570   3.539  0.00  0.00    +0.088 C 
ATOM      7  C   UNL     1       4.642   5.227   2.102  0.00  0.00    +0.163 C 
ATOM      8  O   UNL     1       3.745   5.798   1.513  0.00  0.00    -0.292 OA
ATOM      9  N   UNL     1       7.213   2.692   1.446  0.00  0.00    -0.316 N 
ATOM     10  C   UNL     1       6.758   1.625   0.679  0.00  0.00    +0.052 A 
ATOM     11  C   UNL     1       6.965   0.308   1.048  0.00  0.00    +0.025 A 
ATOM     12  C   UNL     1       6.590  -0.706   0.182  0.00  0.00    +0.002 A 
ATOM     13  C   UNL     1       6.015  -0.403  -1.039  0.00  0.00    +0.002 A 
ATOM     14  C   UNL     1       5.787   0.914  -1.399  0.00  0.00    +0.025 A 
ATOM     15  C   UNL     1       6.144   1.929  -0.526  0.00  0.00    +0.049 A 
ATOM     16  N   UNL     1       5.892   3.268  -0.823  0.00  0.00    -0.331 N 
ATOM     17  H   UNL     1       8.305   2.744   1.568  0.00  0.00    +0.152 HD
ATOM     18  H   UNL     1       6.404   3.731  -1.680  0.00  0.00    +0.147 HD
ENDROOT
BRANCH   1  22
ATOM     19  C   UNL     1       1.185   2.059   0.004  0.00  0.00    +0.162 A 
ATOM     20  C   UNL     1       2.311   1.419   0.497  0.00  0.00    +0.050 A 
ATOM     21  C   UNL     1       3.534   2.064   0.487  0.00  0.00    +0.009 A 
ATOM     22  C   UNL     1       3.637   3.349  -0.015  0.00  0.00    -0.019 A 
ATOM     23  C   UNL     1       2.518   3.993  -0.508  0.00  0.00    +0.055 A 
ATOM     24  C   UNL     1       1.290   3.350  -0.506  0.00  0.00    +0.162 A 
BRANCH  19  25
ATOM     25  O   UNL     1      -0.018   1.426   0.014  0.00  0.00    -0.489 OA
BRANCH  25  27
ATOM     26  C   UNL     1      -1.477  -0.445   0.474  0.00  0.00    +0.048 C 
ATOM     27  C   UNL     1      -0.049   0.101   0.547  0.00  0.00    +0.226 C 
ENDBRANCH  25  27
ENDBRANCH  19  25
BRANCH  24  28
ATOM     28  O   UNL     1       0.190   3.980  -0.996  0.00  0.00    -0.489 OA
BRANCH  28  29
ATOM     29  C   UNL     1       0.372   5.304  -1.504  0.00  0.00    +0.226 C 
ATOM     30  C   UNL     1      -0.967   5.846  -2.007  0.00  0.00    +0.048 C 
ENDBRANCH  28  29
ENDBRANCH  24  28
ENDBRANCH   1  22
BRANCH   5  31
ATOM     31  C   UNL     1       5.848   4.682   5.659  0.00  0.00    -0.044 A 
ATOM     32  C   UNL     1       6.733   5.710   5.928  0.00  0.00    +0.004 A 
ATOM     33  C   UNL     1       7.049   6.025   7.237  0.00  0.00    +0.000 A 
ATOM     34  C   UNL     1       6.489   5.306   8.275  0.00  0.00    +0.000 A 
ATOM     35  C   UNL     1       5.608   4.274   8.006  0.00  0.00    +0.000 A 
ATOM     36  C   UNL     1       5.288   3.963   6.698  0.00  0.00    +0.004 A 
ENDBRANCH   5  31
TORSDOF 6
