REMARK  Name = ZINC64860273
REMARK  10 active torsions:
REMARK  status: ('A' for Active; 'I' for Inactive)
REMARK    1  A    between atoms: C_1  and  C_2
REMARK    2  A    between atoms: C_2  and  N_3
REMARK    3  A    between atoms: N_3  and  C_4
REMARK    4  A    between atoms: N_3  and  C_6
REMARK    5  A    between atoms: C_4  and  C_5
REMARK    6  A    between atoms: C_6  and  C_7
REMARK    7  A    between atoms: C_7  and  N_8
REMARK    8  A    between atoms: C_9  and  C_11
REMARK    9  A    between atoms: C_21  and  S_24
REMARK   10  A    between atoms: S_24  and  C_25
REMARK                            x       y       z     vdW  Elec       q    Type
REMARK                         _______ _______ _______ _____ _____    ______ ____
ROOT
ATOM      1  C   UNL     1       3.536  -5.370  -1.377  0.00  0.00    +0.092 C 
ATOM      2  C   UNL     1       4.386  -5.617  -2.626  0.00  0.00    +0.016 C 
ATOM      3  C   UNL     1       4.786  -7.093  -2.689  0.00  0.00    +0.020 C 
ATOM      4  C   UNL     1       3.524  -7.956  -2.784  0.00  0.00    +0.106 C 
ATOM      5  N   UNL     1       2.635  -7.619  -1.664  0.00  0.00    -0.313 N 
ATOM      6  C   UNL     1       2.260  -6.214  -1.456  0.00  0.00    +0.119 C 
ATOM      7  C   UNL     1       2.156  -8.614  -0.813  0.00  0.00    +0.144 A 
ATOM      8  C   UNL     1       2.679  -9.906  -0.884  0.00  0.00    +0.048 A 
ATOM      9  C   UNL     1       2.173 -10.860  -0.020  0.00  0.00    +0.040 A 
ATOM     10  C   UNL     1       1.170 -10.470   0.870  0.00  0.00    +0.124 A 
ATOM     11  N   UNL     1       0.735  -9.220   0.866  0.00  0.00    -0.141 NA
ATOM     12  N   UNL     1       1.209  -8.334   0.067  0.00  0.00    -0.133 NA
ENDROOT
BRANCH   1  14
ATOM     13  N   UNL     1       2.417  -3.458  -0.276  0.00  0.00    -0.317 N 
ATOM     14  C   UNL     1       3.169  -3.910  -1.299  0.00  0.00    +0.218 C 
ATOM     15  O   UNL     1       3.551  -3.142  -2.156  0.00  0.00    -0.275 OA
ATOM     16  H   UNL     1       2.112  -4.072   0.410  0.00  0.00    +0.149 HD
BRANCH  13  17
ATOM     17  C   UNL     1       2.061  -2.039  -0.200  0.00  0.00    +0.085 C 
BRANCH  17  18
ATOM     18  C   UNL     1       1.210  -1.793   1.048  0.00  0.00    -0.060 C 
BRANCH  18  19
ATOM     19  N   UNL     1       0.853  -0.370   1.124  0.00  0.00    +0.380 N 
ATOM     20  H   UNL     1       1.692   0.189   1.093  0.00  0.00    -0.082 HD
BRANCH  19  22
ATOM     21  C   UNL     1      -0.268   1.487  -0.012  0.00  0.00    -0.017 C 
ATOM     22  C   UNL     1      -0.012  -0.021  -0.011  0.00  0.00    -0.082 C 
ENDBRANCH  19  22
BRANCH  19  23
ATOM     23  C   UNL     1       0.139  -0.112   2.382  0.00  0.00    -0.082 C 
ATOM     24  C   UNL     1       1.086  -0.337   3.562  0.00  0.00    -0.017 C 
ENDBRANCH  19  23
ENDBRANCH  18  19
ENDBRANCH  17  18
ENDBRANCH  13  17
ENDBRANCH   1  14
BRANCH  10  25
ATOM     25  S   UNL     1       0.484 -11.639   1.996  0.00  0.00    -0.068 S 
BRANCH  25  26
ATOM     26  C   UNL     1      -0.816 -10.755   2.790  0.00  0.00    +0.014 A 
ATOM     27  C   UNL     1      -2.119 -10.857   2.316  0.00  0.00    +0.016 A 
ATOM     28  C   UNL     1      -3.136 -10.163   2.941  0.00  0.00    +0.016 A 
ATOM     29  C   UNL     1      -2.859  -9.366   4.038  0.00  0.00    +0.018 A 
ATOM     30  C   UNL     1      -1.563  -9.262   4.512  0.00  0.00    +0.016 A 
ATOM     31  C   UNL     1      -0.543  -9.958   3.895  0.00  0.00    +0.016 A 
ATOM     32 BR   UNL     1      -4.255  -8.417   4.891  0.00  0.00    -0.050 Br
ENDBRANCH  25  26
ENDBRANCH  10  25
TORSDOF 8
