REMARK  Name = ZINC13306244
REMARK  5 active torsions:
REMARK  status: ('A' for Active; 'I' for Inactive)
REMARK    1  A    between atoms: N_16  and  C_17
REMARK    2  A    between atoms: C_17  and  C_19
REMARK    3  A    between atoms: C_23  and  S_25
REMARK    4  A    between atoms: S_25  and  N_28
REMARK    5  A    between atoms: N_28  and  C_29
REMARK                            x       y       z     vdW  Elec       q    Type
REMARK                         _______ _______ _______ _____ _____    ______ ____
ROOT
ATOM      1  C   UNL     1      -0.807  -2.373   0.253  0.00  0.00    +0.269 C 
ATOM      2  O   UNL     1      -1.499  -1.597   0.889  0.00  0.00    -0.268 OA
ENDROOT
BRANCH   1  18
ATOM      3  C   UNL     1       3.376   0.656  -3.364  0.00  0.00    +0.000 A 
ATOM      4  C   UNL     1       2.629  -0.475  -3.638  0.00  0.00    +0.001 A 
ATOM      5  C   UNL     1       1.645  -0.884  -2.763  0.00  0.00    +0.012 A 
ATOM      6  C   UNL     1       1.401  -0.155  -1.594  0.00  0.00    +0.022 A 
ATOM      7  C   UNL     1       2.168   0.972  -1.318  0.00  0.00    -0.019 A 
ATOM      8  C   UNL     1       3.145   1.377  -2.207  0.00  0.00    +0.006 A 
ATOM      9  C   UNL     1       1.957   1.738  -0.044  0.00  0.00    +0.147 C 
ATOM     10  N   UNL     1       0.609   2.298   0.017  0.00  0.00    -0.287 N 
ATOM     11  C   UNL     1       0.482   3.648   0.029  0.00  0.00    +0.077 C 
ATOM     12  C   UNL     1      -0.731   4.240   0.127  0.00  0.00    +0.015 C 
ATOM     13  C   UNL     1      -1.884   3.452   0.208  0.00  0.00    +0.005 C 
ATOM     14  C   UNL     1      -1.766   2.094   0.175  0.00  0.00    +0.044 C 
ATOM     15  C   UNL     1      -0.490   1.502   0.071  0.00  0.00    +0.128 C 
ATOM     16  N   UNL     1      -0.434   0.178   0.025  0.00  0.00    -0.215 NA
ATOM     17  C   UNL     1       0.336  -0.591  -0.678  0.00  0.00    +0.155 C 
ATOM     18  N   UNL     1       0.144  -1.908  -0.560  0.00  0.00    -0.157 NA
ENDBRANCH   1  18
BRANCH   1  19
ATOM     19  C   UNL     1      -1.020  -3.833   0.384  0.00  0.00    +0.041 A 
ATOM     20  C   UNL     1      -0.229  -4.724  -0.342  0.00  0.00    +0.013 A 
ATOM     21  C   UNL     1      -0.433  -6.083  -0.215  0.00  0.00    +0.003 A 
ATOM     22  C   UNL     1      -1.419  -6.562   0.629  0.00  0.00    +0.029 A 
ATOM     23  C   UNL     1      -2.206  -5.684   1.351  0.00  0.00    +0.109 A 
ATOM     24  C   UNL     1      -2.008  -4.322   1.238  0.00  0.00    +0.042 A 
BRANCH  23  25
ATOM     25  S   UNL     1      -3.459  -6.304   2.423  0.00  0.00    +0.072 S 
ATOM     26  O   UNL     1      -4.419  -5.265   2.570  0.00  0.00    -0.150 OA
ATOM     27  O   UNL     1      -3.803  -7.596   1.942  0.00  0.00    -0.150 OA
BRANCH  25  28
ATOM     28  N   UNL     1      -2.767  -6.522   3.911  0.00  0.00    -0.215 N 
ATOM     29  H   UNL     1      -2.745  -7.405   4.311  0.00  0.00    +0.174 HD
BRANCH  28  30
ATOM     30  C   UNL     1      -2.214  -5.433   4.591  0.00  0.00    +0.066 A 
ATOM     31  C   UNL     1      -2.804  -4.180   4.495  0.00  0.00    +0.026 A 
ATOM     32  C   UNL     1      -2.256  -3.106   5.168  0.00  0.00    +0.002 A 
ATOM     33  C   UNL     1      -1.120  -3.277   5.938  0.00  0.00    +0.002 A 
ATOM     34  C   UNL     1      -0.529  -4.523   6.037  0.00  0.00    +0.022 A 
ATOM     35  C   UNL     1      -1.076  -5.604   5.370  0.00  0.00    +0.063 A 
ATOM     36 CL   UNL     1      -0.338  -7.170   5.501  0.00  0.00    -0.082 Cl
ENDBRANCH  28  30
ENDBRANCH  25  28
ENDBRANCH  23  25
ENDBRANCH   1  19
TORSDOF 5
