REMARK  Name = ZINC17080177
REMARK  5 active torsions:
REMARK  status: ('A' for Active; 'I' for Inactive)
REMARK    1  A    between atoms: C_1  and  C_2
REMARK    2  A    between atoms: C_2  and  S_3
REMARK    3  A    between atoms: S_3  and  C_4
REMARK    4  A    between atoms: C_9  and  C_19
REMARK    5  A    between atoms: C_28  and  O_29
REMARK                            x       y       z     vdW  Elec       q    Type
REMARK                         _______ _______ _______ _____ _____    ______ ____
ROOT
ATOM      1  C   UNL     1      -1.357  -2.432   0.056  0.00  0.00    +0.210 A 
ATOM      2  N   UNL     1      -0.217  -3.137   0.024  0.00  0.00    -0.187 NA
ATOM      3  C   UNL     1      -0.494  -4.412  -0.006  0.00  0.00    +0.219 A 
ATOM      4  N   UNL     1      -1.843  -4.551   0.013  0.00  0.00    -0.220 N 
ATOM      5  N   UNL     1      -2.376  -3.264   0.054  0.00  0.00    -0.141 NA
ATOM      6  C   UNL     1      -2.516  -5.844   0.000  0.00  0.00    +0.179 C 
ATOM      7  C   UNL     1      -1.537  -6.934  -0.376  0.00  0.00    +0.041 C 
ATOM      8  C   UNL     1      -0.202  -6.729  -0.385  0.00  0.00    +0.020 C 
ATOM      9  N   UNL     1       0.345  -5.513  -0.052  0.00  0.00    -0.287 N 
ATOM     10  C   UNL     1       0.751  -7.835  -0.771  0.00  0.00    +0.052 C 
ATOM     11  C   UNL     1       0.156  -9.189  -0.377  0.00  0.00    +0.014 C 
ATOM     12  C   UNL     1      -1.193  -9.347  -1.086  0.00  0.00    +0.080 C 
ATOM     13  C   UNL     1      -2.076  -8.187  -0.719  0.00  0.00    +0.163 C 
ATOM     14  O   UNL     1      -3.283  -8.335  -0.718  0.00  0.00    -0.292 OA
ATOM     15  H   UNL     1       1.292  -5.428   0.144  0.00  0.00    +0.155 HD
ENDROOT
BRANCH   6  16
ATOM     16  C   UNL     1      -3.076  -6.129   1.370  0.00  0.00    +0.031 A 
ATOM     17  C   UNL     1      -4.461  -6.280   1.548  0.00  0.00    -0.009 A 
ATOM     18  C   UNL     1      -5.352  -6.172   0.466  0.00  0.00    +0.009 A 
ATOM     19  C   UNL     1      -6.688  -6.325   0.676  0.00  0.00    +0.001 A 
ATOM     20  C   UNL     1      -7.189  -6.588   1.950  0.00  0.00    +0.001 A 
ATOM     21  C   UNL     1      -6.357  -6.700   3.021  0.00  0.00    +0.008 A 
ATOM     22  C   UNL     1      -4.971  -6.548   2.844  0.00  0.00    -0.017 A 
ATOM     23  C   UNL     1      -4.081  -6.658   3.927  0.00  0.00    +0.012 A 
ATOM     24  C   UNL     1      -2.746  -6.506   3.721  0.00  0.00    +0.046 A 
ATOM     25  C   UNL     1      -2.240  -6.246   2.443  0.00  0.00    +0.123 A 
BRANCH  25  26
ATOM     26  O   UNL     1      -0.900  -6.105   2.268  0.00  0.00    -0.506 OA
ATOM     27  H   UNL     1      -0.584  -5.196   2.369  0.00  0.00    +0.292 HD
ENDBRANCH  25  26
ENDBRANCH   6  16
BRANCH   1  28
ATOM     28  S   UNL     1      -1.471  -0.674   0.100  0.00  0.00    -0.085 S 
BRANCH  28  30
ATOM     29  C   UNL     1       0.303   1.408   0.118  0.00  0.00    +0.016 C 
ATOM     30  C   UNL     1       0.257  -0.121   0.082  0.00  0.00    +0.074 C 
ENDBRANCH  28  30
ENDBRANCH   1  28
TORSDOF 4
