REMARK  Name = ZINC04763703
REMARK  7 active torsions:
REMARK  status: ('A' for Active; 'I' for Inactive)
REMARK    1  A    between atoms: C_1  and  C_2
REMARK    2  A    between atoms: C_2  and  C_3
REMARK    3  A    between atoms: C_3  and  C_5
REMARK    4  A    between atoms: C_3  and  N_6
REMARK    5  A    between atoms: C_7  and  C_9
REMARK    6  A    between atoms: N_16  and  S_19
REMARK    7  A    between atoms: S_19  and  C_22
REMARK                            x       y       z     vdW  Elec       q    Type
REMARK                         _______ _______ _______ _____ _____    ______ ____
ROOT
ATOM      1  C   UNL     1       1.333  -4.523  -6.224  0.00  0.00    +0.028 C 
ATOM      2  C   UNL     1       0.708  -5.949  -6.184  0.00  0.00    +0.061 C 
ATOM      3  S   UNL     1       1.242  -6.434  -4.481  0.00  0.00    -0.174 S 
ATOM      4  C   UNL     1       1.227  -4.748  -3.748  0.00  0.00    -0.016 C 
ATOM      5  C   UNL     1       2.490  -4.537  -2.926  0.00  0.00    +0.015 C 
ATOM      6  C   UNL     1       2.484  -3.123  -2.333  0.00  0.00    +0.109 C 
ATOM      7  N   UNL     1       1.223  -2.923  -1.606  0.00  0.00    -0.177 NA
ATOM      8  C   UNL     1      -0.046  -3.163  -2.307  0.00  0.00    +0.109 C 
ATOM      9  C   UNL     1      -0.025  -4.572  -2.901  0.00  0.00    +0.015 C 
ATOM     10  N   UNL     1       1.198  -3.816  -4.919  0.00  0.00    +0.397 N 
ATOM     11  H   UNL     1       0.306  -3.308  -4.912  0.00  0.00    -0.083 HD
ATOM     12  H   UNL     1       1.973  -3.149  -4.826  0.00  0.00    -0.083 HD
ENDROOT
BRANCH   1  14
ATOM     13  N   UNL     1       0.611  -4.114  -8.555  0.00  0.00    -0.314 N 
ATOM     14  C   UNL     1       0.627  -3.701  -7.272  0.00  0.00    +0.200 C 
ATOM     15  O   UNL     1       0.072  -2.668  -6.961  0.00  0.00    -0.278 OA
ATOM     16  H   UNL     1       1.055  -4.940  -8.804  0.00  0.00    +0.149 HD
BRANCH  13  17
ATOM     17  C   UNL     1      -0.075  -3.316  -9.573  0.00  0.00    +0.070 C 
ATOM     18  C   UNL     1       0.868  -2.227 -10.089  0.00  0.00    +0.028 C 
BRANCH  17  20
ATOM     19  C   UNL     1      -1.532  -5.231 -10.245  0.00  0.00    +0.005 C 
ATOM     20  C   UNL     1      -0.493  -4.220 -10.735  0.00  0.00    +0.018 C 
ENDBRANCH  17  20
ENDBRANCH  13  17
ENDBRANCH   1  14
BRANCH   7  21
ATOM     21  S   UNL     1       1.232  -2.441  -0.022  0.00  0.00    +0.061 S 
ATOM     22  O   UNL     1       2.489  -2.832   0.515  0.00  0.00    -0.153 OA
ATOM     23  O   UNL     1      -0.002  -2.866   0.539  0.00  0.00    -0.153 OA
BRANCH  21  24
ATOM     24  C   UNL     1       1.208  -0.679  -0.013  0.00  0.00    +0.105 A 
ATOM     25  C   UNL     1       0.002  -0.004   0.002  0.00  0.00    +0.028 A 
ATOM     26  C   UNL     1      -0.017   1.378   0.010  0.00  0.00    +0.002 A 
ATOM     27  C   UNL     1       1.171   2.086   0.002  0.00  0.00    +0.000 A 
ATOM     28  C   UNL     1       2.377   1.411  -0.015  0.00  0.00    +0.002 A 
ATOM     29  C   UNL     1       2.396   0.029  -0.021  0.00  0.00    +0.028 A 
ENDBRANCH  21  24
ENDBRANCH   7  21
TORSDOF 5
