REMARK  Name = ZINC40702288
REMARK  6 active torsions:
REMARK  status: ('A' for Active; 'I' for Inactive)
REMARK    1  A    between atoms: C_1  and  O_2
REMARK    2  A    between atoms: O_2  and  C_3
REMARK    3  A    between atoms: C_8  and  N_9
REMARK    4  A    between atoms: C_11  and  N_29
REMARK    5  A    between atoms: C_12  and  N_16
REMARK    6  A    between atoms: N_19  and  C_22
REMARK                            x       y       z     vdW  Elec       q    Type
REMARK                         _______ _______ _______ _____ _____    ______ ____
ROOT
ATOM      1  N   UNL     1       0.159  -2.797  -0.044  0.00  0.00    -0.295 N 
ATOM      2  C   UNL     1       0.102  -4.178  -0.194  0.00  0.00    +0.149 A 
ATOM      3  C   UNL     1      -0.552  -4.967   0.754  0.00  0.00    +0.106 A 
ATOM      4  C   UNL     1      -0.580  -6.349   0.555  0.00  0.00    +0.147 A 
ATOM      5  N   UNL     1       0.015  -6.857  -0.522  0.00  0.00    -0.219 NA
ATOM      6  C   UNL     1       0.622  -6.076  -1.392  0.00  0.00    +0.225 A 
ATOM      7  N   UNL     1       0.666  -4.768  -1.245  0.00  0.00    -0.219 NA
ATOM      8  H   UNL     1      -0.209  -2.380   0.750  0.00  0.00    +0.154 HD
ENDROOT
BRANCH   1  14
ATOM      9  C   UNL     1       0.246  -0.738  -1.313  0.00  0.00    +0.141 A 
ATOM     10  C   UNL     1       0.836   0.040  -2.295  0.00  0.00    +0.049 A 
ATOM     11  C   UNL     1       1.918  -0.446  -3.006  0.00  0.00    +0.024 A 
ATOM     12  C   UNL     1       2.414  -1.710  -2.740  0.00  0.00    +0.043 A 
ATOM     13  C   UNL     1       1.830  -2.493  -1.761  0.00  0.00    +0.047 A 
ATOM     14  C   UNL     1       0.748  -2.009  -1.040  0.00  0.00    +0.076 A 
ATOM     15 CL   UNL     1       3.771  -2.314  -3.638  0.00  0.00    -0.083 Cl
BRANCH   9  17
ATOM     16  C   UNL     1      -1.279   1.050  -0.947  0.00  0.00    +0.277 C 
ATOM     17  O   UNL     1      -0.818  -0.261  -0.613  0.00  0.00    -0.493 OA
ENDBRANCH   9  17
ENDBRANCH   1  14
BRANCH   4  18
ATOM     18  N   UNL     1      -1.217  -7.181   1.468  0.00  0.00    -0.311 N 
ATOM     19  C   UNL     1      -2.662  -7.432   1.368  0.00  0.00    +0.125 C 
ATOM     20  C   UNL     1      -2.891  -8.947   1.293  0.00  0.00    +0.124 C 
ATOM     21  N   UNL     1      -2.133  -9.591   2.375  0.00  0.00    -0.327 N 
ATOM     22  C   UNL     1      -0.689  -9.339   2.475  0.00  0.00    +0.124 C 
ATOM     23  C   UNL     1      -0.458  -7.829   2.546  0.00  0.00    +0.125 C 
BRANCH  21  24
ATOM     24  C   UNL     1      -2.774 -10.427   3.293  0.00  0.00    +0.031 A 
ATOM     25  C   UNL     1      -4.108 -10.768   3.110  0.00  0.00    +0.023 A 
ATOM     26  C   UNL     1      -4.739 -11.595   4.018  0.00  0.00    +0.003 A 
ATOM     27  C   UNL     1      -4.045 -12.083   5.109  0.00  0.00    +0.020 A 
ATOM     28  C   UNL     1      -2.716 -11.746   5.295  0.00  0.00    +0.043 A 
ATOM     29  C   UNL     1      -2.077 -10.923   4.386  0.00  0.00    +0.043 A 
ATOM     30 CL   UNL     1      -1.849 -12.361   6.667  0.00  0.00    -0.083 Cl
ENDBRANCH  21  24
ENDBRANCH   4  18
BRANCH   3  31
ATOM     31  N   UNL     1      -1.166  -4.388   1.876  0.00  0.00    -0.353 N 
ATOM     32  H   UNL     1      -1.203  -3.422   1.964  0.00  0.00    +0.143 HD
ATOM     33  H   UNL     1      -1.553  -4.952   2.563  0.00  0.00    +0.143 HD
ENDBRANCH   3  31
TORSDOF 5
