REMARK  Name = ZINC24416511
REMARK  9 active torsions:
REMARK  status: ('A' for Active; 'I' for Inactive)
REMARK    1  A    between atoms: C_1  and  C_2
REMARK    2  A    between atoms: C_3  and  C_30
REMARK    3  A    between atoms: N_9  and  C_29
REMARK    4  A    between atoms: C_10  and  S_12
REMARK    5  A    between atoms: S_12  and  C_13
REMARK    6  A    between atoms: C_13  and  C_14
REMARK    7  A    between atoms: C_14  and  C_16
REMARK    8  A    between atoms: C_17  and  N_28
REMARK    9  A    between atoms: N_18  and  C_25
REMARK                            x       y       z     vdW  Elec       q    Type
REMARK                         _______ _______ _______ _____ _____    ______ ____
ROOT
ATOM      1  C   UNL     1       4.644   0.838  -1.023  0.00  0.00    +0.182 C 
ATOM      2  O   UNL     1       4.445  -0.273  -1.474  0.00  0.00    -0.291 OA
ENDROOT
BRANCH   1   3
ATOM      3  C   UNL     1       3.568   1.594  -0.511  0.00  0.00    +0.120 A 
ATOM      4  C   UNL     1       2.277   1.045  -0.413  0.00  0.00    +0.116 A 
ATOM      5  N   UNL     1       1.268   1.817   0.089  0.00  0.00    -0.278 N 
ATOM      6  C   UNL     1       1.486   3.081   0.482  0.00  0.00    +0.331 A 
ATOM      7  O   UNL     1       0.553   3.728   0.917  0.00  0.00    -0.246 OA
ATOM      8  N   UNL     1       2.697   3.657   0.416  0.00  0.00    -0.274 N 
ATOM      9  H   UNL     1       2.832   4.694   0.757  0.00  0.00    +0.173 HD
ATOM     10  C   UNL     1       3.760   2.980  -0.065  0.00  0.00    +0.266 A 
ATOM     11  O   UNL     1       4.856   3.506  -0.126  0.00  0.00    -0.267 OA
BRANCH   5  12
ATOM     12  C   UNL     1      -0.081   1.254   0.195  0.00  0.00    +0.094 C 
ATOM     13  C   UNL     1      -1.242   2.101  -0.328  0.00  0.00    +0.027 C 
ATOM     14  C   UNL     1      -0.787   0.862  -1.104  0.00  0.00    +0.027 C 
ENDBRANCH   5  12
BRANCH   4  15
ATOM     15  N   UNL     1       2.038  -0.234  -0.811  0.00  0.00    -0.344 N 
ATOM     16  H   UNL     1       1.024  -0.654  -0.730  0.00  0.00    +0.144 HD
ATOM     17  H   UNL     1       2.857  -0.847  -1.213  0.00  0.00    +0.144 HD
ENDBRANCH   4  15
ENDBRANCH   1   3
BRANCH   1  18
ATOM     18  C   UNL     1       6.039   1.407  -1.009  0.00  0.00    +0.157 C 
BRANCH  18  19
ATOM     19  S   UNL     1       7.188   0.206  -1.726  0.00  0.00    -0.080 S 
BRANCH  19  29
ATOM     20  C   UNL     1      13.565   2.995  -1.585  0.00  0.00    +0.045 C 
ATOM     21  C   UNL     1      12.177   3.409  -1.169  0.00  0.00    -0.026 A 
ATOM     22  C   UNL     1      11.966   4.609  -0.610  0.00  0.00    -0.008 A 
ATOM     23  S   UNL     1      10.209   4.622  -0.307  0.00  0.00    -0.073 S 
ATOM     24  C   UNL     1       9.808   3.014  -0.942  0.00  0.00    +0.117 A 
ATOM     25  C   UNL     1      11.052   2.512  -1.371  0.00  0.00    +0.075 A 
ATOM     26  C   UNL     1      11.030   1.200  -1.940  0.00  0.00    +0.263 A 
ATOM     27  O   UNL     1      12.060   0.683  -2.338  0.00  0.00    -0.267 OA
ATOM     28  N   UNL     1       9.859   0.543  -2.028  0.00  0.00    -0.290 N 
ATOM     29  C   UNL     1       8.697   1.106  -1.587  0.00  0.00    +0.173 A 
ATOM     30  N   UNL     1       8.687   2.315  -1.064  0.00  0.00    -0.216 NA
ATOM     31  C   UNL     1       9.831  -0.801  -2.610  0.00  0.00    +0.154 C 
ATOM     32  C   UNL     1      12.973   5.689  -0.307  0.00  0.00    +0.052 C 
ENDBRANCH  19  29
ENDBRANCH  18  19
ENDBRANCH   1  18
TORSDOF 6
