REMARK  Name = ZINC04545412
REMARK  5 active torsions:
REMARK  status: ('A' for Active; 'I' for Inactive)
REMARK    1  A    between atoms: C_1  and  C_2
REMARK    2  A    between atoms: C_2  and  C_3
REMARK    3  A    between atoms: C_12  and  O_26
REMARK    4  A    between atoms: C_14  and  C_17
REMARK    5  A    between atoms: C_21  and  N_23
REMARK                            x       y       z     vdW  Elec       q    Type
REMARK                         _______ _______ _______ _____ _____    ______ ____
ROOT
ATOM      1  C   UNL     1      -1.433  -0.534   0.013  0.00  0.00    -0.006 C 
ATOM      2  C   UNL     1      -1.416  -2.061   0.124  0.00  0.00    +0.008 C 
ATOM      3  C   UNL     1      -2.831  -2.580   0.383  0.00  0.00    +0.037 C 
ATOM      4  C   UNL     1      -3.765  -2.001  -0.670  0.00  0.00    -0.023 A 
ATOM      5  C   UNL     1      -3.415  -0.913  -1.393  0.00  0.00    -0.004 A 
ATOM      6  S   UNL     1      -4.794  -0.620  -2.467  0.00  0.00    -0.078 S 
ATOM      7  C   UNL     1      -5.783  -1.860  -1.987  0.00  0.00    +0.080 A 
ATOM      8  C   UNL     1      -5.074  -2.540  -0.989  0.00  0.00    +0.068 A 
ATOM      9  C   UNL     1      -5.723  -3.728  -0.377  0.00  0.00    +0.220 C 
ATOM     10  N   UNL     1      -6.992  -3.917  -0.618  0.00  0.00    -0.223 NA
ATOM     11  C   UNL     1      -7.830  -3.010  -1.392  0.00  0.00    +0.224 C 
ATOM     12  N   UNL     1      -7.042  -2.254  -2.382  0.00  0.00    -0.313 N 
ATOM     13  C   UNL     1      -2.138  -0.136  -1.292  0.00  0.00    +0.046 C 
ATOM     14  H   UNL     1      -7.391  -2.045  -3.262  0.00  0.00    +0.149 HD
ENDROOT
BRANCH  11  15
ATOM     15  C   UNL     1      -8.502  -2.040  -0.455  0.00  0.00    -0.003 A 
ATOM     16  C   UNL     1      -8.824  -0.768  -0.891  0.00  0.00    +0.007 A 
ATOM     17  C   UNL     1      -9.440   0.122  -0.031  0.00  0.00    +0.003 A 
ATOM     18  C   UNL     1      -9.734  -0.260   1.265  0.00  0.00    +0.033 A 
ATOM     19  C   UNL     1      -9.412  -1.532   1.701  0.00  0.00    +0.127 A 
ATOM     20  C   UNL     1      -8.800  -2.423   0.839  0.00  0.00    +0.040 A 
BRANCH  19  21
ATOM     21  N   UNL     1      -9.726  -1.940   3.088  0.00  0.00    +0.056 N 
ATOM     22  O   UNL     1     -10.264  -1.161   3.841  0.00  0.00    -0.126 OA
ATOM     23  O   UNL     1      -9.445  -3.053   3.469  0.00  0.00    -0.126 OA
ENDBRANCH  19  21
ENDBRANCH  11  15
BRANCH   1  25
ATOM     24  C   UNL     1      -0.019   1.526   0.010  0.00  0.00    +0.004 C 
ATOM     25  C   UNL     1       0.002  -0.004   0.002  0.00  0.00    +0.000 C 
ENDBRANCH   1  25
BRANCH   9  26
ATOM     26  O   UNL     1      -5.023  -4.584   0.403  0.00  0.00    -0.492 OA
ATOM     27  H   UNL     1      -5.547  -5.321   0.748  0.00  0.00    +0.294 HD
ENDBRANCH   9  26
TORSDOF 4
