REMARK  Name = ZINC36637601
REMARK  12 active torsions:
REMARK  status: ('A' for Active; 'I' for Inactive)
REMARK    1  A    between atoms: C_1  and  C_2
REMARK    2  A    between atoms: C_2  and  C_3
REMARK    3  A    between atoms: N_9  and  S_10
REMARK    4  A    between atoms: S_10  and  C_13
REMARK    5  A    between atoms: C_16  and  C_19
REMARK    6  A    between atoms: N_21  and  C_22
REMARK    7  A    between atoms: C_22  and  C_23
REMARK    8  A    between atoms: C_23  and  N_24
REMARK    9  A    between atoms: N_24  and  C_25
REMARK   10  A    between atoms: N_24  and  C_26
REMARK   11  A    between atoms: C_30  and  C_37
REMARK   12  A    between atoms: C_31  and  C_36
REMARK                            x       y       z     vdW  Elec       q    Type
REMARK                         _______ _______ _______ _____ _____    ______ ____
ROOT
ATOM      1  C   UNL     1      -2.657   7.195   1.131  0.00  0.00    +0.252 C 
ATOM      2  O   UNL     1      -2.120   7.979   0.373  0.00  0.00    -0.270 OA
ATOM      3  N   UNL     1      -3.961   7.341   1.440  0.00  0.00    -0.248 N 
ATOM      4  C   UNL     1      -4.735   8.262   0.755  0.00  0.00    +0.168 A 
ATOM      5  N   UNL     1      -4.385   9.071  -0.218  0.00  0.00    -0.224 NA
ATOM      6  C   UNL     1      -5.254   9.925  -0.800  0.00  0.00    +0.083 A 
ATOM      7  C   UNL     1      -5.008  10.842  -1.849  0.00  0.00    -0.021 A 
ATOM      8  C   UNL     1      -6.010  11.644  -2.328  0.00  0.00    -0.045 A 
ATOM      9  C   UNL     1      -7.295  11.588  -1.806  0.00  0.00    +0.005 A 
ATOM     10  C   UNL     1      -7.572  10.704  -0.780  0.00  0.00    +0.017 A 
ATOM     11  C   UNL     1      -6.574   9.896  -0.294  0.00  0.00    +0.041 A 
ATOM     12  S   UNL     1      -6.468   8.648   0.965  0.00  0.00    -0.052 S 
ATOM     13  C   UNL     1      -5.711  12.609  -3.445  0.00  0.00    +0.044 C 
ATOM     14  C   UNL     1      -3.627  10.938  -2.446  0.00  0.00    +0.046 C 
ENDROOT
BRANCH   1  18
ATOM     15  C   UNL     1      -0.424   3.995   2.808  0.00  0.00    +0.106 A 
ATOM     16  C   UNL     1       0.026   4.622   1.660  0.00  0.00    +0.029 A 
ATOM     17  C   UNL     1      -0.694   5.662   1.110  0.00  0.00    +0.015 A 
ATOM     18  C   UNL     1      -1.880   6.082   1.714  0.00  0.00    +0.037 A 
ATOM     19  C   UNL     1      -2.329   5.445   2.873  0.00  0.00    +0.015 A 
ATOM     20  C   UNL     1      -1.602   4.403   3.409  0.00  0.00    +0.029 A 
BRANCH  15  21
ATOM     21  S   UNL     1       0.502   2.668   3.504  0.00  0.00    +0.061 S 
ATOM     22  O   UNL     1       0.281   2.710   4.907  0.00  0.00    -0.153 OA
ATOM     23  O   UNL     1       1.803   2.739   2.936  0.00  0.00    -0.153 OA
BRANCH  21  29
ATOM     24  C   UNL     1       0.142   0.743   1.621  0.00  0.00    +0.080 C 
ATOM     25  C   UNL     1       0.623  -0.706   1.749  0.00  0.00    +0.021 C 
ATOM     26  C   UNL     1      -0.428  -1.523   2.503  0.00  0.00    +0.003 C 
ATOM     27  C   UNL     1      -0.610  -0.948   3.910  0.00  0.00    +0.017 C 
ATOM     28  C   UNL     1      -1.104   0.498   3.807  0.00  0.00    +0.110 C 
ATOM     29  N   UNL     1      -0.176   1.259   2.959  0.00  0.00    -0.174 NA
BRANCH  24  31
ATOM     30  C   UNL     1       1.479   1.145  -0.452  0.00  0.00    +0.005 C 
ATOM     31  C   UNL     1       1.246   1.596   0.992  0.00  0.00    +0.017 C 
ENDBRANCH  24  31
ENDBRANCH  21  29
ENDBRANCH  15  21
ENDBRANCH   1  18
BRANCH   3  32
ATOM     32  C   UNL     1      -4.559   6.526   2.500  0.00  0.00    +0.097 C 
BRANCH  32  33
ATOM     33  C   UNL     1      -4.101   7.046   3.863  0.00  0.00    -0.060 C 
BRANCH  33  34
ATOM     34  N   UNL     1      -4.751   6.271   4.928  0.00  0.00    +0.377 N 
ATOM     35  C   UNL     1      -4.277   4.881   4.880  0.00  0.00    -0.097 C 
ATOM     36  C   UNL     1      -4.419   6.856   6.233  0.00  0.00    -0.097 C 
ATOM     37  H   UNL     1      -5.751   6.290   4.795  0.00  0.00    -0.083 HD
ENDBRANCH  33  34
ENDBRANCH  32  33
ENDBRANCH   3  32
TORSDOF 7
