REMARK  Name = ZINC23590736
REMARK  4 active torsions:
REMARK  status: ('A' for Active; 'I' for Inactive)
REMARK    1  A    between atoms: C_3  and  N_9
REMARK    2  A    between atoms: C_10  and  C_12
REMARK    3  A    between atoms: C_12  and  S_13
REMARK    4  A    between atoms: S_13  and  C_14
REMARK                            x       y       z     vdW  Elec       q    Type
REMARK                         _______ _______ _______ _____ _____    ______ ____
ROOT
ATOM      1  C   UNL     1       0.612  -0.013   0.113  0.00  0.00    +0.191 A 
ATOM      2  N   UNL     1       0.519   1.312   0.115  0.00  0.00    -0.207 NA
ATOM      3  C   UNL     1       1.586   2.092   0.109  0.00  0.00    +0.129 A 
ATOM      4  C   UNL     1       2.880   1.499   0.101  0.00  0.00    +0.051 A 
ATOM      5  C   UNL     1       4.188   2.159   0.094  0.00  0.00    -0.025 A 
ATOM      6  C   UNL     1       5.275   1.361   0.087  0.00  0.00    -0.004 A 
ATOM      7  S   UNL     1       4.636  -0.292   0.088  0.00  0.00    -0.073 S 
ATOM      8  C   UNL     1       2.904   0.091   0.099  0.00  0.00    +0.115 A 
ATOM      9  N   UNL     1       1.792  -0.619   0.105  0.00  0.00    -0.214 NA
ATOM     10  C   UNL     1       6.712   1.786   0.079  0.00  0.00    +0.043 C 
ATOM     11  C   UNL     1       6.776   3.274  -0.293  0.00  0.00    +0.005 C 
ATOM     12  C   UNL     1       5.750   4.036   0.550  0.00  0.00    +0.005 C 
ATOM     13  C   UNL     1       4.335   3.678   0.095  0.00  0.00    +0.037 C 
ATOM     14  N   UNL     1       1.447   3.468   0.112  0.00  0.00    -0.343 N 
ATOM     15  H   UNL     1       2.340   4.111   0.107  0.00  0.00    +0.144 HD
ATOM     16  H   UNL     1       0.444   3.919   0.119  0.00  0.00    +0.144 HD
ENDROOT
BRANCH   1  17
ATOM     17  S   UNL     1      -0.859  -0.983   0.122  0.00  0.00    -0.077 S 
BRANCH  17  18
ATOM     18  C   UNL     1      -2.103   0.332   0.132  0.00  0.00    +0.173 C 
BRANCH  18  20
ATOM     19  N   UNL     1      -4.569   0.513   0.148  0.00  0.00    -0.283 N 
ATOM     20  C   UNL     1      -3.480  -0.280   0.140  0.00  0.00    +0.228 C 
ATOM     21  O   UNL     1      -3.608  -1.486   0.140  0.00  0.00    -0.275 OA
ATOM     22  H   UNL     1      -4.457   1.603   0.053  0.00  0.00    +0.155 HD
BRANCH  19  25
ATOM     23  C   UNL     1      -7.287  -1.740   1.181  0.00  0.00    +0.017 A 
ATOM     24  C   UNL     1      -6.027  -1.186   1.054  0.00  0.00    +0.027 A 
ATOM     25  C   UNL     1      -5.845  -0.050   0.278  0.00  0.00    +0.069 A 
ATOM     26  C   UNL     1      -6.933   0.531  -0.365  0.00  0.00    +0.146 A 
ATOM     27  C   UNL     1      -8.190  -0.031  -0.238  0.00  0.00    +0.055 A 
ATOM     28  C   UNL     1      -8.367  -1.164   0.536  0.00  0.00    +0.021 A 
ATOM     29 BR   UNL     1     -10.088  -1.927   0.713  0.00  0.00    -0.050 Br
ATOM     30  F   UNL     1      -6.760   1.641  -1.117  0.00  0.00    -0.204 F 
ENDBRANCH  19  25
ENDBRANCH  18  20
ENDBRANCH  17  18
ENDBRANCH   1  17
TORSDOF 4
