REMARK  Name = ZINC02803453
REMARK  4 active torsions:
REMARK  status: ('A' for Active; 'I' for Inactive)
REMARK    1  A    between atoms: C_1  and  C_2
REMARK    2  A    between atoms: C_3  and  C_21
REMARK    3  A    between atoms: C_8  and  C_10
REMARK    4  A    between atoms: C_17  and  C_20
REMARK                            x       y       z     vdW  Elec       q    Type
REMARK                         _______ _______ _______ _____ _____    ______ ____
ROOT
ATOM      1  C   UNL     1      -0.018   1.503   0.010  0.00  0.00    +0.066 C 
ATOM      2  C   UNL     1       0.002  -0.004   0.002  0.00  0.00    +0.050 A 
ATOM      3  C   UNL     1      -0.005  -0.691  -1.167  0.00  0.00    +0.011 A 
ATOM      4  S   UNL     1       0.029  -2.373  -0.563  0.00  0.00    -0.057 S 
ATOM      5  C   UNL     1       0.040  -2.003   1.134  0.00  0.00    +0.165 A 
ATOM      6  N   UNL     1       0.022  -0.685   1.131  0.00  0.00    -0.230 NA
ATOM      7  N   UNL     1       0.061  -2.874   2.216  0.00  0.00    -0.259 N 
ATOM      8  C   UNL     1       0.077  -4.205   2.010  0.00  0.00    +0.272 C 
ATOM      9  O   UNL     1       0.073  -4.645   0.877  0.00  0.00    -0.268 OA
ATOM     10  C   UNL     1      -0.032  -0.179  -2.583  0.00  0.00    +0.053 C 
ATOM     11  H   UNL     1       0.063  -2.523   3.120  0.00  0.00    +0.157 HD
ENDROOT
BRANCH   8  12
ATOM     12  C   UNL     1       0.099  -5.134   3.165  0.00  0.00    +0.171 A 
ATOM     13  C   UNL     1       0.113  -6.544   3.125  0.00  0.00    +0.027 A 
ATOM     14  C   UNL     1       0.133  -6.921   4.425  0.00  0.00    +0.141 A 
ATOM     15  O   UNL     1       0.125  -5.803   5.147  0.00  0.00    -0.359 OA
ATOM     16  N   UNL     1       0.105  -4.815   4.441  0.00  0.00    -0.073 NA
ATOM     17  C   UNL     1       0.152  -8.357   4.878  0.00  0.00    +0.078 C 
ATOM     18  C   UNL     1      -0.281  -9.241   3.698  0.00  0.00    +0.011 C 
ATOM     19  C   UNL     1       0.537  -8.873   2.457  0.00  0.00    -0.009 C 
ATOM     20  C   UNL     1       0.112  -7.485   1.956  0.00  0.00    +0.044 C 
ATOM     21  C   UNL     1       0.290  -9.909   1.358  0.00  0.00    +0.008 C 
ENDBRANCH   8  12
TORSDOF 1
