REMARK  Name = ZINC09611391
REMARK  10 active torsions:
REMARK  status: ('A' for Active; 'I' for Inactive)
REMARK    1  A    between atoms: C_1  and  C_2
REMARK    2  A    between atoms: C_5  and  C_8
REMARK    3  A    between atoms: C_8  and  C_9
REMARK    4  A    between atoms: C_9  and  N_10
REMARK    5  A    between atoms: C_11  and  C_13
REMARK    6  A    between atoms: C_13  and  C_15
REMARK    7  A    between atoms: C_13  and  N_22
REMARK    8  A    between atoms: C_15  and  C_16
REMARK    9  A    between atoms: N_22  and  S_23
REMARK   10  A    between atoms: S_23  and  C_26
REMARK                            x       y       z     vdW  Elec       q    Type
REMARK                         _______ _______ _______ _____ _____    ______ ____
ROOT
ATOM      1  C   UNL     1       1.259  -6.329  -2.650  0.00  0.00    +0.166 C 
ENDROOT
BRANCH   1   3
ATOM      2  N   UNL     1       1.241  -4.154  -1.472  0.00  0.00    -0.314 N 
ATOM      3  C   UNL     1       1.239  -4.822  -2.643  0.00  0.00    +0.232 C 
ATOM      4  O   UNL     1       1.220  -4.211  -3.690  0.00  0.00    -0.274 OA
ATOM      5  H   UNL     1       1.256  -4.643  -0.635  0.00  0.00    +0.149 HD
BRANCH   2   6
ATOM      6  C   UNL     1       1.221  -2.689  -1.465  0.00  0.00    +0.109 C 
BRANCH   6   7
ATOM      7  C   UNL     1       1.229  -2.186  -0.021  0.00  0.00    +0.054 C 
BRANCH   7  12
ATOM      8  C   UNL     1       1.151   3.592   0.010  0.00  0.00    +0.044 C 
ATOM      9  C   UNL     1       1.171   2.086   0.002  0.00  0.00    -0.050 A 
ATOM     10  C   UNL     1      -0.017   1.378   0.010  0.00  0.00    +0.003 A 
ATOM     11  C   UNL     1       0.002  -0.004   0.002  0.00  0.00    +0.004 A 
ATOM     12  C   UNL     1       1.208  -0.679  -0.013  0.00  0.00    -0.046 A 
ATOM     13  C   UNL     1       2.396   0.029  -0.021  0.00  0.00    +0.004 A 
ATOM     14  C   UNL     1       2.377   1.411  -0.015  0.00  0.00    +0.003 A 
ENDBRANCH   7  12
ENDBRANCH   6   7
ENDBRANCH   2   6
ENDBRANCH   1   3
BRANCH   1  15
ATOM     15  N   UNL     1       1.252  -6.811  -4.034  0.00  0.00    -0.178 NA
ATOM     16  H   UNL     1       1.720  -6.314  -4.723  0.00  0.00    +0.149 HD
BRANCH  15  17
ATOM     17  S   UNL     1       0.445  -8.204  -4.421  0.00  0.00    +0.059 S 
ATOM     18  O   UNL     1       0.600  -8.387  -5.822  0.00  0.00    -0.153 OA
ATOM     19  O   UNL     1       0.849  -9.184  -3.475  0.00  0.00    -0.153 OA
BRANCH  17  20
ATOM     20  C   UNL     1      -1.269  -7.908  -4.139  0.00  0.00    +0.106 A 
ATOM     21  C   UNL     1      -1.822  -8.181  -2.901  0.00  0.00    +0.030 A 
ATOM     22  C   UNL     1      -3.164  -7.947  -2.675  0.00  0.00    +0.025 A 
ATOM     23  C   UNL     1      -3.961  -7.445  -3.695  0.00  0.00    +0.037 A 
ATOM     24  C   UNL     1      -3.404  -7.176  -4.938  0.00  0.00    -0.024 A 
ATOM     25  C   UNL     1      -2.060  -7.408  -5.157  0.00  0.00    +0.034 A 
ATOM     26  C   UNL     1      -4.268  -6.631  -6.045  0.00  0.00    +0.046 C 
ATOM     27  C   UNL     1      -5.677  -7.214  -5.928  0.00  0.00    +0.101 C 
ATOM     28  C   UNL     1      -6.169  -7.085  -4.512  0.00  0.00    +0.218 C 
ATOM     29  O   UNL     1      -7.343  -6.867  -4.303  0.00  0.00    -0.275 OA
ATOM     30  N   UNL     1      -5.321  -7.210  -3.474  0.00  0.00    -0.285 N 
ATOM     31  H   UNL     1      -5.656  -7.136  -2.567  0.00  0.00    +0.155 HD
ENDBRANCH  17  20
ENDBRANCH  15  17
ENDBRANCH   1  15
BRANCH   1  32
ATOM     32  C   UNL     1       2.522  -6.825  -1.944  0.00  0.00    +0.065 C 
BRANCH  32  33
ATOM     33  C   UNL     1       2.483  -8.328  -1.842  0.00  0.00    -0.045 A 
ATOM     34  C   UNL     1       1.914  -8.932  -0.737  0.00  0.00    +0.004 A 
ATOM     35  C   UNL     1       1.874 -10.311  -0.646  0.00  0.00    +0.000 A 
ATOM     36  C   UNL     1       2.413 -11.086  -1.656  0.00  0.00    +0.000 A 
ATOM     37  C   UNL     1       2.987 -10.482  -2.759  0.00  0.00    +0.000 A 
ATOM     38  C   UNL     1       3.023  -9.103  -2.852  0.00  0.00    +0.004 A 
ENDBRANCH  32  33
ENDBRANCH   1  32
TORSDOF 9
