REMARK  Name = ZINC39695334
REMARK  8 active torsions:
REMARK  status: ('A' for Active; 'I' for Inactive)
REMARK    1  A    between atoms: C_1  and  C_2
REMARK    2  A    between atoms: C_2  and  C_3
REMARK    3  A    between atoms: C_3  and  C_5
REMARK    4  A    between atoms: C_3  and  N_11
REMARK    5  A    between atoms: C_12  and  C_14
REMARK    6  A    between atoms: C_25  and  C_27
REMARK    7  A    between atoms: C_32  and  S_33
REMARK    8  A    between atoms: S_33  and  C_34
REMARK                            x       y       z     vdW  Elec       q    Type
REMARK                         _______ _______ _______ _____ _____    ______ ____
ROOT
ATOM      1  C   UNL     1      -1.208   1.904  -4.414  0.00  0.00    +0.100 C 
ATOM      2  C   UNL     1      -0.856   0.696  -5.310  0.00  0.00    +0.121 C 
ATOM      3  N   UNL     1      -0.554   1.288  -6.635  0.00  0.00    -0.296 N 
ATOM      4  C   UNL     1       0.193   2.529  -6.322  0.00  0.00    +0.115 C 
ATOM      5  C   UNL     1      -0.517   3.105  -5.081  0.00  0.00    -0.004 C 
ATOM      6  C   UNL     1       0.503   3.723  -4.129  0.00  0.00    -0.010 C 
ATOM      7  C   UNL     1       1.135   4.950  -4.792  0.00  0.00    -0.082 C 
ATOM      8  N   UNL     1       0.088   5.925  -5.119  0.00  0.00    +0.379 N 
ATOM      9  C   UNL     1      -0.837   5.355  -6.106  0.00  0.00    -0.082 C 
ATOM     10  C   UNL     1      -1.552   4.145  -5.499  0.00  0.00    -0.010 C 
ATOM     11  C   UNL     1      -0.885   0.806  -7.849  0.00  0.00    +0.249 C 
ATOM     12  O   UNL     1      -0.473   1.355  -8.854  0.00  0.00    -0.270 OA
ATOM     13  H   UNL     1      -0.421   6.164  -4.282  0.00  0.00    -0.086 HD
ATOM     14  H   UNL     1       0.512   6.758  -5.500  0.00  0.00    -0.086 HD
ENDROOT
BRANCH  11  15
ATOM     15  C   UNL     1      -1.745  -0.386  -7.961  0.00  0.00    +0.069 A 
ATOM     16  C   UNL     1      -1.627  -1.438  -7.046  0.00  0.00    +0.017 A 
ATOM     17  C   UNL     1      -2.458  -2.534  -7.193  0.00  0.00    +0.020 A 
ATOM     18  C   UNL     1      -3.374  -2.561  -8.231  0.00  0.00    +0.112 A 
ATOM     19  N   UNL     1      -3.470  -1.560  -9.083  0.00  0.00    -0.248 NA
ATOM     20  C   UNL     1      -2.703  -0.484  -8.985  0.00  0.00    +0.114 A 
BRANCH  20  21
ATOM     21  S   UNL     1      -2.880   0.828 -10.148  0.00  0.00    -0.069 S 
BRANCH  21  22
ATOM     22  C   UNL     1      -4.265   0.346 -11.126  0.00  0.00    +0.014 A 
ATOM     23  C   UNL     1      -5.534   0.818 -10.815  0.00  0.00    +0.015 A 
ATOM     24  C   UNL     1      -6.617   0.439 -11.584  0.00  0.00    +0.001 A 
ATOM     25  C   UNL     1      -6.439  -0.409 -12.662  0.00  0.00    +0.000 A 
ATOM     26  C   UNL     1      -5.177  -0.881 -12.973  0.00  0.00    +0.001 A 
ATOM     27  C   UNL     1      -4.089  -0.501 -12.213  0.00  0.00    +0.015 A 
ENDBRANCH  21  22
ENDBRANCH  20  21
ENDBRANCH  11  15
BRANCH   1  29
ATOM     28  N   UNL     1      -1.308   2.244  -1.966  0.00  0.00    -0.308 N 
ATOM     29  C   UNL     1      -0.672   1.697  -3.021  0.00  0.00    +0.219 C 
ATOM     30  O   UNL     1       0.331   1.038  -2.848  0.00  0.00    -0.275 OA
ATOM     31  H   UNL     1      -2.075   2.822  -2.108  0.00  0.00    +0.149 HD
BRANCH  28  32
ATOM     32  C   UNL     1      -0.842   1.967  -0.605  0.00  0.00    +0.103 C 
BRANCH  32  33
ATOM     33  C   UNL     1      -2.022   1.927   0.332  0.00  0.00    -0.027 A 
ATOM     34  C   UNL     1      -3.054   2.835   0.184  0.00  0.00    +0.005 A 
ATOM     35  C   UNL     1      -4.136   2.797   1.043  0.00  0.00    +0.000 A 
ATOM     36  C   UNL     1      -4.187   1.852   2.050  0.00  0.00    +0.000 A 
ATOM     37  C   UNL     1      -3.156   0.943   2.197  0.00  0.00    +0.000 A 
ATOM     38  C   UNL     1      -2.075   0.978   1.335  0.00  0.00    +0.005 A 
ENDBRANCH  32  33
BRANCH  32  40
ATOM     39  C   UNL     1       1.391   3.010  -1.016  0.00  0.00    +0.006 C 
ATOM     40  C   UNL     1       0.123   3.069  -0.162  0.00  0.00    +0.024 C 
ENDBRANCH  32  40
ENDBRANCH  28  32
ENDBRANCH   1  29
TORSDOF 7
