REMARK  Name = ZINC50853532
REMARK  6 active torsions:
REMARK  status: ('A' for Active; 'I' for Inactive)
REMARK    1  A    between atoms: C_1  and  C_2
REMARK    2  A    between atoms: C_2  and  C_3
REMARK    3  A    between atoms: C_2  and  C_4
REMARK    4  A    between atoms: C_2  and  C_5
REMARK    5  A    between atoms: C_11  and  C_19
REMARK    6  A    between atoms: C_25  and  C_28
REMARK                            x       y       z     vdW  Elec       q    Type
REMARK                         _______ _______ _______ _____ _____    ______ ____
ROOT
ATOM      1  C   UNL     1       0.718  -0.497  -1.257  0.00  0.00    -0.001 C 
ATOM      2  C   UNL     1      -0.012   0.019  -2.502  0.00  0.00    +0.010 C 
ATOM      3  C   UNL     1       0.566  -0.685  -3.728  0.00  0.00    +0.056 C 
ATOM      4  C   UNL     1       2.071  -0.568  -3.746  0.00  0.00    +0.046 A 
ATOM      5  C   UNL     1       2.797  -0.239  -2.609  0.00  0.00    -0.013 A 
ATOM      6  C   UNL     1       4.187  -0.152  -2.680  0.00  0.00    +0.051 A 
ATOM      7  C   UNL     1       4.811  -0.400  -3.927  0.00  0.00    +0.013 A 
ATOM      8  C   UNL     1       6.202  -0.330  -4.079  0.00  0.00    +0.011 A 
ATOM      9  C   UNL     1       6.759  -0.574  -5.298  0.00  0.00    +0.001 A 
ATOM     10  C   UNL     1       5.963  -0.892  -6.396  0.00  0.00    +0.002 A 
ATOM     11  C   UNL     1       4.609  -0.968  -6.283  0.00  0.00    +0.028 A 
ATOM     12  C   UNL     1       3.997  -0.724  -5.040  0.00  0.00    +0.072 A 
ATOM     13  N   UNL     1       2.675  -0.792  -4.896  0.00  0.00    -0.251 NA
ATOM     14  C   UNL     1       2.148   0.039  -1.279  0.00  0.00    +0.041 C 
ENDROOT
BRANCH   6  15
ATOM     15  C   UNL     1       4.988   0.190  -1.485  0.00  0.00    +0.248 C 
ATOM     16  O   UNL     1       5.394  -0.691  -0.753  0.00  0.00    -0.270 OA
ATOM     17  N   UNL     1       5.268   1.479  -1.209  0.00  0.00    -0.292 N 
ATOM     18  C   UNL     1       4.783   2.563  -2.077  0.00  0.00    +0.136 C 
ATOM     19  C   UNL     1       4.092   3.614  -1.200  0.00  0.00    +0.180 C 
ATOM     20  O   UNL     1       4.974   3.995  -0.141  0.00  0.00    -0.364 OA
ATOM     21  C   UNL     1       5.315   2.929   0.749  0.00  0.00    +0.221 C 
ATOM     22  C   UNL     1       6.063   1.845  -0.025  0.00  0.00    +0.149 C 
BRANCH  21  23
ATOM     23  C   UNL     1       6.192   3.458   1.855  0.00  0.00    +0.241 C 
ATOM     24  O   UNL     1       6.570   4.610   1.830  0.00  0.00    -0.273 OA
ATOM     25  N   UNL     1       6.556   2.651   2.870  0.00  0.00    -0.327 N 
ATOM     26  H   UNL     1       6.254   1.729   2.890  0.00  0.00    +0.145 HD
ATOM     27  H   UNL     1       7.121   2.991   3.582  0.00  0.00    +0.145 HD
ENDBRANCH  21  23
ENDBRANCH   6  15
BRANCH   1  29
ATOM     28  C   UNL     1      -0.019   1.526   0.010  0.00  0.00    +0.011 C 
ATOM     29  C   UNL     1       0.002  -0.004   0.002  0.00  0.00    -0.035 C 
ATOM     30  C   UNL     1       0.742  -0.511   1.242  0.00  0.00    +0.011 C 
ATOM     31  C   UNL     1      -1.433  -0.534   0.013  0.00  0.00    +0.011 C 
ENDBRANCH   1  29
TORSDOF 3
