REMARK  Name = ZINC04362947
REMARK  5 active torsions:
REMARK  status: ('A' for Active; 'I' for Inactive)
REMARK    1  A    between atoms: C_1  and  C_2
REMARK    2  A    between atoms: C_2  and  N_3
REMARK    3  A    between atoms: C_17  and  S_18
REMARK    4  A    between atoms: S_18  and  C_19
REMARK    5  A    between atoms: C_19  and  C_20
REMARK                            x       y       z     vdW  Elec       q    Type
REMARK                         _______ _______ _______ _____ _____    ______ ____
ROOT
ATOM      1  N   UNL     1       3.685   6.473   0.001  0.00  0.00    -0.286 N 
ATOM      2  C   UNL     1       2.340   6.596   0.015  0.00  0.00    +0.279 A 
ATOM      3  O   UNL     1       1.816   7.697   0.026  0.00  0.00    -0.265 OA
ATOM      4  C   UNL     1       1.554   5.424   0.016  0.00  0.00    +0.131 A 
ATOM      5  C   UNL     1       2.202   4.190   0.003  0.00  0.00    +0.104 A 
ATOM      6  C   UNL     1       1.148   3.166   0.008  0.00  0.00    +0.026 A 
ATOM      7  C   UNL     1       1.164   1.770   0.001  0.00  0.00    +0.012 A 
ATOM      8  C   UNL     1      -0.013   1.076   0.008  0.00  0.00    +0.001 A 
ATOM      9  C   UNL     1      -1.226   1.749   0.017  0.00  0.00    +0.002 A 
ATOM     10  C   UNL     1      -1.266   3.125   0.030  0.00  0.00    +0.026 A 
ATOM     11  C   UNL     1      -0.078   3.853   0.023  0.00  0.00    +0.049 A 
ATOM     12  N   UNL     1       0.186   5.206   0.027  0.00  0.00    -0.349 N 
ATOM     13  H   UNL     1      -0.488   5.904   0.038  0.00  0.00    +0.166 HD
ATOM     14  N   UNL     1       3.544   4.139  -0.009  0.00  0.00    -0.221 NA
ATOM     15  C   UNL     1       4.264   5.238  -0.011  0.00  0.00    +0.173 A 
ENDROOT
BRANCH   1  17
ATOM     16  C   UNL     1       4.833   8.082   1.440  0.00  0.00    +0.027 C 
ATOM     17  C   UNL     1       4.526   7.672  -0.001  0.00  0.00    +0.124 C 
ENDBRANCH   1  17
BRANCH  15  18
ATOM     18  S   UNL     1       6.022   5.113  -0.028  0.00  0.00    -0.078 S 
BRANCH  18  19
ATOM     19  C   UNL     1       6.209   3.313  -0.039  0.00  0.00    +0.173 C 
BRANCH  19  20
ATOM     20  C   UNL     1       7.674   2.960  -0.055  0.00  0.00    +0.229 C 
ATOM     21  O   UNL     1       8.509   3.840  -0.058  0.00  0.00    -0.275 OA
ATOM     22  N   UNL     1       8.056   1.668  -0.065  0.00  0.00    -0.264 N 
ATOM     23  C   UNL     1       9.408   1.343  -0.080  0.00  0.00    +0.164 A 
ATOM     24  N   UNL     1      10.453   2.147  -0.091  0.00  0.00    -0.233 NA
ATOM     25  C   UNL     1      11.682   1.669  -0.100  0.00  0.00    +0.120 A 
ATOM     26  C   UNL     1      11.852   0.324  -0.108  0.00  0.00    +0.068 A 
ATOM     27  S   UNL     1      10.152  -0.226  -0.095  0.00  0.00    -0.061 S 
ATOM     28  H   UNL     1       7.388   0.965  -0.062  0.00  0.00    +0.157 HD
ENDBRANCH  19  20
ENDBRANCH  18  19
ENDBRANCH  15  18
TORSDOF 4
