REMARK  Name = ZINC36001516
REMARK  11 active torsions:
REMARK  status: ('A' for Active; 'I' for Inactive)
REMARK    1  A    between atoms: C_1  and  C_2
REMARK    2  A    between atoms: C_2  and  N_3
REMARK    3  A    between atoms: C_4  and  C_22
REMARK    4  A    between atoms: C_5  and  C_17
REMARK    5  A    between atoms: C_6  and  C_11
REMARK    6  A    between atoms: C_17  and  O_19
REMARK    7  A    between atoms: O_19  and  C_20
REMARK    8  A    between atoms: C_20  and  C_21
REMARK    9  A    between atoms: C_22  and  N_23
REMARK   10  A    between atoms: C_27  and  C_30
REMARK   11  A    between atoms: C_31  and  C_33
REMARK                            x       y       z     vdW  Elec       q    Type
REMARK                         _______ _______ _______ _____ _____    ______ ____
ROOT
ATOM      1  N   UNL     1      -2.501   0.297   1.819  0.00  0.00    -0.258 N 
ATOM      2  C   UNL     1      -2.874   0.176   3.127  0.00  0.00    +0.041 C 
ATOM      3  C   UNL     1      -4.154  -0.088   3.465  0.00  0.00    +0.080 C 
ATOM      4  C   UNL     1      -5.162  -0.245   2.344  0.00  0.00    +0.144 C 
ATOM      5  N   UNL     1      -4.658  -0.095   0.969  0.00  0.00    -0.288 N 
ATOM      6  C   UNL     1      -3.349   0.173   0.791  0.00  0.00    +0.307 C 
ATOM      7  O   UNL     1      -2.924   0.303  -0.341  0.00  0.00    -0.252 OA
ATOM      8  H   UNL     1      -5.254  -0.184   0.209  0.00  0.00    +0.151 HD
ENDROOT
BRANCH   4   9
ATOM      9  C   UNL     1      -5.782  -1.613   2.465  0.00  0.00    -0.022 A 
ATOM     10  C   UNL     1      -5.103  -2.723   1.997  0.00  0.00    +0.006 A 
ATOM     11  C   UNL     1      -5.671  -3.978   2.107  0.00  0.00    +0.000 A 
ATOM     12  C   UNL     1      -6.918  -4.124   2.686  0.00  0.00    +0.000 A 
ATOM     13  C   UNL     1      -7.596  -3.014   3.155  0.00  0.00    +0.000 A 
ATOM     14  C   UNL     1      -7.026  -1.760   3.048  0.00  0.00    +0.006 A 
ENDBRANCH   4   9
BRANCH   1  16
ATOM     15  C   UNL     1      -0.882   2.099   1.481  0.00  0.00    +0.025 C 
ATOM     16  C   UNL     1      -1.095   0.585   1.525  0.00  0.00    +0.111 C 
ENDBRANCH   1  16
BRANCH   3  17
ATOM     17  C   UNL     1      -4.542  -0.215   4.820  0.00  0.00    +0.339 C 
ATOM     18  O   UNL     1      -4.650  -1.318   5.321  0.00  0.00    -0.245 OA
BRANCH  17  19
ATOM     19  O   UNL     1      -4.792   0.888   5.556  0.00  0.00    -0.462 OA
BRANCH  19  20
ATOM     20  C   UNL     1      -5.178   0.686   6.917  0.00  0.00    +0.229 C 
ATOM     21  C   UNL     1      -5.417   2.041   7.586  0.00  0.00    +0.048 C 
ENDBRANCH  19  20
ENDBRANCH  17  19
ENDBRANCH   3  17
BRANCH   2  22
ATOM     22  C   UNL     1      -1.840   0.340   4.211  0.00  0.00    +0.136 C 
BRANCH  22  23
ATOM     23  N   UNL     1      -0.874  -0.765   4.137  0.00  0.00    -0.294 NA
ATOM     24  C   UNL     1      -1.517  -2.048   4.448  0.00  0.00    +0.104 C 
ATOM     25  C   UNL     1      -0.528  -3.189   4.185  0.00  0.00    +0.124 C 
ATOM     26  N   UNL     1       0.710  -2.916   4.931  0.00  0.00    -0.292 N 
ATOM     27  C   UNL     1       1.339  -1.596   4.776  0.00  0.00    +0.087 C 
ATOM     28  C   UNL     1       0.277  -0.518   5.016  0.00  0.00    +0.107 C 
ATOM     29  C   UNL     1       2.471  -1.443   5.794  0.00  0.00    +0.029 C 
ATOM     30  C   UNL     1       1.252  -3.850   5.737  0.00  0.00    +0.247 C 
ATOM     31  O   UNL     1       2.215  -3.575   6.426  0.00  0.00    -0.270 OA
BRANCH  30  32
ATOM     32  C   UNL     1       0.677  -5.211   5.782  0.00  0.00    +0.037 A 
ATOM     33  C   UNL     1       0.014  -5.729   4.667  0.00  0.00    +0.014 A 
ATOM     34  C   UNL     1      -0.520  -6.999   4.715  0.00  0.00    +0.021 A 
ATOM     35  C   UNL     1      -0.401  -7.761   5.866  0.00  0.00    +0.041 A 
ATOM     36  C   UNL     1       0.255  -7.252   6.975  0.00  0.00    +0.021 A 
ATOM     37  C   UNL     1       0.799  -5.986   6.937  0.00  0.00    +0.014 A 
ATOM     38 CL   UNL     1      -1.077  -9.359   5.919  0.00  0.00    -0.084 Cl
ENDBRANCH  30  32
ENDBRANCH  22  23
ENDBRANCH   2  22
TORSDOF 8
