REMARK  Name = ZINC45826862
REMARK  7 active torsions:
REMARK  status: ('A' for Active; 'I' for Inactive)
REMARK    1  A    between atoms: C_1  and  C_2
REMARK    2  A    between atoms: C_3  and  C_16
REMARK    3  A    between atoms: N_5  and  C_7
REMARK    4  A    between atoms: C_7  and  C_8
REMARK    5  A    between atoms: C_17  and  C_18
REMARK    6  A    between atoms: N_20  and  N_21
REMARK    7  A    between atoms: C_22  and  C_24
REMARK                            x       y       z     vdW  Elec       q    Type
REMARK                         _______ _______ _______ _____ _____    ______ ____
ROOT
ATOM      1  C   UNL     1      -0.018   1.503   0.010  0.00  0.00    +0.068 C 
ATOM      2  C   UNL     1       0.002  -0.004   0.002  0.00  0.00    +0.069 A 
ATOM      3  C   UNL     1       0.008  -0.829  -1.147  0.00  0.00    +0.034 A 
ATOM      4  C   UNL     1       0.028  -2.142  -0.706  0.00  0.00    +0.135 A 
ATOM      5  N   UNL     1       0.034  -2.112   0.638  0.00  0.00    -0.248 N 
ATOM      6  N   UNL     1       0.023  -0.776   1.053  0.00  0.00    -0.174 NA
ATOM      7 CL   UNL     1       0.043  -3.562  -1.704  0.00  0.00    -0.062 Cl
ENDROOT
BRANCH   3   8
ATOM      8  C   UNL     1      -0.005  -0.378  -2.545  0.00  0.00    +0.018 C 
ATOM      9  C   UNL     1       0.894  -0.874  -3.423  0.00  0.00    +0.069 C 
BRANCH   9  10
ATOM     10  C   UNL     1       0.881  -0.439  -4.772  0.00  0.00    +0.253 C 
ATOM     11  O   UNL     1       0.060   0.382  -5.139  0.00  0.00    -0.269 OA
ATOM     12  N   UNL     1       1.778  -0.933  -5.648  0.00  0.00    -0.231 N 
ATOM     13  H   UNL     1       2.433  -1.587  -5.356  0.00  0.00    +0.173 HD
BRANCH  12  14
ATOM     14  N   UNL     1       1.766  -0.503  -6.982  0.00  0.00    -0.234 N 
ATOM     15  C   UNL     1       2.662  -0.997  -7.858  0.00  0.00    +0.226 C 
ATOM     16  O   UNL     1       3.481  -1.814  -7.492  0.00  0.00    -0.275 OA
ATOM     17  C   UNL     1       2.649  -0.535  -9.292  0.00  0.00    +0.110 C 
ATOM     18  H   UNL     1       1.111   0.151  -7.274  0.00  0.00    +0.173 HD
ENDBRANCH  12  14
ENDBRANCH   9  10
ENDBRANCH   3   8
BRANCH   5  19
ATOM     19  C   UNL     1       0.055  -3.281   1.520  0.00  0.00    +0.180 C 
BRANCH  19  20
ATOM     20  C   UNL     1       1.482  -3.663   1.816  0.00  0.00    -0.026 A 
ATOM     21  C   UNL     1       2.144  -4.554   0.992  0.00  0.00    +0.007 A 
ATOM     22  C   UNL     1       3.454  -4.904   1.262  0.00  0.00    +0.020 A 
ATOM     23  C   UNL     1       4.102  -4.363   2.358  0.00  0.00    +0.041 A 
ATOM     24  C   UNL     1       3.439  -3.471   3.182  0.00  0.00    +0.020 A 
ATOM     25  C   UNL     1       2.131  -3.117   2.907  0.00  0.00    +0.007 A 
ATOM     26 CL   UNL     1       5.746  -4.802   2.699  0.00  0.00    -0.084 Cl
ENDBRANCH  19  20
ENDBRANCH   5  19
TORSDOF 5
