REMARK  Name = ZINC60082122
REMARK  8 active torsions:
REMARK  status: ('A' for Active; 'I' for Inactive)
REMARK    1  A    between atoms: C_4  and  C_7
REMARK    2  A    between atoms: C_7  and  N_8
REMARK    3  A    between atoms: C_11  and  C_14
REMARK    4  A    between atoms: C_14  and  N_15
REMARK    5  A    between atoms: N_15  and  C_16
REMARK    6  A    between atoms: C_19  and  N_26
REMARK    7  A    between atoms: C_21  and  S_22
REMARK    8  A    between atoms: S_22  and  N_25
REMARK                            x       y       z     vdW  Elec       q    Type
REMARK                         _______ _______ _______ _____ _____    ______ ____
ROOT
ATOM      1  N   UNL     1       6.760  -3.472   5.031  0.00  0.00    -0.342 N 
ATOM      2  H   UNL     1       7.187  -3.767   4.212  0.00  0.00    +0.146 HD
ENDROOT
BRANCH   1   3
ATOM      3  C   UNL     1       7.375  -3.703   6.263  0.00  0.00    +0.054 A 
ATOM      4  C   UNL     1       6.761  -3.285   7.438  0.00  0.00    +0.027 A 
ATOM      5  C   UNL     1       7.372  -3.517   8.654  0.00  0.00    +0.034 A 
ATOM      6  C   UNL     1       8.594  -4.163   8.704  0.00  0.00    +0.128 A 
ATOM      7  C   UNL     1       9.207  -4.580   7.538  0.00  0.00    +0.063 A 
ATOM      8  C   UNL     1       8.599  -4.357   6.318  0.00  0.00    +0.128 A 
BRANCH   8   9
ATOM      9  S   UNL     1       9.379  -4.895   4.832  0.00  0.00    +0.058 S 
ATOM     10  O   UNL     1       9.360  -3.789   3.940  0.00  0.00    -0.153 OA
ATOM     11  O   UNL     1      10.583  -5.543   5.217  0.00  0.00    -0.153 OA
BRANCH   9  12
ATOM     12  N   UNL     1       8.408  -6.059   4.164  0.00  0.00    -0.203 NA
ATOM     13  H   UNL     1       7.583  -6.314   4.604  0.00  0.00    +0.144 HD
ATOM     14  H   UNL     1       8.665  -6.486   3.331  0.00  0.00    +0.144 HD
ENDBRANCH   9  12
ENDBRANCH   8   9
BRANCH   6  15
ATOM     15  N   UNL     1       9.246  -4.409  10.010  0.00  0.00    +0.056 N 
ATOM     16  O   UNL     1       8.711  -4.045  11.031  0.00  0.00    -0.126 OA
ATOM     17  O   UNL     1      10.314  -4.975  10.056  0.00  0.00    -0.126 OA
ENDBRANCH   6  15
ENDBRANCH   1   3
BRANCH   1  18
ATOM     18  C   UNL     1       5.468  -2.782   4.976  0.00  0.00    +0.105 C 
BRANCH  18  22
ATOM     19  N   UNL     1       4.153  -0.953   1.342  0.00  0.00    +0.382 N 
ATOM     20  C   UNL     1       3.203  -1.854   2.005  0.00  0.00    -0.078 C 
ATOM     21  C   UNL     1       3.614  -2.050   3.466  0.00  0.00    -0.014 C 
ATOM     22  C   UNL     1       5.019  -2.657   3.518  0.00  0.00    +0.003 C 
ATOM     23  C   UNL     1       5.987  -1.746   2.760  0.00  0.00    -0.014 C 
ATOM     24  C   UNL     1       5.489  -1.562   1.325  0.00  0.00    -0.078 C 
ATOM     25  H   UNL     1       4.190  -0.078   1.843  0.00  0.00    -0.081 HD
BRANCH  19  26
ATOM     26  C   UNL     1       3.711  -0.707  -0.038  0.00  0.00    -0.043 C 
BRANCH  26  30
ATOM     27  C   UNL     1      -0.017   1.378   0.010  0.00  0.00    +0.000 A 
ATOM     28  C   UNL     1       1.171   2.086   0.002  0.00  0.00    +0.000 A 
ATOM     29  C   UNL     1       2.377   1.411  -0.013  0.00  0.00    +0.002 A 
ATOM     30  C   UNL     1       2.396   0.029  -0.020  0.00  0.00    -0.064 A 
ATOM     31  C   UNL     1       1.208  -0.679  -0.012  0.00  0.00    +0.002 A 
ATOM     32  C   UNL     1       0.002  -0.004   0.002  0.00  0.00    +0.000 A 
ENDBRANCH  26  30
ENDBRANCH  19  26
ENDBRANCH  18  22
ENDBRANCH   1  18
TORSDOF 8
