REMARK  Name = ZINC01790891
REMARK  4 active torsions:
REMARK  status: ('A' for Active; 'I' for Inactive)
REMARK    1  A    between atoms: C_3  and  C_8
REMARK    2  A    between atoms: C_10  and  C_28
REMARK    3  A    between atoms: C_10  and  C_32
REMARK    4  A    between atoms: N_18  and  C_21
REMARK                            x       y       z     vdW  Elec       q    Type
REMARK                         _______ _______ _______ _____ _____    ______ ____
ROOT
ATOM      1  C   UNL     1       4.215   2.276   1.475  0.00  0.00    +0.128 C 
ATOM      2  N   UNL     1       4.373   3.559   1.465  0.00  0.00    -0.239 NA
ATOM      3  C   UNL     1       5.481   4.219   0.786  0.00  0.00    +0.285 C 
ATOM      4  C   UNL     1       6.153   3.294  -0.189  0.00  0.00    +0.100 A 
ATOM      5  C   UNL     1       7.010   3.805  -1.178  0.00  0.00    +0.262 A 
ATOM      6  O   UNL     1       7.212   5.005  -1.256  0.00  0.00    -0.267 OA
ATOM      7  N   UNL     1       7.606   2.959  -2.041  0.00  0.00    -0.274 N 
ATOM      8  H   UNL     1       8.198   3.309  -2.725  0.00  0.00    +0.173 HD
ATOM      9  C   UNL     1       7.390   1.633  -1.962  0.00  0.00    +0.335 A 
ATOM     10  O   UNL     1       7.941   0.888  -2.750  0.00  0.00    -0.246 OA
ATOM     11  N   UNL     1       6.572   1.119  -1.024  0.00  0.00    -0.250 N 
ATOM     12  C   UNL     1       5.942   1.948  -0.128  0.00  0.00    +0.124 A 
ATOM     13  N   UNL     1       5.099   1.434   0.831  0.00  0.00    -0.285 N 
ATOM     14  H   UNL     1       5.123   0.490   1.051  0.00  0.00    +0.155 HD
ENDROOT
BRANCH   1  17
ATOM     15  C   UNL     1       1.083   1.983   3.531  0.00  0.00    +0.002 A 
ATOM     16  C   UNL     1       2.157   2.529   2.857  0.00  0.00    +0.011 A 
ATOM     17  C   UNL     1       3.062   1.696   2.200  0.00  0.00    +0.016 A 
ATOM     18  C   UNL     1       2.876   0.314   2.228  0.00  0.00    +0.031 A 
ATOM     19  C   UNL     1       1.798  -0.222   2.906  0.00  0.00    +0.042 A 
ATOM     20  C   UNL     1       0.904   0.612   3.556  0.00  0.00    +0.020 A 
ATOM     21 CL   UNL     1       1.565  -1.941   2.942  0.00  0.00    -0.084 Cl
ENDBRANCH   1  17
BRANCH  11  22
ATOM     22  C   UNL     1       6.363  -0.266  -0.962  0.00  0.00    +0.053 A 
ATOM     23  C   UNL     1       5.320  -0.844  -1.672  0.00  0.00    +0.029 A 
ATOM     24  C   UNL     1       5.115  -2.208  -1.610  0.00  0.00    +0.040 A 
ATOM     25  C   UNL     1       5.950  -3.000  -0.839  0.00  0.00    +0.124 A 
ATOM     26  C   UNL     1       6.991  -2.425  -0.130  0.00  0.00    +0.040 A 
ATOM     27  C   UNL     1       7.203  -1.062  -0.194  0.00  0.00    +0.029 A 
ATOM     28  F   UNL     1       5.748  -4.334  -0.779  0.00  0.00    -0.205 F 
ENDBRANCH  11  22
BRANCH   3  29
ATOM     29  C   UNL     1       6.504   4.678   1.826  0.00  0.00    +0.428 C 
ATOM     30  F   UNL     1       6.979   3.569   2.535  0.00  0.00    -0.167 F 
ATOM     31  F   UNL     1       7.572   5.313   1.182  0.00  0.00    -0.167 F 
ATOM     32  F   UNL     1       5.897   5.573   2.714  0.00  0.00    -0.167 F 
ENDBRANCH   3  29
BRANCH   3  33
ATOM     33  C   UNL     1       4.952   5.441   0.033  0.00  0.00    +0.428 C 
ATOM     34  F   UNL     1       4.037   6.126   0.840  0.00  0.00    -0.167 F 
ATOM     35  F   UNL     1       6.017   6.289  -0.289  0.00  0.00    -0.167 F 
ATOM     36  F   UNL     1       4.316   5.025  -1.142  0.00  0.00    -0.167 F 
ENDBRANCH   3  33
TORSDOF 4
