REMARK  Name = ZINC39688445
REMARK  6 active torsions:
REMARK  status: ('A' for Active; 'I' for Inactive)
REMARK    1  A    between atoms: C_1  and  C_2
REMARK    2  A    between atoms: C_2  and  C_4
REMARK    3  A    between atoms: C_2  and  N_12
REMARK    4  A    between atoms: C_4  and  C_5
REMARK    5  A    between atoms: C_13  and  C_15
REMARK    6  A    between atoms: C_26  and  C_28
REMARK                            x       y       z     vdW  Elec       q    Type
REMARK                         _______ _______ _______ _____ _____    ______ ____
ROOT
ATOM      1  C   UNL     1       2.672  -1.418   2.614  0.00  0.00    +0.100 C 
ATOM      2  C   UNL     1       2.454  -2.948   2.643  0.00  0.00    +0.121 C 
ATOM      3  N   UNL     1       3.602  -3.504   1.888  0.00  0.00    -0.296 N 
ATOM      4  C   UNL     1       4.755  -2.668   2.301  0.00  0.00    +0.115 C 
ATOM      5  C   UNL     1       4.184  -1.239   2.393  0.00  0.00    -0.004 C 
ATOM      6  C   UNL     1       4.806  -0.497   3.571  0.00  0.00    -0.010 C 
ATOM      7  C   UNL     1       6.298  -0.279   3.302  0.00  0.00    -0.082 C 
ATOM      8  N   UNL     1       6.466   0.495   2.066  0.00  0.00    +0.379 N 
ATOM      9  C   UNL     1       5.948  -0.267   0.923  0.00  0.00    -0.082 C 
ATOM     10  C   UNL     1       4.442  -0.484   1.092  0.00  0.00    -0.010 C 
ATOM     11  C   UNL     1       3.598  -4.537   1.022  0.00  0.00    +0.247 C 
ATOM     12  O   UNL     1       4.643  -4.931   0.541  0.00  0.00    -0.270 OA
ATOM     13  H   UNL     1       5.961   1.365   2.145  0.00  0.00    -0.086 HD
ATOM     14  H   UNL     1       7.445   0.690   1.923  0.00  0.00    -0.086 HD
ENDROOT
BRANCH  11  15
ATOM     15  C   UNL     1       2.324  -5.191   0.658  0.00  0.00    +0.045 A 
ATOM     16  C   UNL     1       1.431  -5.595   1.657  0.00  0.00    +0.014 A 
ATOM     17  C   UNL     1       0.242  -6.205   1.320  0.00  0.00    +0.001 A 
ATOM     18  C   UNL     1      -0.083  -6.425  -0.010  0.00  0.00    +0.012 A 
ATOM     19  C   UNL     1       0.791  -6.031  -1.017  0.00  0.00    +0.031 A 
ATOM     20  C   UNL     1       2.003  -5.403  -0.689  0.00  0.00    +0.006 A 
ATOM     21  C   UNL     1       2.730  -5.086  -1.943  0.00  0.00    -0.006 A 
ATOM     22  C   UNL     1       3.958  -4.479  -2.174  0.00  0.00    +0.009 A 
ATOM     23  C   UNL     1       4.410  -4.302  -3.473  0.00  0.00    +0.001 A 
ATOM     24  C   UNL     1       3.647  -4.725  -4.543  0.00  0.00    +0.001 A 
ATOM     25  C   UNL     1       2.420  -5.333  -4.329  0.00  0.00    +0.012 A 
ATOM     26  C   UNL     1       1.955  -5.517  -3.033  0.00  0.00    +0.030 A 
ATOM     27  C   UNL     1       0.718  -6.132  -2.494  0.00  0.00    +0.194 C 
ATOM     28  O   UNL     1      -0.189  -6.615  -3.141  0.00  0.00    -0.287 OA
ENDBRANCH  11  15
BRANCH   1  30
ATOM     29  N   UNL     1       1.562   0.504   1.524  0.00  0.00    -0.312 N 
ATOM     30  C   UNL     1       1.899  -0.799   1.478  0.00  0.00    +0.218 C 
ATOM     31  O   UNL     1       1.580  -1.475   0.523  0.00  0.00    -0.275 OA
ATOM     32  H   UNL     1       1.754   1.028   2.318  0.00  0.00    +0.149 HD
BRANCH  29  34
ATOM     33  C   UNL     1       1.958   1.538  -0.656  0.00  0.00    +0.028 C 
ATOM     34  C   UNL     1       0.904   1.132   0.376  0.00  0.00    +0.074 C 
BRANCH  34  35
ATOM     35  C   UNL     1       0.140   2.374   0.840  0.00  0.00    +0.057 C 
BRANCH  35  36
ATOM     36  C   UNL     1      -0.980   1.960   1.760  0.00  0.00    -0.045 A 
ATOM     37  C   UNL     1      -2.193   1.557   1.233  0.00  0.00    +0.006 A 
ATOM     38  C   UNL     1      -3.220   1.177   2.075  0.00  0.00    +0.038 A 
ATOM     39  C   UNL     1      -3.034   1.199   3.447  0.00  0.00    +0.123 A 
ATOM     40  C   UNL     1      -1.819   1.602   3.974  0.00  0.00    +0.038 A 
ATOM     41  C   UNL     1      -0.791   1.977   3.129  0.00  0.00    +0.006 A 
ATOM     42  F   UNL     1      -4.038   0.828   4.271  0.00  0.00    -0.205 F 
ENDBRANCH  35  36
ENDBRANCH  34  35
ENDBRANCH  29  34
ENDBRANCH   1  30
TORSDOF 5
