REMARK  Name = ZINC13013907
REMARK  12 active torsions:
REMARK  status: ('A' for Active; 'I' for Inactive)
REMARK    1  A    between atoms: C_1  and  C_2
REMARK    2  A    between atoms: C_7  and  C_8
REMARK    3  A    between atoms: C_11  and  C_12
REMARK    4  A    between atoms: C_12  and  C_13
REMARK    5  A    between atoms: N_15  and  C_16
REMARK    6  A    between atoms: N_15  and  C_20
REMARK    7  A    between atoms: C_16  and  C_17
REMARK    8  A    between atoms: C_17  and  C_18
REMARK    9  A    between atoms: C_17  and  C_19
REMARK   10  A    between atoms: C_21  and  N_36
REMARK   11  A    between atoms: N_22  and  C_29
REMARK   12  A    between atoms: C_29  and  C_30
REMARK                            x       y       z     vdW  Elec       q    Type
REMARK                         _______ _______ _______ _____ _____    ______ ____
ROOT
ATOM      1  C   UNL     1       1.250  -3.115  -4.626  0.00  0.00    +0.224 C 
ATOM      2  O   UNL     1       2.122  -3.570  -3.917  0.00  0.00    -0.275 OA
ATOM      3  N   UNL     1       1.545  -2.696  -5.875  0.00  0.00    -0.264 N 
ENDROOT
BRANCH   3   4
ATOM      4  C   UNL     1       2.884  -2.699  -6.321  0.00  0.00    +0.140 A 
ATOM      5  C   UNL     1       3.840  -1.940  -5.678  0.00  0.00    +0.128 A 
ATOM      6  N   UNL     1       5.136  -1.963  -6.136  0.00  0.00    -0.276 N 
ATOM      7  C   UNL     1       5.469  -2.718  -7.199  0.00  0.00    +0.331 A 
ATOM      8  O   UNL     1       6.621  -2.725  -7.589  0.00  0.00    -0.246 OA
ATOM      9  N   UNL     1       4.551  -3.465  -7.838  0.00  0.00    -0.273 N 
ATOM     10  H   UNL     1       4.816  -4.000  -8.602  0.00  0.00    +0.173 HD
ATOM     11  C   UNL     1       3.268  -3.481  -7.426  0.00  0.00    +0.277 A 
ATOM     12  O   UNL     1       2.445  -4.165  -8.011  0.00  0.00    -0.266 OA
BRANCH   5  13
ATOM     13  N   UNL     1       3.500  -1.168  -4.592  0.00  0.00    -0.343 N 
ATOM     14  H   UNL     1       2.598  -1.201  -4.237  0.00  0.00    +0.144 HD
ATOM     15  H   UNL     1       4.162  -0.591  -4.181  0.00  0.00    +0.144 HD
ENDBRANCH   5  13
BRANCH   6  16
ATOM     16  C   UNL     1       6.162  -1.162  -5.463  0.00  0.00    +0.163 C 
BRANCH  16  17
ATOM     17  C   UNL     1       6.798  -1.978  -4.368  0.00  0.00    -0.028 A 
ATOM     18  C   UNL     1       6.266  -1.957  -3.092  0.00  0.00    +0.005 A 
ATOM     19  C   UNL     1       6.851  -2.706  -2.087  0.00  0.00    +0.000 A 
ATOM     20  C   UNL     1       7.967  -3.475  -2.359  0.00  0.00    +0.000 A 
ATOM     21  C   UNL     1       8.498  -3.496  -3.635  0.00  0.00    +0.000 A 
ATOM     22  C   UNL     1       7.912  -2.751  -4.640  0.00  0.00    +0.005 A 
ENDBRANCH  16  17
ENDBRANCH   6  16
ENDBRANCH   3   4
BRANCH   1  23
ATOM     23  C   UNL     1      -0.164  -3.017  -4.114  0.00  0.00    +0.135 C 
BRANCH  23  34
ATOM     24  C   UNL     1       1.063   0.302   0.431  0.00  0.00    +0.044 C 
ATOM     25  C   UNL     1       0.643  -1.111   0.120  0.00  0.00    -0.047 A 
ATOM     26  C   UNL     1       0.451  -1.497  -1.189  0.00  0.00    +0.015 A 
ATOM     27  C   UNL     1       0.062  -2.805  -1.471  0.00  0.00    +0.024 A 
ATOM     28  C   UNL     1      -0.132  -3.725  -0.426  0.00  0.00    +0.135 A 
ATOM     29  C   UNL     1       0.066  -3.315   0.886  0.00  0.00    +0.050 A 
ATOM     30  C   UNL     1       0.456  -2.020   1.151  0.00  0.00    -0.044 A 
ATOM     31  C   UNL     1       0.676  -1.584   2.577  0.00  0.00    +0.044 C 
ATOM     32  O   UNL     1      -0.499  -4.895  -0.986  0.00  0.00    -0.463 OA
ATOM     33  C   UNL     1      -0.554  -4.790  -2.325  0.00  0.00    +0.200 A 
ATOM     34  C   UNL     1      -0.226  -3.547  -2.705  0.00  0.00    +0.007 A 
ENDBRANCH  23  34
ENDBRANCH   1  23
BRANCH   3  35
ATOM     35  C   UNL     1       0.477  -2.239  -6.766  0.00  0.00    +0.117 C 
BRANCH  35  36
ATOM     36  C   UNL     1       0.205  -0.754  -6.516  0.00  0.00    +0.001 C 
ATOM     37  C   UNL     1       1.433   0.064  -6.919  0.00  0.00    +0.009 C 
ATOM     38  C   UNL     1      -1.000  -0.309  -7.349  0.00  0.00    +0.009 C 
ENDBRANCH  35  36
ENDBRANCH   3  35
TORSDOF 8
