REMARK  Name = ZINC20828876
REMARK  10 active torsions:
REMARK  status: ('A' for Active; 'I' for Inactive)
REMARK    1  A    between atoms: C_1  and  C_2
REMARK    2  A    between atoms: C_5  and  S_13
REMARK    3  A    between atoms: N_6  and  C_7
REMARK    4  A    between atoms: S_13  and  C_14
REMARK    5  A    between atoms: C_14  and  C_15
REMARK    6  A    between atoms: N_17  and  C_18
REMARK    7  A    between atoms: C_20  and  C_26
REMARK    8  A    between atoms: C_20  and  C_27
REMARK    9  A    between atoms: C_22  and  C_24
REMARK   10  A    between atoms: C_22  and  C_25
REMARK                            x       y       z     vdW  Elec       q    Type
REMARK                         _______ _______ _______ _____ _____    ______ ____
ROOT
ATOM      1  C   UNL     1      -1.412  -0.526   0.013  0.00  0.00    +0.224 C 
ATOM      2  O   UNL     1      -2.344   0.250   0.026  0.00  0.00    -0.275 OA
ATOM      3  N   UNL     1      -1.640  -1.854   0.008  0.00  0.00    -0.312 N 
ATOM      4  H   UNL     1      -0.794  -2.557  -0.004  0.00  0.00    +0.149 HD
ENDROOT
BRANCH   3   5
ATOM      5  C   UNL     1      -3.018  -2.362   0.018  0.00  0.00    +0.070 C 
ATOM      6  C   UNL     1      -3.507  -2.460   1.463  0.00  0.00    +0.009 C 
ATOM      7  C   UNL     1      -4.931  -3.008   1.506  0.00  0.00    -0.072 C 
ATOM      8  N   UNL     1      -5.100  -4.208   0.713  0.00  0.00    +0.386 N 
ATOM      9  C   UNL     1      -4.462  -4.323  -0.582  0.00  0.00    -0.072 C 
ATOM     10  C   UNL     1      -3.043  -3.760  -0.599  0.00  0.00    +0.009 C 
ATOM     11  C   UNL     1      -5.297  -3.641  -1.673  0.00  0.00    -0.010 C 
ATOM     12  C   UNL     1      -4.373  -5.822  -0.945  0.00  0.00    -0.010 C 
ATOM     13  C   UNL     1      -5.915  -1.915   1.072  0.00  0.00    -0.010 C 
ATOM     14  C   UNL     1      -5.252  -3.354   2.977  0.00  0.00    -0.010 C 
ATOM     15  H   UNL     1      -4.716  -5.074   1.272  0.00  0.00    -0.084 HD
ATOM     16  H   UNL     1      -6.168  -4.356   0.495  0.00  0.00    -0.084 HD
ENDBRANCH   3   5
BRANCH   1  17
ATOM     17  C   UNL     1       0.002  -0.004   0.002  0.00  0.00    +0.173 C 
BRANCH  17  18
ATOM     18  S   UNL     1      -0.022   1.806   0.012  0.00  0.00    -0.076 S 
BRANCH  18  23
ATOM     19  C   UNL     1       4.743   4.167  -0.021  0.00  0.00    +0.088 C 
ATOM     20  C   UNL     1       3.651   3.128  -0.016  0.00  0.00    +0.135 A 
ATOM     21  N   UNL     1       3.814   1.835  -0.025  0.00  0.00    -0.133 NA
ATOM     22  N   UNL     1       2.673   1.245  -0.011  0.00  0.00    -0.122 NA
ATOM     23  C   UNL     1       1.708   2.135  -0.003  0.00  0.00    +0.197 A 
ATOM     24  N   UNL     1       2.302   3.368  -0.002  0.00  0.00    -0.274 N 
BRANCH  24  25
ATOM     25  C   UNL     1       1.663   4.616   0.012  0.00  0.00    +0.050 A 
ATOM     26  C   UNL     1       1.793   5.475  -1.071  0.00  0.00    +0.026 A 
ATOM     27  C   UNL     1       1.159   6.702  -1.057  0.00  0.00    +0.002 A 
ATOM     28  C   UNL     1       0.404   7.080   0.039  0.00  0.00    +0.000 A 
ATOM     29  C   UNL     1       0.278   6.228   1.121  0.00  0.00    +0.002 A 
ATOM     30  C   UNL     1       0.905   4.998   1.110  0.00  0.00    +0.026 A 
ENDBRANCH  24  25
ENDBRANCH  18  23
ENDBRANCH  17  18
ENDBRANCH   1  17
TORSDOF 5
