REMARK  Name = ZINC64637462
REMARK  8 active torsions:
REMARK  status: ('A' for Active; 'I' for Inactive)
REMARK    1  A    between atoms: C_1  and  C_2
REMARK    2  A    between atoms: C_5  and  N_9
REMARK    3  A    between atoms: C_10  and  C_12
REMARK    4  A    between atoms: N_15  and  S_18
REMARK    5  A    between atoms: S_18  and  C_21
REMARK    6  A    between atoms: C_23  and  C_36
REMARK    7  A    between atoms: C_25  and  C_35
REMARK    8  A    between atoms: C_26  and  C_27
REMARK                            x       y       z     vdW  Elec       q    Type
REMARK                         _______ _______ _______ _____ _____    ______ ____
ROOT
ATOM      1  C   UNL     1      -0.146  -6.324  -1.185  0.00  0.00    +0.078 C 
ATOM      2  C   UNL     1      -1.388  -6.761  -0.405  0.00  0.00    +0.030 C 
ATOM      3  C   UNL     1      -1.455  -8.292  -0.378  0.00  0.00    +0.110 C 
ATOM      4  N   UNL     1      -1.401  -8.793  -1.758  0.00  0.00    -0.180 NA
ATOM      5  C   UNL     1      -0.296  -8.360  -2.624  0.00  0.00    +0.110 C 
ATOM      6  C   UNL     1      -0.242  -6.829  -2.626  0.00  0.00    +0.030 C 
ENDROOT
BRANCH   1   8
ATOM      7  N   UNL     1       0.035  -4.149  -0.019  0.00  0.00    -0.284 N 
ATOM      8  C   UNL     1      -0.058  -4.819  -1.185  0.00  0.00    +0.220 C 
ATOM      9  O   UNL     1      -0.071  -4.211  -2.235  0.00  0.00    -0.275 OA
ATOM     10  H   UNL     1       0.127  -4.637   0.814  0.00  0.00    +0.155 HD
BRANCH   7  15
ATOM     11  C   UNL     1      -0.117   1.523   0.013  0.00  0.00    +0.044 C 
ATOM     12  C   UNL     1      -0.076   0.017   0.005  0.00  0.00    -0.049 A 
ATOM     13  C   UNL     1      -0.660  -0.683  -1.035  0.00  0.00    +0.005 A 
ATOM     14  C   UNL     1      -0.625  -2.064  -1.046  0.00  0.00    +0.025 A 
ATOM     15  C   UNL     1      -0.002  -2.750  -0.011  0.00  0.00    +0.052 A 
ATOM     16  C   UNL     1       0.585  -2.044   1.032  0.00  0.00    +0.062 A 
ATOM     17  C   UNL     1       0.550  -0.662   1.034  0.00  0.00    +0.025 A 
ATOM     18 CL   UNL     1       1.365  -2.896   2.327  0.00  0.00    -0.082 Cl
ENDBRANCH   7  15
ENDBRANCH   1   8
BRANCH   4  19
ATOM     19  S   UNL     1      -2.564  -9.825  -2.326  0.00  0.00    +0.044 S 
ATOM     20  O   UNL     1      -1.894 -10.634  -3.283  0.00  0.00    -0.157 OA
ATOM     21  O   UNL     1      -3.136 -10.405  -1.161  0.00  0.00    -0.157 OA
BRANCH  19  22
ATOM     22  C   UNL     1      -3.775  -8.756  -3.151  0.00  0.00    +0.228 C 
ATOM     23  C   UNL     1      -3.084  -7.786  -4.090  0.00  0.00    +0.046 C 
ATOM     24  N   UNL     1      -3.350  -6.598  -3.654  0.00  0.00    -0.259 NA
ATOM     25  C   UNL     1      -4.119  -6.585  -2.558  0.00  0.00    +0.049 C 
ATOM     26  C   UNL     1      -4.450  -7.836  -2.150  0.00  0.00    +0.066 C 
ATOM     27  C   UNL     1      -4.567  -5.327  -1.859  0.00  0.00    +0.066 C 
ATOM     28  C   UNL     1      -2.249  -8.138  -5.295  0.00  0.00    +0.063 C 
BRANCH  26  29
ATOM     29  C   UNL     1      -5.271  -8.216  -1.002  0.00  0.00    +0.247 C 
ATOM     30  O   UNL     1      -4.743  -8.498   0.058  0.00  0.00    -0.270 OA
ATOM     31  N   UNL     1      -6.614  -8.256  -1.117  0.00  0.00    -0.298 N 
ATOM     32  C   UNL     1      -7.260  -8.033  -2.417  0.00  0.00    +0.108 C 
ATOM     33  C   UNL     1      -8.196  -9.210  -2.710  0.00  0.00    +0.019 C 
ATOM     34  C   UNL     1      -9.173  -9.383  -1.544  0.00  0.00    +0.003 C 
ATOM     35  C   UNL     1      -8.392  -9.693  -0.265  0.00  0.00    +0.019 C 
ATOM     36  C   UNL     1      -7.458  -8.528   0.054  0.00  0.00    +0.108 C 
ENDBRANCH  26  29
ENDBRANCH  19  22
ENDBRANCH   4  19
TORSDOF 5
