REMARK  Name = ZINC40796790
REMARK  4 active torsions:
REMARK  status: ('A' for Active; 'I' for Inactive)
REMARK    1  A    between atoms: C_1  and  C_2
REMARK    2  A    between atoms: C_10  and  N_27
REMARK    3  A    between atoms: C_11  and  O_15
REMARK    4  A    between atoms: O_15  and  C_16
REMARK                            x       y       z     vdW  Elec       q    Type
REMARK                         _______ _______ _______ _____ _____    ______ ____
ROOT
ATOM      1  C   UNL     1      -0.123   1.500  -0.190  0.00  0.00    +0.045 C 
ATOM      2  C   UNL     1      -0.084  -0.002  -0.070  0.00  0.00    -0.032 A 
ATOM      3  C   UNL     1      -0.059  -0.605   1.181  0.00  0.00    +0.008 A 
ATOM      4  C   UNL     1      -0.024  -1.986   1.247  0.00  0.00    +0.044 A 
ATOM      5  C   UNL     1      -0.015  -2.720   0.065  0.00  0.00    +0.124 A 
ATOM      6  N   UNL     1      -0.040  -2.107  -1.109  0.00  0.00    -0.240 NA
ATOM      7  C   UNL     1      -0.080  -0.792  -1.202  0.00  0.00    +0.116 A 
ATOM      8  N   UNL     1       0.021  -4.110   0.116  0.00  0.00    -0.283 N 
ATOM      9  C   UNL     1      -0.085  -4.852  -1.055  0.00  0.00    +0.152 A 
ATOM     10  C   UNL     1      -0.153  -6.247  -1.008  0.00  0.00    +0.128 A 
ATOM     11  C   UNL     1      -0.259  -6.942  -2.211  0.00  0.00    +0.246 A 
ATOM     12  N   UNL     1      -0.291  -6.258  -3.351  0.00  0.00    -0.199 NA
ATOM     13  C   UNL     1      -0.224  -4.942  -3.353  0.00  0.00    +0.227 A 
ATOM     14  N   UNL     1      -0.129  -4.245  -2.238  0.00  0.00    -0.218 NA
ATOM     15  H   UNL     1       0.119  -4.561   0.969  0.00  0.00    +0.155 HD
ENDROOT
BRANCH  10  16
ATOM     16  N   UNL     1      -0.116  -6.929   0.218  0.00  0.00    -0.351 N 
ATOM     17  H   UNL     1      -0.042  -6.432   1.048  0.00  0.00    +0.143 HD
ATOM     18  H   UNL     1      -0.164  -7.898   0.235  0.00  0.00    +0.143 HD
ENDBRANCH  10  16
BRANCH  11  19
ATOM     19  O   UNL     1      -0.328  -8.297  -2.220  0.00  0.00    -0.434 OA
BRANCH  19  20
ATOM     20  C   UNL     1      -0.318  -8.928  -3.423  0.00  0.00    +0.156 A 
ATOM     21  C   UNL     1      -1.497  -9.353  -3.992  0.00  0.00    +0.049 A 
ATOM     22  C   UNL     1      -1.503 -10.000  -5.224  0.00  0.00    +0.019 A 
ATOM     23  C   UNL     1      -0.342 -10.232  -5.899  0.00  0.00    +0.027 A 
ATOM     24  C   UNL     1       0.882  -9.813  -5.351  0.00  0.00    +0.018 A 
ATOM     25  C   UNL     1       0.900  -9.148  -4.100  0.00  0.00    +0.114 A 
ATOM     26  N   UNL     1       2.061  -8.745  -3.577  0.00  0.00    -0.251 NA
ATOM     27  C   UNL     1       3.196  -8.946  -4.201  0.00  0.00    +0.111 A 
ATOM     28  C   UNL     1       3.249  -9.589  -5.436  0.00  0.00    +0.020 A 
ATOM     29  C   UNL     1       2.099 -10.037  -6.021  0.00  0.00    +0.013 A 
ATOM     30 BR   UNL     1      -0.378 -11.114  -7.572  0.00  0.00    -0.050 Br
ENDBRANCH  19  20
ENDBRANCH  11  19
TORSDOF 3
