REMARK  Name = ZINC63925903
REMARK  3 active torsions:
REMARK  status: ('A' for Active; 'I' for Inactive)
REMARK    1  A    between atoms: C_12  and  C_16
REMARK    2  A    between atoms: C_16  and  C_17
REMARK    3  A    between atoms: C_17  and  N_18
REMARK                            x       y       z     vdW  Elec       q    Type
REMARK                         _______ _______ _______ _____ _____    ______ ____
ROOT
ATOM      1  C   UNL     1      -0.017   1.367   0.010  0.00  0.00    +0.001 A 
ATOM      2  C   UNL     1       1.160   2.102   0.002  0.00  0.00    +0.001 A 
ATOM      3  C   UNL     1       2.373   1.442  -0.013  0.00  0.00    +0.016 A 
ATOM      4  C   UNL     1       2.401   0.063  -0.020  0.00  0.00    +0.022 A 
ATOM      5  C   UNL     1       1.227  -0.707  -0.013  0.00  0.00    +0.004 A 
ATOM      6  C   UNL     1       0.002  -0.004   0.002  0.00  0.00    +0.010 A 
ATOM      7  C   UNL     1       1.421  -2.170  -0.024  0.00  0.00    +0.080 A 
ATOM      8  C   UNL     1       0.419  -3.189  -0.020  0.00  0.00    +0.260 A 
ATOM      9  O   UNL     1      -0.764  -2.894  -0.007  0.00  0.00    -0.267 OA
ATOM     10  N   UNL     1       0.801  -4.480  -0.031  0.00  0.00    -0.310 N 
ATOM     11  H   UNL     1       0.126  -5.176  -0.029  0.00  0.00    +0.170 HD
ATOM     12  C   UNL     1       2.113  -4.824  -0.046  0.00  0.00    +0.113 A 
ATOM     13  N   UNL     1       3.050  -3.913  -0.050  0.00  0.00    -0.226 NA
ATOM     14  C   UNL     1       2.746  -2.617  -0.039  0.00  0.00    +0.116 A 
ATOM     15  S   UNL     1       3.714  -1.130  -0.040  0.00  0.00    -0.068 S 
ENDROOT
BRANCH  12  16
ATOM     16  C   UNL     1       2.496  -6.281  -0.059  0.00  0.00    +0.099 C 
BRANCH  16  17
ATOM     17  C   UNL     1       4.020  -6.408  -0.075  0.00  0.00    +0.174 C 
BRANCH  17  18
ATOM     18  N   UNL     1       4.393  -7.825  -0.087  0.00  0.00    -0.183 N 
ATOM     19  N   UNL     1       4.583  -8.539   0.966  0.00  0.00    -0.161 NA
ATOM     20  C   UNL     1       4.903  -9.758   0.595  0.00  0.00    +0.156 A 
ATOM     21  C   UNL     1       4.896  -9.748  -0.801  0.00  0.00    +0.156 A 
ATOM     22  N   UNL     1       4.568  -8.525  -1.151  0.00  0.00    -0.161 NA
ENDBRANCH  17  18
ENDBRANCH  16  17
ENDBRANCH  12  16
TORSDOF 3
