REMARK  Name = ZINC36526772
REMARK  18 active torsions:
REMARK  status: ('A' for Active; 'I' for Inactive)
REMARK    1  A    between atoms: C_1  and  C_2
REMARK    2  A    between atoms: C_2  and  C_3
REMARK    3  A    between atoms: C_3  and  C_4
REMARK    4  A    between atoms: C_4  and  C_5
REMARK    5  A    between atoms: C_5  and  C_7
REMARK    6  A    between atoms: C_5  and  C_9
REMARK    7  A    between atoms: C_7  and  C_8
REMARK    8  A    between atoms: N_11  and  C_12
REMARK    9  A    between atoms: N_11  and  C_13
REMARK   10  A    between atoms: C_13  and  C_15
REMARK   11  A    between atoms: C_13  and  C_24
REMARK   12  A    between atoms: C_16  and  O_23
REMARK   13  A    between atoms: C_18  and  O_22
REMARK   14  A    between atoms: C_20  and  O_21
REMARK   15  A    between atoms: N_26  and  C_27
REMARK   16  A    between atoms: C_27  and  S_28
REMARK   17  A    between atoms: S_28  and  C_31
REMARK   18  A    between atoms: C_34  and  C_37
REMARK                            x       y       z     vdW  Elec       q    Type
REMARK                         _______ _______ _______ _____ _____    ______ ____
ROOT
ATOM      1  C   UNL     1      -3.641  -5.950   1.033  0.00  0.00    +0.199 C 
ENDROOT
BRANCH   1   2
ATOM      2  C   UNL     1      -4.742  -6.134   0.021  0.00  0.00    +0.065 A 
ATOM      3  C   UNL     1      -5.886  -6.840   0.361  0.00  0.00    +0.129 A 
ATOM      4  C   UNL     1      -6.900  -7.009  -0.570  0.00  0.00    +0.091 A 
ATOM      5  C   UNL     1      -6.769  -6.472  -1.842  0.00  0.00    +0.124 A 
ATOM      6  C   UNL     1      -5.626  -5.765  -2.182  0.00  0.00    +0.091 A 
ATOM      7  C   UNL     1      -4.614  -5.592  -1.250  0.00  0.00    +0.129 A 
BRANCH   7   8
ATOM      8  O   UNL     1      -3.496  -4.896  -1.581  0.00  0.00    -0.506 OA
ATOM      9  H   UNL     1      -2.790  -5.440  -1.957  0.00  0.00    +0.292 HD
ENDBRANCH   7   8
BRANCH   5  10
ATOM     10  O   UNL     1      -7.762  -6.638  -2.755  0.00  0.00    -0.507 OA
ATOM     11  H   UNL     1      -8.430  -5.939  -2.742  0.00  0.00    +0.292 HD
ENDBRANCH   5  10
BRANCH   3  12
ATOM     12  O   UNL     1      -6.014  -7.366   1.608  0.00  0.00    -0.506 OA
ATOM     13  H   UNL     1      -6.482  -6.793   2.231  0.00  0.00    +0.292 HD
ENDBRANCH   3  12
ENDBRANCH   1   2
BRANCH   1  16
ATOM     14  C   UNL     1      -1.990  -4.162   0.917  0.00  0.00    +0.219 C 
ATOM     15  O   UNL     1      -1.160  -4.985   0.593  0.00  0.00    -0.275 OA
ATOM     16  N   UNL     1      -3.272  -4.534   1.101  0.00  0.00    -0.289 N 
ATOM     17  C   UNL     1      -4.297  -3.522   1.369  0.00  0.00    +0.133 C 
BRANCH  14  18
ATOM     18  C   UNL     1      -1.587  -2.723   1.115  0.00  0.00    +0.075 C 
BRANCH  18  19
ATOM     19  C   UNL     1      -1.459  -2.431   2.612  0.00  0.00    +0.009 C 
ATOM     20  C   UNL     1      -0.359  -3.309   3.211  0.00  0.00    +0.004 C 
ENDBRANCH  18  19
BRANCH  18  21
ATOM     21  C   UNL     1      -0.242  -2.472   0.430  0.00  0.00    +0.013 C 
BRANCH  21  22
ATOM     22  C   UNL     1       0.076  -0.976   0.465  0.00  0.00    +0.000 C 
BRANCH  22  24
ATOM     23  C   UNL     1       1.778   0.762  -0.106  0.00  0.00    +0.004 C 
ATOM     24  C   UNL     1       1.460  -0.734  -0.142  0.00  0.00    -0.003 C 
ENDBRANCH  22  24
ENDBRANCH  21  22
ENDBRANCH  18  21
ENDBRANCH  14  18
ENDBRANCH   1  16
BRANCH   1  25
ATOM     25  C   UNL     1      -4.120  -6.410   2.386  0.00  0.00    +0.240 C 
ATOM     26  O   UNL     1      -4.707  -5.640   3.115  0.00  0.00    -0.273 OA
ATOM     27  N   UNL     1      -3.896  -7.678   2.784  0.00  0.00    -0.294 N 
ATOM     28  H   UNL     1      -3.541  -8.328   2.158  0.00  0.00    +0.150 HD
BRANCH  27  29
ATOM     29  C   UNL     1      -4.190  -8.075   4.164  0.00  0.00    +0.278 C 
BRANCH  29  30
ATOM     30  S   UNL     1      -5.818  -8.871   4.230  0.00  0.00    +0.013 S 
ATOM     31  O   UNL     1      -6.082  -9.336   5.547  0.00  0.00    -0.168 OA
ATOM     32  O   UNL     1      -6.776  -8.085   3.534  0.00  0.00    -0.168 OA
BRANCH  30  33
ATOM     33  C   UNL     1      -5.647 -10.334   3.263  0.00  0.00    +0.090 A 
ATOM     34  C   UNL     1      -6.023 -10.330   1.932  0.00  0.00    +0.027 A 
ATOM     35  C   UNL     1      -5.889 -11.478   1.173  0.00  0.00    +0.005 A 
ATOM     36  C   UNL     1      -5.378 -12.628   1.744  0.00  0.00    -0.050 A 
ATOM     37  C   UNL     1      -5.001 -12.631   3.074  0.00  0.00    +0.005 A 
ATOM     38  C   UNL     1      -5.131 -11.483   3.832  0.00  0.00    +0.027 A 
ATOM     39  C   UNL     1      -5.233 -13.879   0.917  0.00  0.00    +0.044 C 
ENDBRANCH  30  33
ENDBRANCH  29  30
ENDBRANCH  27  29
ENDBRANCH   1  25
TORSDOF 14
