REMARK  Name = ZINC21240361
REMARK  6 active torsions:
REMARK  status: ('A' for Active; 'I' for Inactive)
REMARK    1  A    between atoms: C_1  and  C_2
REMARK    2  A    between atoms: C_2  and  C_3
REMARK    3  A    between atoms: C_2  and  O_4
REMARK    4  A    between atoms: O_4  and  C_5
REMARK    5  A    between atoms: C_8  and  C_11
REMARK    6  A    between atoms: C_16  and  C_26
REMARK                            x       y       z     vdW  Elec       q    Type
REMARK                         _______ _______ _______ _____ _____    ______ ____
ROOT
ATOM      1  C   UNL     1      -0.273  -0.168  -0.978  0.00  0.00    +0.032 C 
ATOM      2  C   UNL     1      -1.328  -0.544  -2.017  0.00  0.00    +0.059 C 
ATOM      3  C   UNL     1      -1.343  -2.050  -2.221  0.00  0.00    +0.017 C 
ATOM      4  C   UNL     1      -1.048  -2.880  -1.206  0.00  0.00    +0.036 C 
ATOM      5  C   UNL     1      -1.038  -4.388  -1.269  0.00  0.00    +0.136 C 
ATOM      6  N   UNL     1      -1.632  -4.944  -2.466  0.00  0.00    -0.331 N 
ATOM      7  C   UNL     1      -1.061  -4.724  -3.718  0.00  0.00    +0.049 A 
ATOM      8  C   UNL     1      -0.532  -5.763  -4.467  0.00  0.00    +0.025 A 
ATOM      9  C   UNL     1       0.067  -5.488  -5.684  0.00  0.00    +0.002 A 
ATOM     10  C   UNL     1       0.142  -4.188  -6.149  0.00  0.00    +0.002 A 
ATOM     11  C   UNL     1      -0.402  -3.150  -5.412  0.00  0.00    +0.025 A 
ATOM     12  C   UNL     1      -1.021  -3.427  -4.206  0.00  0.00    +0.052 A 
ATOM     13  N   UNL     1      -1.686  -2.451  -3.471  0.00  0.00    -0.316 N 
ATOM     14  C   UNL     1      -0.704  -2.357   0.063  0.00  0.00    +0.163 C 
ATOM     15  O   UNL     1      -0.460  -3.130   0.969  0.00  0.00    -0.292 OA
ATOM     16  C   UNL     1      -0.631  -0.883   0.330  0.00  0.00    +0.088 C 
ATOM     17  H   UNL     1      -2.547  -5.551  -2.395  0.00  0.00    +0.147 HD
ATOM     18  H   UNL     1      -2.550  -1.996  -3.978  0.00  0.00    +0.152 HD
ENDROOT
BRANCH   5  19
ATOM     19  C   UNL     1       0.390  -4.860  -1.181  0.00  0.00    -0.023 A 
ATOM     20  C   UNL     1       1.286  -4.543  -2.185  0.00  0.00    +0.007 A 
ATOM     21  C   UNL     1       2.597  -4.971  -2.102  0.00  0.00    +0.020 A 
ATOM     22  C   UNL     1       3.011  -5.726  -1.019  0.00  0.00    +0.041 A 
ATOM     23  C   UNL     1       2.113  -6.047  -0.017  0.00  0.00    +0.020 A 
ATOM     24  C   UNL     1       0.803  -5.614  -0.098  0.00  0.00    +0.007 A 
ATOM     25 CL   UNL     1       4.657  -6.269  -0.917  0.00  0.00    -0.084 Cl
ENDBRANCH   5  19
BRANCH   1  29
ATOM     26  C   UNL     1      -0.285   4.061  -0.366  0.00  0.00    +0.121 A 
ATOM     27  C   UNL     1       0.874   3.423  -0.784  0.00  0.00    +0.046 A 
ATOM     28  C   UNL     1       0.875   2.055  -0.982  0.00  0.00    +0.007 A 
ATOM     29  C   UNL     1      -0.278   1.323  -0.762  0.00  0.00    -0.043 A 
ATOM     30  C   UNL     1      -1.435   1.958  -0.351  0.00  0.00    +0.007 A 
ATOM     31  C   UNL     1      -1.440   3.324  -0.148  0.00  0.00    +0.046 A 
BRANCH  26  32
ATOM     32  O   UNL     1      -0.289   5.406  -0.172  0.00  0.00    -0.489 OA
BRANCH  32  34
ATOM     33  C   UNL     1       1.216   6.412  -1.774  0.00  0.00    +0.051 C 
ATOM     34  C   UNL     1       0.963   6.084  -0.301  0.00  0.00    +0.167 C 
ATOM     35  C   UNL     1       0.927   7.380   0.512  0.00  0.00    +0.051 C 
ENDBRANCH  32  34
ENDBRANCH  26  32
ENDBRANCH   1  29
TORSDOF 4
