REMARK  Name = ZINC40066403
REMARK  11 active torsions:
REMARK  status: ('A' for Active; 'I' for Inactive)
REMARK    1  A    between atoms: C_1  and  C_2
REMARK    2  A    between atoms: C_2  and  N_3
REMARK    3  A    between atoms: C_4  and  N_28
REMARK    4  A    between atoms: C_5  and  C_13
REMARK    5  A    between atoms: C_6  and  C_12
REMARK    6  A    between atoms: C_7  and  C_10
REMARK    7  A    between atoms: N_17  and  C_21
REMARK    8  A    between atoms: C_21  and  C_22
REMARK    9  A    between atoms: N_28  and  C_29
REMARK   10  A    between atoms: C_29  and  C_30
REMARK   11  A    between atoms: C_30  and  C_31
REMARK                            x       y       z     vdW  Elec       q    Type
REMARK                         _______ _______ _______ _____ _____    ______ ____
ROOT
ATOM      1  N   UNL     1      -1.356  -0.687   0.182  0.00  0.00    -0.296 N 
ATOM      2  C   UNL     1      -1.869  -0.911   1.419  0.00  0.00    +0.109 A 
ATOM      3  C   UNL     1      -3.219  -1.268   1.578  0.00  0.00    +0.019 A 
ATOM      4  C   UNL     1      -4.039  -1.392   0.443  0.00  0.00    -0.017 A 
ATOM      5  C   UNL     1      -3.489  -1.156  -0.814  0.00  0.00    +0.120 A 
ATOM      6  C   UNL     1      -2.122  -0.793  -0.919  0.00  0.00    +0.270 A 
ATOM      7  O   UNL     1      -1.636  -0.580  -2.016  0.00  0.00    -0.266 OA
ATOM      8  C   UNL     1      -5.490  -1.774   0.585  0.00  0.00    +0.046 C 
ENDROOT
BRANCH   3   9
ATOM      9  C   UNL     1      -3.766  -1.510   2.914  0.00  0.00    +0.032 C 
ATOM     10  C   UNL     1      -3.681  -0.545   3.869  0.00  0.00    +0.077 C 
ATOM     11  C   UNL     1      -4.046  -0.597   5.249  0.00  0.00    +0.259 C 
ATOM     12  O   UNL     1      -4.510  -1.612   5.737  0.00  0.00    -0.269 OA
ATOM     13  N   UNL     1      -3.863   0.488   5.980  0.00  0.00    -0.251 N 
ATOM     14  C   UNL     1      -3.348   1.614   5.439  0.00  0.00    +0.121 C 
ATOM     15  S   UNL     1      -3.030   3.119   6.191  0.00  0.00    -0.027 S 
ATOM     16  S   UNL     1      -3.076   1.132   3.740  0.00  0.00    -0.061 S 
BRANCH  13  17
ATOM     17  C   UNL     1      -4.226   0.471   7.400  0.00  0.00    +0.150 C 
BRANCH  17  18
ATOM     18  C   UNL     1      -3.041   0.024   8.216  0.00  0.00    -0.030 A 
ATOM     19  C   UNL     1      -2.851  -1.320   8.480  0.00  0.00    +0.005 A 
ATOM     20  C   UNL     1      -1.764  -1.730   9.228  0.00  0.00    +0.000 A 
ATOM     21  C   UNL     1      -0.866  -0.798   9.712  0.00  0.00    +0.000 A 
ATOM     22  C   UNL     1      -1.055   0.546   9.447  0.00  0.00    +0.000 A 
ATOM     23  C   UNL     1      -2.140   0.956   8.695  0.00  0.00    +0.005 A 
ENDBRANCH  17  18
ENDBRANCH  13  17
ENDBRANCH   3   9
BRANCH   1  25
ATOM     24  C   UNL     1       0.204   1.196   0.222  0.00  0.00    +0.027 C 
ATOM     25  C   UNL     1       0.054  -0.316   0.044  0.00  0.00    +0.123 C 
ENDBRANCH   1  25
BRANCH   5  26
ATOM     26  C   UNL     1      -4.298  -1.273  -1.989  0.00  0.00    +0.105 C 
ATOM     27  N   UNL     1      -4.939  -1.367  -2.922  0.00  0.00    -0.191 NA
ENDBRANCH   5  26
BRANCH   2  28
ATOM     28  N   UNL     1      -1.068  -0.790   2.516  0.00  0.00    -0.330 N 
ATOM     29  H   UNL     1      -0.937   0.079   2.927  0.00  0.00    +0.147 HD
BRANCH  28  30
ATOM     30  C   UNL     1      -0.405  -1.972   3.073  0.00  0.00    +0.107 C 
BRANCH  30  31
ATOM     31  C   UNL     1       0.327  -1.586   4.361  0.00  0.00    +0.054 C 
BRANCH  31  32
ATOM     32  C   UNL     1       1.009  -2.802   4.934  0.00  0.00    -0.046 A 
ATOM     33  C   UNL     1       0.336  -3.615   5.827  0.00  0.00    +0.004 A 
ATOM     34  C   UNL     1       0.962  -4.730   6.353  0.00  0.00    +0.000 A 
ATOM     35  C   UNL     1       2.260  -5.032   5.985  0.00  0.00    +0.000 A 
ATOM     36  C   UNL     1       2.932  -4.220   5.091  0.00  0.00    +0.000 A 
ATOM     37  C   UNL     1       2.305  -3.107   4.562  0.00  0.00    +0.004 A 
ENDBRANCH  31  32
ENDBRANCH  30  31
ENDBRANCH  28  30
ENDBRANCH   2  28
TORSDOF 9
