REMARK  Name = ZINC00702611
REMARK  5 active torsions:
REMARK  status: ('A' for Active; 'I' for Inactive)
REMARK    1  A    between atoms: C_3  and  C_7
REMARK    2  A    between atoms: C_7  and  N_8
REMARK    3  A    between atoms: C_9  and  C_11
REMARK    4  A    between atoms: C_15  and  N_16
REMARK    5  A    between atoms: C_17  and  C_19
REMARK                            x       y       z     vdW  Elec       q    Type
REMARK                         _______ _______ _______ _____ _____    ______ ____
ROOT
ATOM      1  C   UNL     1       5.759   3.112   2.972  0.00  0.00    +0.069 A 
ATOM      2  C   UNL     1       6.575   2.134   3.671  0.00  0.00    -0.023 A 
ATOM      3  C   UNL     1       6.901   2.487   4.933  0.00  0.00    -0.004 A 
ATOM      4  S   UNL     1       6.143   4.068   5.167  0.00  0.00    -0.077 S 
ATOM      5  C   UNL     1       5.425   4.267   3.662  0.00  0.00    +0.085 A 
ATOM      6  C   UNL     1       7.724   1.698   5.904  0.00  0.00    +0.043 C 
ATOM      7  C   UNL     1       7.829   0.256   5.386  0.00  0.00    +0.005 C 
ATOM      8  C   UNL     1       8.215   0.289   3.904  0.00  0.00    +0.005 C 
ATOM      9  C   UNL     1       7.043   0.816   3.073  0.00  0.00    +0.037 C 
ENDROOT
BRANCH   1  11
ATOM     10  N   UNL     1       4.141   2.271   1.355  0.00  0.00    -0.307 N 
ATOM     11  C   UNL     1       5.314   2.890   1.593  0.00  0.00    +0.247 C 
ATOM     12  O   UNL     1       6.004   3.266   0.663  0.00  0.00    -0.270 OA
ATOM     13  H   UNL     1       3.592   1.972   2.096  0.00  0.00    +0.149 HD
BRANCH  10  14
ATOM     14  C   UNL     1       3.696   2.049  -0.023  0.00  0.00    +0.141 C 
BRANCH  14  17
ATOM     15  C   UNL     1      -0.017   1.378   0.010  0.00  0.00    +0.020 A 
ATOM     16  C   UNL     1       1.185   2.070   0.002  0.00  0.00    +0.008 A 
ATOM     17  C   UNL     1       2.365   1.343  -0.013  0.00  0.00    -0.012 A 
ATOM     18  C   UNL     1       2.305  -0.038  -0.020  0.00  0.00    +0.115 A 
ATOM     19  N   UNL     1       1.144  -0.663  -0.013  0.00  0.00    -0.263 NA
ATOM     20  C   UNL     1       0.002  -0.004   0.002  0.00  0.00    +0.111 A 
ENDBRANCH  14  17
ENDBRANCH  10  14
ENDBRANCH   1  11
BRANCH   5  21
ATOM     21  N   UNL     1       4.670   5.339   3.214  0.00  0.00    -0.273 N 
ATOM     22  C   UNL     1       4.441   6.389   4.027  0.00  0.00    +0.284 C 
ATOM     23  O   UNL     1       4.898   6.396   5.155  0.00  0.00    -0.266 OA
ATOM     24  H   UNL     1       4.305   5.333   2.315  0.00  0.00    +0.156 HD
BRANCH  22  25
ATOM     25  C   UNL     1       3.642   7.523   3.553  0.00  0.00    +0.189 A 
ATOM     26  C   UNL     1       3.340   8.647   4.268  0.00  0.00    +0.054 A 
ATOM     27  C   UNL     1       2.562   9.461   3.430  0.00  0.00    +0.042 A 
ATOM     28  C   UNL     1       2.423   8.806   2.256  0.00  0.00    +0.196 A 
ATOM     29  O   UNL     1       3.080   7.641   2.332  0.00  0.00    -0.458 OA
ENDBRANCH  22  25
ENDBRANCH   5  21
TORSDOF 5
