REMARK  Name = ZINC12537596
REMARK  11 active torsions:
REMARK  status: ('A' for Active; 'I' for Inactive)
REMARK    1  A    between atoms: C_1  and  C_2
REMARK    2  A    between atoms: C_2  and  C_3
REMARK    3  A    between atoms: C_2  and  C_4
REMARK    4  A    between atoms: C_2  and  C_5
REMARK    5  A    between atoms: C_18  and  C_20
REMARK    6  A    between atoms: C_23  and  O_26
REMARK    7  A    between atoms: O_26  and  C_27
REMARK    8  A    between atoms: C_27  and  C_28
REMARK    9  A    between atoms: C_31  and  C_34
REMARK   10  A    between atoms: C_34  and  O_36
REMARK   11  A    between atoms: O_36  and  C_37
REMARK                            x       y       z     vdW  Elec       q    Type
REMARK                         _______ _______ _______ _____ _____    ______ ____
ROOT
ATOM      1  C   UNL     1       0.606  -0.500  -1.313  0.00  0.00    +0.043 C 
ATOM      2  C   UNL     1       0.495  -2.021  -1.375  0.00  0.00    +0.010 C 
ATOM      3  C   UNL     1       1.292  -2.513  -2.590  0.00  0.00    +0.005 C 
ATOM      4  C   UNL     1       2.775  -2.273  -2.309  0.00  0.00    +0.035 C 
ATOM      5  C   UNL     1       3.007  -0.863  -1.844  0.00  0.00    -0.022 C 
ATOM      6  C   UNL     1       2.049  -0.065  -1.393  0.00  0.00    +0.050 C 
ATOM      7  N   UNL     1       2.332   1.201  -0.978  0.00  0.00    -0.218 NA
ATOM      8  C   UNL     1       3.513   1.750  -0.982  0.00  0.00    +0.232 C 
ATOM      9  N   UNL     1       3.984   2.973  -0.617  0.00  0.00    -0.231 N 
ATOM     10  N   UNL     1       5.253   3.029  -0.817  0.00  0.00    -0.086 NA
ATOM     11  N   UNL     1       5.702   1.921  -1.299  0.00  0.00    -0.165 N 
ATOM     12  N   UNL     1       4.620   1.051  -1.428  0.00  0.00    -0.193 N 
ATOM     13  C   UNL     1       4.429  -0.321  -1.894  0.00  0.00    +0.156 C 
ATOM     14  H   UNL     1       6.624   1.728  -1.530  0.00  0.00    +0.195 HD
ATOM     15  H   UNL     1       3.443   3.695  -0.260  0.00  0.00    +0.193 HD
ENDROOT
BRANCH  13  16
ATOM     16  C   UNL     1       4.910  -0.402  -3.320  0.00  0.00    -0.021 A 
ATOM     17  C   UNL     1       4.532   0.565  -4.232  0.00  0.00    +0.009 A 
ATOM     18  C   UNL     1       4.971   0.492  -5.540  0.00  0.00    +0.046 A 
ATOM     19  C   UNL     1       5.793  -0.552  -5.937  0.00  0.00    +0.121 A 
ATOM     20  C   UNL     1       6.172  -1.522  -5.019  0.00  0.00    +0.046 A 
ATOM     21  C   UNL     1       5.734  -1.441  -3.711  0.00  0.00    +0.009 A 
BRANCH  19  22
ATOM     22  O   UNL     1       6.227  -0.627  -7.223  0.00  0.00    -0.487 OA
BRANCH  22  23
ATOM     23  C   UNL     1       7.070  -1.730  -7.561  0.00  0.00    +0.264 C 
BRANCH  23  24
ATOM     24  C   UNL     1       7.448  -1.646  -9.017  0.00  0.00    -0.010 A 
ATOM     25  C   UNL     1       6.651  -2.253  -9.971  0.00  0.00    +0.008 A 
ATOM     26  C   UNL     1       6.991  -2.180 -11.306  0.00  0.00    +0.015 A 
ATOM     27  C   UNL     1       8.142  -1.491 -11.694  0.00  0.00    +0.059 A 
ATOM     28  C   UNL     1       8.941  -0.881 -10.725  0.00  0.00    +0.015 A 
ATOM     29  C   UNL     1       8.587  -0.957  -9.394  0.00  0.00    +0.008 A 
BRANCH  27  30
ATOM     30  C   UNL     1       8.512  -1.409 -13.121  0.00  0.00    +0.339 C 
ATOM     31  O   UNL     1       7.815  -1.942 -13.961  0.00  0.00    -0.245 OA
BRANCH  30  32
ATOM     32  O   UNL     1       9.624  -0.744 -13.492  0.00  0.00    -0.464 OA
ATOM     33  C   UNL     1       9.921  -0.705 -14.889  0.00  0.00    +0.280 C 
ENDBRANCH  30  32
ENDBRANCH  27  30
ENDBRANCH  23  24
ENDBRANCH  22  23
ENDBRANCH  19  22
ENDBRANCH  13  16
BRANCH   1  35
ATOM     34  C   UNL     1      -0.089   1.523  -0.022  0.00  0.00    +0.011 C 
ATOM     35  C   UNL     1       0.002  -0.004   0.002  0.00  0.00    -0.029 C 
ATOM     36  C   UNL     1       0.890  -0.444   1.168  0.00  0.00    +0.011 C 
ATOM     37  C   UNL     1      -1.398  -0.596   0.176  0.00  0.00    +0.011 C 
ENDBRANCH   1  35
TORSDOF 7
