REMARK  Name = ZINC12651226
REMARK  11 active torsions:
REMARK  status: ('A' for Active; 'I' for Inactive)
REMARK    1  A    between atoms: C_1  and  O_2
REMARK    2  A    between atoms: O_2  and  C_3
REMARK    3  A    between atoms: C_6  and  C_10
REMARK    4  A    between atoms: C_10  and  C_11
REMARK    5  A    between atoms: N_13  and  N_14
REMARK    6  A    between atoms: N_14  and  C_15
REMARK    7  A    between atoms: C_15  and  N_17
REMARK    8  A    between atoms: N_17  and  C_18
REMARK    9  A    between atoms: C_18  and  C_19
REMARK   10  A    between atoms: C_22  and  O_26
REMARK   11  A    between atoms: O_26  and  C_27
REMARK                            x       y       z     vdW  Elec       q    Type
REMARK                         _______ _______ _______ _____ _____    ______ ____
ROOT
ATOM      1  N   UNL     1       2.366   1.214  -0.014  0.00  0.00    -0.246 N 
ATOM      2  H   UNL     1       2.379   0.244  -0.019  0.00  0.00    +0.172 HD
ENDROOT
BRANCH   1   5
ATOM      3  C   UNL     1      -0.014   1.209   0.009  0.00  0.00    +0.233 C 
ATOM      4  O   UNL     1       0.002  -0.004   0.002  0.00  0.00    -0.274 OA
ATOM      5  N   UNL     1       1.143   1.898   0.001  0.00  0.00    -0.235 N 
ATOM      6  H   UNL     1       1.130   2.868   0.007  0.00  0.00    +0.173 HD
BRANCH   3   7
ATOM      7  C   UNL     1      -1.330   1.944   0.019  0.00  0.00    +0.132 C 
BRANCH   7  11
ATOM      8  C   UNL     1      -4.541  -0.876   0.018  0.00  0.00    +0.134 A 
ATOM      9  C   UNL     1      -4.024  -0.411  -1.183  0.00  0.00    +0.047 A 
ATOM     10  C   UNL     1      -2.990   0.505  -1.179  0.00  0.00    +0.008 A 
ATOM     11  C   UNL     1      -2.462   0.950   0.019  0.00  0.00    -0.037 A 
ATOM     12  C   UNL     1      -2.974   0.488   1.217  0.00  0.00    +0.023 A 
ATOM     13  C   UNL     1      -4.013  -0.425   1.219  0.00  0.00    +0.060 A 
ATOM     14 BR   UNL     1      -4.713  -1.057   2.858  0.00  0.00    -0.047 Br
BRANCH   8  16
ATOM     15  C   UNL     1      -6.055  -2.194  -1.256  0.00  0.00    +0.277 C 
ATOM     16  O   UNL     1      -5.562  -1.773   0.017  0.00  0.00    -0.494 OA
ENDBRANCH   8  16
ENDBRANCH   7  11
ENDBRANCH   3   7
ENDBRANCH   1   5
BRANCH   1  17
ATOM     17  C   UNL     1       3.524   1.904  -0.021  0.00  0.00    +0.147 C 
ATOM     18  S   UNL     1       5.018   1.068  -0.040  0.00  0.00    -0.017 S 
BRANCH  17  19
ATOM     19  N   UNL     1       3.506   3.252  -0.014  0.00  0.00    -0.321 N 
ATOM     20  H   UNL     1       2.659   3.725  -0.003  0.00  0.00    +0.148 HD
BRANCH  19  21
ATOM     21  C   UNL     1       4.764   4.001  -0.022  0.00  0.00    +0.138 C 
BRANCH  21  22
ATOM     22  C   UNL     1       4.469   5.479  -0.011  0.00  0.00    -0.029 A 
ATOM     23  C   UNL     1       4.328   6.163  -1.204  0.00  0.00    +0.009 A 
ATOM     24  C   UNL     1       4.052   7.517  -1.198  0.00  0.00    +0.047 A 
ATOM     25  C   UNL     1       3.927   8.193   0.007  0.00  0.00    +0.134 A 
ATOM     26  C   UNL     1       4.075   7.505   1.204  0.00  0.00    +0.060 A 
ATOM     27  C   UNL     1       4.345   6.149   1.192  0.00  0.00    +0.024 A 
ATOM     28 BR   UNL     1       3.905   8.421   2.849  0.00  0.00    -0.047 Br
BRANCH  25  29
ATOM     29  O   UNL     1       3.661   9.525   0.017  0.00  0.00    -0.494 OA
ATOM     30  C   UNL     1       3.522  10.168  -1.252  0.00  0.00    +0.277 C 
ENDBRANCH  25  29
ENDBRANCH  21  22
ENDBRANCH  19  21
ENDBRANCH  17  19
ENDBRANCH   1  17
TORSDOF 9
