REMARK  Name = ZINC17145752
REMARK  9 active torsions:
REMARK  status: ('A' for Active; 'I' for Inactive)
REMARK    1  A    between atoms: C_1  and  C_2
REMARK    2  A    between atoms: C_5  and  C_9
REMARK    3  A    between atoms: C_6  and  C_8
REMARK    4  A    between atoms: C_9  and  S_10
REMARK    5  A    between atoms: S_10  and  C_11
REMARK    6  A    between atoms: C_16  and  N_20
REMARK    7  A    between atoms: C_21  and  C_23
REMARK    8  A    between atoms: C_23  and  S_24
REMARK    9  A    between atoms: S_24  and  C_25
REMARK                            x       y       z     vdW  Elec       q    Type
REMARK                         _______ _______ _______ _____ _____    ______ ____
ROOT
ATOM      1  C   UNL     1      -2.507  12.893  -0.255  0.00  0.00    +0.136 A 
ATOM      2  N   UNL     1      -1.342  12.286  -0.283  0.00  0.00    -0.233 NA
ATOM      3  C   UNL     1      -1.222  10.941  -0.208  0.00  0.00    +0.080 A 
ATOM      4  C   UNL     1      -0.038  10.169  -0.227  0.00  0.00    +0.031 A 
ATOM      5  C   UNL     1      -0.089   8.803  -0.142  0.00  0.00    +0.025 A 
ATOM      6  C   UNL     1      -1.302   8.127  -0.033  0.00  0.00    +0.035 A 
ATOM      7  C   UNL     1      -2.484   8.856  -0.016  0.00  0.00    +0.040 A 
ATOM      8  C   UNL     1      -2.436  10.225  -0.097  0.00  0.00    +0.042 A 
ATOM      9  S   UNL     1      -3.647  11.524  -0.108  0.00  0.00    -0.061 S 
ENDROOT
BRANCH   6  10
ATOM     10  N   UNL     1      -1.329   6.729   0.052  0.00  0.00    -0.285 N 
ATOM     11  C   UNL     1      -2.286   6.117   0.777  0.00  0.00    +0.227 C 
ATOM     12  O   UNL     1      -3.066   6.776   1.432  0.00  0.00    -0.275 OA
ATOM     13  H   UNL     1      -0.659   6.201  -0.410  0.00  0.00    +0.155 HD
BRANCH  11  14
ATOM     14  C   UNL     1      -2.388   4.613   0.773  0.00  0.00    +0.172 C 
BRANCH  14  15
ATOM     15  S   UNL     1      -3.765   4.098   1.836  0.00  0.00    -0.088 S 
BRANCH  15  16
ATOM     16  C   UNL     1      -3.753   2.339   1.727  0.00  0.00    +0.160 A 
ATOM     17  N   UNL     1      -2.947   1.550   1.044  0.00  0.00    -0.133 NA
ATOM     18  N   UNL     1      -3.115   0.185   1.101  0.00  0.00    -0.125 NA
ATOM     19  C   UNL     1      -4.081  -0.327   1.837  0.00  0.00    +0.180 A 
ATOM     20  S   UNL     1      -4.829   1.149   2.512  0.00  0.00    -0.025 S 
ATOM     21  N   UNL     1      -4.426  -1.658   2.036  0.00  0.00    -0.336 N 
ATOM     22  H   UNL     1      -3.922  -2.361   1.596  0.00  0.00    +0.144 HD
ATOM     23  H   UNL     1      -5.172  -1.885   2.614  0.00  0.00    +0.144 HD
ENDBRANCH  15  16
ENDBRANCH  14  15
ENDBRANCH  11  14
ENDBRANCH   6  10
BRANCH   1  24
ATOM     24  S   UNL     1      -2.856  14.618  -0.341  0.00  0.00    -0.094 S 
BRANCH  24  25
ATOM     25  C   UNL     1      -1.174  15.273  -0.475  0.00  0.00    +0.111 C 
BRANCH  25  30
ATOM     26  C   UNL     1      -1.373  21.038  -0.815  0.00  0.00    +0.044 C 
ATOM     27  C   UNL     1      -1.321  19.535  -0.727  0.00  0.00    -0.050 A 
ATOM     28  C   UNL     1      -1.231  18.918   0.508  0.00  0.00    +0.003 A 
ATOM     29  C   UNL     1      -1.184  17.539   0.589  0.00  0.00    +0.005 A 
ATOM     30  C   UNL     1      -1.226  16.777  -0.564  0.00  0.00    -0.034 A 
ATOM     31  C   UNL     1      -1.311  17.393  -1.798  0.00  0.00    -0.046 A 
ATOM     32  C   UNL     1      -1.364  18.773  -1.879  0.00  0.00    +0.007 A 
ATOM     33  C   UNL     1      -1.351  16.563  -3.054  0.00  0.00    +0.044 C 
ENDBRANCH  25  30
ENDBRANCH  24  25
ENDBRANCH   1  24
TORSDOF 7
