REMARK  Name = ZINC13471378
REMARK  3 active torsions:
REMARK  status: ('A' for Active; 'I' for Inactive)
REMARK    1  A    between atoms: C_1  and  C_2
REMARK    2  A    between atoms: C_4  and  N_24
REMARK    3  A    between atoms: C_9  and  C_18
REMARK                            x       y       z     vdW  Elec       q    Type
REMARK                         _______ _______ _______ _____ _____    ______ ____
ROOT
ATOM      1  C   UNL     1       0.997   5.999  -0.017  0.00  0.00    +0.046 C 
ATOM      2  C   UNL     1       1.631   4.716  -0.489  0.00  0.00    -0.027 A 
ATOM      3  C   UNL     1       2.715   4.766  -1.338  0.00  0.00    +0.038 A 
ATOM      4  C   UNL     1       3.308   3.597  -1.779  0.00  0.00    +0.127 A 
ATOM      5  C   UNL     1       2.811   2.378  -1.359  0.00  0.00    +0.038 A 
ATOM      6  C   UNL     1       1.729   2.319  -0.506  0.00  0.00    -0.017 A 
ATOM      7  C   UNL     1       1.112   3.493  -0.063  0.00  0.00    +0.034 A 
ATOM      8  N   UNL     1      -0.008   3.521   0.764  0.00  0.00    -0.336 N 
ATOM      9  C   UNL     1      -0.492   2.226   1.268  0.00  0.00    +0.106 C 
ATOM     10  C   UNL     1      -0.355   1.228   0.137  0.00  0.00    +0.029 C 
ATOM     11  C   UNL     1       1.184   1.030  -0.028  0.00  0.00    +0.049 C 
ATOM     12  C   UNL     1       1.278  -0.222  -0.818  0.00  0.00    -0.023 C 
ATOM     13  C   UNL     1       0.211  -0.968  -0.556  0.00  0.00    -0.030 C 
ATOM     14  C   UNL     1      -0.711  -0.235   0.422  0.00  0.00    +0.033 C 
ATOM     15  H   UNL     1      -0.757   4.047   0.340  0.00  0.00    +0.147 HD
ENDROOT
BRANCH   9  16
ATOM     16  C   UNL     1       0.342   1.788   2.444  0.00  0.00    -0.009 A 
ATOM     17  C   UNL     1       1.637   2.260   2.601  0.00  0.00    +0.008 A 
ATOM     18  C   UNL     1       2.366   1.834   3.700  0.00  0.00    +0.020 A 
ATOM     19  C   UNL     1       1.786   0.950   4.591  0.00  0.00    +0.111 A 
ATOM     20  N   UNL     1       0.554   0.517   4.407  0.00  0.00    -0.263 NA
ATOM     21  C   UNL     1      -0.171   0.906   3.376  0.00  0.00    +0.116 A 
ENDBRANCH   9  16
BRANCH   4  22
ATOM     22  N   UNL     1       4.468   3.652  -2.697  0.00  0.00    +0.056 N 
ATOM     23  O   UNL     1       4.987   2.620  -3.084  0.00  0.00    -0.126 OA
ATOM     24  O   UNL     1       4.903   4.728  -3.065  0.00  0.00    -0.126 OA
ENDBRANCH   4  22
TORSDOF 2
