REMARK  Name = ZINC02881237
REMARK  10 active torsions:
REMARK  status: ('A' for Active; 'I' for Inactive)
REMARK    1  A    between atoms: C_1  and  C_2
REMARK    2  A    between atoms: C_4  and  O_10
REMARK    3  A    between atoms: C_5  and  C_9
REMARK    4  A    between atoms: O_10  and  C_11
REMARK    5  A    between atoms: C_11  and  C_12
REMARK    6  A    between atoms: N_14  and  C_15
REMARK    7  A    between atoms: C_17  and  C_23
REMARK    8  A    between atoms: C_17  and  C_24
REMARK    9  A    between atoms: C_19  and  C_21
REMARK   10  A    between atoms: C_19  and  C_22
REMARK                            x       y       z     vdW  Elec       q    Type
REMARK                         _______ _______ _______ _____ _____    ______ ____
ROOT
ATOM      1  C   UNL     1       0.349  -3.064  -4.728  0.00  0.00    +0.251 C 
ATOM      2  O   UNL     1       0.452  -4.262  -4.568  0.00  0.00    -0.272 OA
ATOM      3  N   UNL     1       0.278  -2.555  -5.974  0.00  0.00    -0.310 N 
ATOM      4  H   UNL     1       0.195  -1.597  -6.102  0.00  0.00    +0.149 HD
ENDROOT
BRANCH   3   5
ATOM      5  C   UNL     1       0.324  -3.450  -7.137  0.00  0.00    +0.070 C 
ATOM      6  C   UNL     1       1.784  -3.701  -7.519  0.00  0.00    +0.009 C 
ATOM      7  C   UNL     1       1.849  -4.622  -8.737  0.00  0.00    -0.072 C 
ATOM      8  N   UNL     1       1.060  -4.115  -9.851  0.00  0.00    +0.386 N 
ATOM      9  C   UNL     1      -0.287  -3.649  -9.566  0.00  0.00    -0.072 C 
ATOM     10  C   UNL     1      -0.372  -2.776  -8.319  0.00  0.00    +0.009 C 
ATOM     11  C   UNL     1      -1.277  -4.812  -9.457  0.00  0.00    -0.010 C 
ATOM     12  C   UNL     1      -0.741  -2.782 -10.765  0.00  0.00    -0.010 C 
ATOM     13  C   UNL     1       1.447  -6.044  -8.347  0.00  0.00    -0.010 C 
ATOM     14  C   UNL     1       3.325  -4.672  -9.195  0.00  0.00    -0.010 C 
ATOM     15  H   UNL     1       1.580  -3.350 -10.289  0.00  0.00    -0.084 HD
ATOM     16  H   UNL     1       1.006  -4.846 -10.564  0.00  0.00    -0.084 HD
ENDBRANCH   3   5
BRANCH   1  17
ATOM     17  C   UNL     1       0.301  -2.146  -3.534  0.00  0.00    +0.324 C 
BRANCH  17  18
ATOM     18  O   UNL     1       0.394  -2.918  -2.336  0.00  0.00    -0.483 OA
BRANCH  18  22
ATOM     19  C   UNL     1       0.097   1.337   0.037  0.00  0.00    +0.045 C 
ATOM     20  C   UNL     1       0.221  -0.165   0.037  0.00  0.00    -0.033 A 
ATOM     21  C   UNL     1       0.251  -0.855  -1.160  0.00  0.00    +0.050 A 
ATOM     22  C   UNL     1       0.365  -2.237  -1.159  0.00  0.00    +0.124 A 
ATOM     23  C   UNL     1       0.450  -2.924   0.043  0.00  0.00    -0.008 A 
ATOM     24  C   UNL     1       0.420  -2.231   1.237  0.00  0.00    +0.022 A 
ATOM     25  C   UNL     1       0.311  -0.851   1.234  0.00  0.00    +0.021 A 
ATOM     26 BR   UNL     1       0.278   0.096   2.871  0.00  0.00    -0.050 Br
ATOM     27  C   UNL     1       0.574  -4.426   0.046  0.00  0.00    +0.047 C 
ENDBRANCH  18  22
ENDBRANCH  17  18
ENDBRANCH   1  17
TORSDOF 4
