REMARK  Name = ZINC01461946
REMARK  8 active torsions:
REMARK  status: ('A' for Active; 'I' for Inactive)
REMARK    1  A    between atoms: C_1  and  C_2
REMARK    2  A    between atoms: C_7  and  N_8
REMARK    3  A    between atoms: N_8  and  S_9
REMARK    4  A    between atoms: S_9  and  C_12
REMARK    5  A    between atoms: C_25  and  C_28
REMARK    6  A    between atoms: C_31  and  C_34
REMARK    7  A    between atoms: C_34  and  O_36
REMARK    8  A    between atoms: O_36  and  C_37
REMARK                            x       y       z     vdW  Elec       q    Type
REMARK                         _______ _______ _______ _____ _____    ______ ____
ROOT
ATOM      1  C   UNL     1       1.067   2.448  -1.217  0.00  0.00    +0.109 A 
ATOM      2  C   UNL     1       2.045   1.483  -1.368  0.00  0.00    +0.030 A 
ATOM      3  C   UNL     1       2.640   1.285  -2.598  0.00  0.00    +0.025 A 
ATOM      4  C   UNL     1       2.267   2.058  -3.690  0.00  0.00    +0.031 A 
ATOM      5  C   UNL     1       1.287   3.044  -3.526  0.00  0.00    -0.018 A 
ATOM      6  C   UNL     1       0.694   3.229  -2.296  0.00  0.00    +0.034 A 
ATOM      7  C   UNL     1       0.938   3.864  -4.707  0.00  0.00    +0.049 C 
ATOM      8  C   UNL     1      -0.396   4.502  -4.853  0.00  0.00    -0.023 C 
ATOM      9  C   UNL     1      -0.694   4.568  -6.145  0.00  0.00    -0.030 C 
ATOM     10  C   UNL     1       0.426   3.937  -6.974  0.00  0.00    +0.033 C 
ATOM     11  C   UNL     1       1.038   2.954  -5.967  0.00  0.00    +0.029 C 
ATOM     12  C   UNL     1       2.514   2.633  -6.120  0.00  0.00    +0.105 C 
ATOM     13  N   UNL     1       2.871   1.827  -4.932  0.00  0.00    -0.336 N 
ATOM     14  H   UNL     1       3.536   1.125  -5.014  0.00  0.00    +0.147 HD
ENDROOT
BRANCH  12  15
ATOM     15  C   UNL     1       3.323   3.905  -6.148  0.00  0.00    -0.027 A 
ATOM     16  C   UNL     1       3.559   4.544  -7.352  0.00  0.00    +0.006 A 
ATOM     17  C   UNL     1       4.295   5.710  -7.385  0.00  0.00    +0.015 A 
ATOM     18  C   UNL     1       4.809   6.240  -6.200  0.00  0.00    +0.059 A 
ATOM     19  C   UNL     1       4.571   5.588  -4.989  0.00  0.00    +0.015 A 
ATOM     20  C   UNL     1       3.830   4.424  -4.970  0.00  0.00    +0.006 A 
BRANCH  18  21
ATOM     21  C   UNL     1       5.602   7.487  -6.228  0.00  0.00    +0.339 C 
ATOM     22  O   UNL     1       6.048   7.946  -5.195  0.00  0.00    -0.245 OA
BRANCH  21  23
ATOM     23  O   UNL     1       5.830   8.114  -7.398  0.00  0.00    -0.464 OA
ATOM     24  C   UNL     1       6.616   9.334  -7.349  0.00  0.00    +0.280 C 
ENDBRANCH  21  23
ENDBRANCH  18  21
ENDBRANCH  12  15
BRANCH   1  25
ATOM     25  S   UNL     1       0.300   2.688   0.351  0.00  0.00    +0.072 S 
ATOM     26  O   UNL     1      -0.190   4.022   0.364  0.00  0.00    -0.150 OA
ATOM     27  O   UNL     1       1.211   2.202   1.327  0.00  0.00    -0.150 OA
BRANCH  25  28
ATOM     28  N   UNL     1      -1.025   1.697   0.405  0.00  0.00    -0.216 N 
ATOM     29  H   UNL     1      -1.911   2.076   0.518  0.00  0.00    +0.174 HD
BRANCH  28  36
ATOM     30  C   UNL     1      -3.045   0.235  -0.965  0.00  0.00    +0.046 C 
ATOM     31  C   UNL     1      -1.830  -0.439  -0.380  0.00  0.00    -0.028 A 
ATOM     32  C   UNL     1      -1.670  -1.805  -0.504  0.00  0.00    +0.005 A 
ATOM     33  C   UNL     1      -0.559  -2.425   0.038  0.00  0.00    +0.000 A 
ATOM     34  C   UNL     1       0.398  -1.678   0.702  0.00  0.00    +0.002 A 
ATOM     35  C   UNL     1       0.246  -0.311   0.825  0.00  0.00    +0.025 A 
ATOM     36  C   UNL     1      -0.869   0.314   0.282  0.00  0.00    +0.051 A 
ENDBRANCH  28  36
ENDBRANCH  25  28
ENDBRANCH   1  25
TORSDOF 6
