REMARK  Name = ZINC06084123
REMARK  7 active torsions:
REMARK  status: ('A' for Active; 'I' for Inactive)
REMARK    1  A    between atoms: C_4  and  C_7
REMARK    2  A    between atoms: C_7  and  C_8
REMARK    3  A    between atoms: C_7  and  N_45
REMARK    4  A    between atoms: C_14  and  C_15
REMARK    5  A    between atoms: C_14  and  N_45
REMARK    6  A    between atoms: N_17  and  C_18
REMARK    7  A    between atoms: C_21  and  N_24
REMARK                            x       y       z     vdW  Elec       q    Type
REMARK                         _______ _______ _______ _____ _____    ______ ____
ROOT
ATOM      1  N   UNL     1       3.822  -4.697  -0.371  0.00  0.00    +0.392 N 
ATOM      2  H   UNL     1       4.251  -4.276  -1.203  0.00  0.00    -0.084 HD
ATOM      3  H   UNL     1       4.342  -4.410   0.466  0.00  0.00    -0.084 HD
ENDROOT
BRANCH   1   4
ATOM      4  C   UNL     1       3.867  -6.167  -0.492  0.00  0.00    -0.009 C 
BRANCH   4   8
ATOM      5  C   UNL     1       7.470  -7.299  -2.490  0.00  0.00    +0.000 A 
ATOM      6  C   UNL     1       6.287  -7.956  -2.772  0.00  0.00    +0.000 A 
ATOM      7  C   UNL     1       5.121  -7.590  -2.125  0.00  0.00    +0.002 A 
ATOM      8  C   UNL     1       5.138  -6.566  -1.196  0.00  0.00    -0.057 A 
ATOM      9  C   UNL     1       6.320  -5.905  -0.918  0.00  0.00    +0.002 A 
ATOM     10  C   UNL     1       7.487  -6.275  -1.561  0.00  0.00    +0.000 A 
ENDBRANCH   4   8
BRANCH   4  11
ATOM     11  C   UNL     1       3.839  -6.785   0.882  0.00  0.00    -0.057 A 
ATOM     12  C   UNL     1       4.558  -6.210   1.914  0.00  0.00    +0.002 A 
ATOM     13  C   UNL     1       4.528  -6.775   3.175  0.00  0.00    +0.000 A 
ATOM     14  C   UNL     1       3.788  -7.920   3.403  0.00  0.00    +0.000 A 
ATOM     15  C   UNL     1       3.074  -8.498   2.370  0.00  0.00    +0.000 A 
ATOM     16  C   UNL     1       3.100  -7.931   1.110  0.00  0.00    +0.002 A 
ENDBRANCH   4  11
ENDBRANCH   1   4
BRANCH   1  17
ATOM     17  C   UNL     1       2.425  -4.236  -0.258  0.00  0.00    +0.016 C 
BRANCH  17  18
ATOM     18  C   UNL     1       2.410  -2.734  -0.137  0.00  0.00    +0.200 C 
ATOM     19  O   UNL     1       3.452  -2.114  -0.144  0.00  0.00    -0.278 OA
ATOM     20  N   UNL     1       1.237  -2.079  -0.021  0.00  0.00    -0.287 N 
ATOM     21  H   UNL     1       0.409  -2.578   0.062  0.00  0.00    +0.155 HD
BRANCH  20  22
ATOM     22  C   UNL     1       1.214  -0.680  -0.019  0.00  0.00    +0.033 A 
ATOM     23  C   UNL     1       2.137   0.031  -0.774  0.00  0.00    +0.025 A 
ATOM     24  C   UNL     1       2.111   1.412  -0.771  0.00  0.00    +0.034 A 
ATOM     25  C   UNL     1       1.168   2.086  -0.017  0.00  0.00    +0.126 A 
ATOM     26  C   UNL     1       0.248   1.380   0.736  0.00  0.00    +0.034 A 
ATOM     27  C   UNL     1       0.268  -0.001   0.737  0.00  0.00    +0.025 A 
BRANCH  25  28
ATOM     28  N   UNL     1       1.144   3.566  -0.015  0.00  0.00    +0.056 N 
ATOM     29  O   UNL     1       1.954   4.189  -0.678  0.00  0.00    -0.126 OA
ATOM     30  O   UNL     1       0.314   4.161   0.649  0.00  0.00    -0.126 OA
ENDBRANCH  25  28
ENDBRANCH  20  22
ENDBRANCH  17  18
ENDBRANCH   1  17
TORSDOF 7
