REMARK  Name = ZINC23223611
REMARK  11 active torsions:
REMARK  status: ('A' for Active; 'I' for Inactive)
REMARK    1  A    between atoms: C_1  and  C_2
REMARK    2  A    between atoms: C_2  and  N_3
REMARK    3  A    between atoms: C_7  and  S_30
REMARK    4  A    between atoms: C_11  and  S_12
REMARK    5  A    between atoms: S_12  and  C_13
REMARK    6  A    between atoms: C_13  and  C_14
REMARK    7  A    between atoms: C_14  and  C_16
REMARK    8  A    between atoms: C_16  and  C_26
REMARK    9  A    between atoms: C_26  and  O_28
REMARK   10  A    between atoms: O_28  and  C_29
REMARK   11  A    between atoms: S_30  and  N_33
REMARK                            x       y       z     vdW  Elec       q    Type
REMARK                         _______ _______ _______ _____ _____    ______ ____
ROOT
ATOM      1  C   UNL     1      -6.383  -2.955   4.273  0.00  0.00    +0.157 C 
ENDROOT
BRANCH   1   2
ATOM      2  C   UNL     1      -7.206  -3.749   5.255  0.00  0.00    +0.183 C 
ATOM      3  O   UNL     1      -8.039  -4.537   4.852  0.00  0.00    -0.291 OA
BRANCH   2   4
ATOM      4  C   UNL     1      -7.011  -3.577   6.637  0.00  0.00    +0.138 C 
ATOM      5  C   UNL     1      -7.780  -4.319   7.554  0.00  0.00    +0.110 C 
ATOM      6  N   UNL     1      -8.739  -5.220   7.226  0.00  0.00    -0.301 N 
ATOM      7  C   UNL     1      -9.268  -5.742   8.402  0.00  0.00    +0.054 A 
ATOM      8  C   UNL     1     -10.255  -6.682   8.662  0.00  0.00    +0.025 A 
ATOM      9  C   UNL     1     -10.576  -6.999   9.967  0.00  0.00    +0.002 A 
ATOM     10  C   UNL     1      -9.916  -6.383  11.018  0.00  0.00    +0.002 A 
ATOM     11  C   UNL     1      -8.933  -5.447  10.770  0.00  0.00    +0.025 A 
ATOM     12  C   UNL     1      -8.603  -5.120   9.461  0.00  0.00    +0.054 A 
ATOM     13  N   UNL     1      -7.683  -4.240   8.906  0.00  0.00    -0.301 N 
ATOM     14  H   UNL     1      -8.970  -5.418   6.169  0.00  0.00    +0.153 HD
ATOM     15  H   UNL     1      -6.956  -3.554   9.366  0.00  0.00    +0.153 HD
BRANCH   4  16
ATOM     16  C   UNL     1      -6.009  -2.629   7.122  0.00  0.00    +0.345 C 
ATOM     17  O   UNL     1      -5.840  -2.480   8.317  0.00  0.00    -0.245 OA
BRANCH  16  18
ATOM     18  O   UNL     1      -5.272  -1.919   6.243  0.00  0.00    -0.464 OA
ATOM     19  C   UNL     1      -4.312  -1.010   6.786  0.00  0.00    +0.280 C 
ENDBRANCH  16  18
ENDBRANCH   4  16
ENDBRANCH   2   4
ENDBRANCH   1   2
BRANCH   1  20
ATOM     20  S   UNL     1      -6.865  -3.397   2.586  0.00  0.00    -0.080 S 
BRANCH  20  29
ATOM     21  N   UNL     1      -5.717  -2.281   0.310  0.00  0.00    -0.319 N 
ATOM     22  C   UNL     1      -4.742  -1.351  -0.009  0.00  0.00    +0.070 A 
ATOM     23  C   UNL     1      -4.237  -0.859  -1.203  0.00  0.00    +0.030 A 
ATOM     24  C   UNL     1      -3.241   0.096  -1.186  0.00  0.00    +0.030 A 
ATOM     25  C   UNL     1      -2.733   0.560   0.018  0.00  0.00    +0.107 A 
ATOM     26  C   UNL     1      -3.222   0.082   1.213  0.00  0.00    +0.058 A 
ATOM     27  C   UNL     1      -4.234  -0.881   1.213  0.00  0.00    +0.092 A 
ATOM     28  N   UNL     1      -4.905  -1.529   2.201  0.00  0.00    -0.222 NA
ATOM     29  C   UNL     1      -5.777  -2.353   1.673  0.00  0.00    +0.170 A 
BRANCH  25  30
ATOM     30  S   UNL     1      -1.456   1.774   0.019  0.00  0.00    +0.056 S 
ATOM     31  O   UNL     1      -1.536   2.446   1.268  0.00  0.00    -0.153 OA
ATOM     32  O   UNL     1      -1.548   2.460  -1.223  0.00  0.00    -0.153 OA
BRANCH  30  33
ATOM     33  N   UNL     1      -0.011   0.966   0.007  0.00  0.00    -0.204 NA
ATOM     34  H   UNL     1       0.815   1.692   0.007  0.00  0.00    +0.144 HD
ATOM     35  H   UNL     1       0.051   0.339  -0.894  0.00  0.00    +0.144 HD
ENDBRANCH  30  33
ENDBRANCH  25  30
BRANCH  21  37
ATOM     36  C   UNL     1      -7.810  -2.266  -0.956  0.00  0.00    +0.027 C 
ATOM     37  C   UNL     1      -6.532  -3.046  -0.637  0.00  0.00    +0.121 C 
ENDBRANCH  21  37
ENDBRANCH  20  29
ENDBRANCH   1  20
TORSDOF 9
