REMARK  Name = ZINC39729308
REMARK  7 active torsions:
REMARK  status: ('A' for Active; 'I' for Inactive)
REMARK    1  A    between atoms: C_1  and  C_2
REMARK    2  A    between atoms: C_9  and  N_29
REMARK    3  A    between atoms: C_10  and  C_13
REMARK    4  A    between atoms: N_17  and  C_21
REMARK    5  A    between atoms: C_21  and  C_22
REMARK    6  A    between atoms: C_31  and  C_38
REMARK    7  A    between atoms: C_34  and  C_37
REMARK                            x       y       z     vdW  Elec       q    Type
REMARK                         _______ _______ _______ _____ _____    ______ ____
ROOT
ATOM      1  C   UNL     1       0.928   1.370   0.029  0.00  0.00    +0.047 C 
ATOM      2  C   UNL     1       0.586  -0.097   0.002  0.00  0.00    -0.007 A 
ATOM      3  C   UNL     1       0.566  -0.775  -1.181  0.00  0.00    +0.008 A 
ATOM      4  C   UNL     1       0.245  -2.139  -1.190  0.00  0.00    +0.019 A 
ATOM      5  C   UNL     1      -0.042  -2.776  -0.033  0.00  0.00    +0.096 A 
ATOM      6  N   UNL     1      -0.026  -2.107   1.155  0.00  0.00    -0.267 N 
ATOM      7  C   UNL     1       0.290  -0.777   1.196  0.00  0.00    +0.145 A 
ATOM      8  N   UNL     1       0.317  -0.107   2.349  0.00  0.00    -0.213 NA
ATOM      9  C   UNL     1       0.047  -0.698   3.503  0.00  0.00    +0.136 A 
ATOM     10  C   UNL     1      -0.280  -2.074   3.523  0.00  0.00    +0.081 A 
ATOM     11  C   UNL     1      -0.318  -2.773   2.293  0.00  0.00    +0.267 A 
ATOM     12  O   UNL     1      -0.595  -3.960   2.263  0.00  0.00    -0.267 OA
ENDROOT
BRANCH  10  13
ATOM     13  C   UNL     1      -0.573  -2.733   4.740  0.00  0.00    +0.037 C 
ATOM     14  C   UNL     1       0.253  -3.716   5.200  0.00  0.00    +0.077 C 
ATOM     15  C   UNL     1       1.512  -4.151   4.696  0.00  0.00    +0.259 C 
ATOM     16  O   UNL     1       2.007  -3.630   3.712  0.00  0.00    -0.269 OA
ATOM     17  N   UNL     1       2.128  -5.137   5.325  0.00  0.00    -0.251 N 
ATOM     18  C   UNL     1       1.579  -5.716   6.416  0.00  0.00    +0.121 C 
ATOM     19  S   UNL     1       2.192  -6.993   7.377  0.00  0.00    -0.027 S 
ATOM     20  S   UNL     1       0.054  -4.804   6.605  0.00  0.00    -0.061 S 
BRANCH  17  21
ATOM     21  C   UNL     1       3.425  -5.609   4.832  0.00  0.00    +0.150 C 
BRANCH  21  22
ATOM     22  C   UNL     1       4.529  -4.827   5.496  0.00  0.00    -0.029 A 
ATOM     23  C   UNL     1       4.990  -3.658   4.920  0.00  0.00    +0.008 A 
ATOM     24  C   UNL     1       6.002  -2.940   5.527  0.00  0.00    +0.038 A 
ATOM     25  C   UNL     1       6.555  -3.392   6.714  0.00  0.00    +0.123 A 
ATOM     26  C   UNL     1       6.093  -4.563   7.290  0.00  0.00    +0.038 A 
ATOM     27  C   UNL     1       5.076  -5.277   6.683  0.00  0.00    +0.008 A 
ATOM     28  F   UNL     1       7.545  -2.691   7.309  0.00  0.00    -0.205 F 
ENDBRANCH  21  22
ENDBRANCH  17  21
ENDBRANCH  10  13
BRANCH   9  29
ATOM     29  N   UNL     1       0.084   0.023   4.677  0.00  0.00    -0.314 N 
ATOM     30  C   UNL     1       0.661  -0.560   5.896  0.00  0.00    +0.109 C 
ATOM     31  C   UNL     1       1.730   0.394   6.440  0.00  0.00    +0.004 C 
ATOM     32  C   UNL     1       1.115   1.782   6.637  0.00  0.00    +0.009 C 
ATOM     33  C   UNL     1       0.627   2.321   5.291  0.00  0.00    +0.004 C 
ATOM     34  C   UNL     1      -0.448   1.392   4.732  0.00  0.00    +0.109 C 
ATOM     35  C   UNL     1       1.800   2.388   4.311  0.00  0.00    +0.009 C 
ATOM     36  C   UNL     1       2.248  -0.131   7.781  0.00  0.00    +0.009 C 
ENDBRANCH   9  29
TORSDOF 4
