REMARK  Name = ZINC22373688
REMARK  8 active torsions:
REMARK  status: ('A' for Active; 'I' for Inactive)
REMARK    1  A    between atoms: C_1  and  C_2
REMARK    2  A    between atoms: C_2  and  C_35
REMARK    3  A    between atoms: C_4  and  N_13
REMARK    4  A    between atoms: C_14  and  C_16
REMARK    5  A    between atoms: C_16  and  N_17
REMARK    6  A    between atoms: N_17  and  C_18
REMARK    7  A    between atoms: N_17  and  S_26
REMARK    8  A    between atoms: S_26  and  C_29
REMARK                            x       y       z     vdW  Elec       q    Type
REMARK                         _______ _______ _______ _____ _____    ______ ____
ROOT
ATOM      1  N   UNL     1       4.346  -1.062  -1.628  0.00  0.00    -0.194 N 
ENDROOT
BRANCH   1   2
ATOM      2  C   UNL     1       4.019  -2.262  -2.268  0.00  0.00    +0.053 A 
ATOM      3  C   UNL     1       3.371  -2.240  -3.496  0.00  0.00    +0.027 A 
ATOM      4  C   UNL     1       3.054  -3.426  -4.129  0.00  0.00    +0.042 A 
ATOM      5  C   UNL     1       3.371  -4.636  -3.536  0.00  0.00    +0.142 A 
ATOM      6  C   UNL     1       4.013  -4.660  -2.308  0.00  0.00    +0.078 A 
ATOM      7  C   UNL     1       4.337  -3.475  -1.674  0.00  0.00    +0.047 A 
ATOM      8 CL   UNL     1       4.410  -6.179  -1.567  0.00  0.00    -0.081 Cl
ATOM      9  F   UNL     1       3.055  -5.794  -4.155  0.00  0.00    -0.204 F 
ENDBRANCH   1   2
BRANCH   1  10
ATOM     10  S   UNL     1       3.729  -0.729  -0.128  0.00  0.00    +0.075 S 
ATOM     11  O   UNL     1       4.681   0.095   0.530  0.00  0.00    -0.150 OA
ATOM     12  O   UNL     1       3.289  -1.967   0.414  0.00  0.00    -0.150 OA
BRANCH  10  13
ATOM     13  C   UNL     1       2.288   0.257  -0.364  0.00  0.00    +0.109 A 
ATOM     14  C   UNL     1       1.053  -0.348  -0.512  0.00  0.00    +0.029 A 
ATOM     15  C   UNL     1      -0.077   0.426  -0.697  0.00  0.00    +0.002 A 
ATOM     16  C   UNL     1       0.027   1.804  -0.734  0.00  0.00    +0.000 A 
ATOM     17  C   UNL     1       1.261   2.408  -0.586  0.00  0.00    +0.002 A 
ATOM     18  C   UNL     1       2.392   1.635  -0.402  0.00  0.00    +0.029 A 
ENDBRANCH  10  13
ENDBRANCH   1  10
BRANCH   1  19
ATOM     19  C   UNL     1       5.234  -0.100  -2.284  0.00  0.00    +0.227 C 
BRANCH  19  21
ATOM     20  N   UNL     1       7.668   0.279  -2.515  0.00  0.00    -0.307 N 
ATOM     21  C   UNL     1       6.668  -0.470  -2.008  0.00  0.00    +0.233 C 
ATOM     22  O   UNL     1       6.924  -1.442  -1.329  0.00  0.00    -0.274 OA
ATOM     23  H   UNL     1       7.436   1.161  -3.131  0.00  0.00    +0.149 HD
BRANCH  20  27
ATOM     24  C   UNL     1      12.342   0.779  -4.054  0.00  0.00    +0.055 C 
ATOM     25  C   UNL     1      11.416   0.342  -2.916  0.00  0.00    +0.107 C 
ATOM     26  C   UNL     1       9.954   0.469  -3.362  0.00  0.00    +0.074 C 
ATOM     27  C   UNL     1       9.062  -0.081  -2.246  0.00  0.00    +0.110 C 
ATOM     28  C   UNL     1       9.485   0.505  -0.923  0.00  0.00    +0.015 A 
ATOM     29  C   UNL     1       8.606   0.442   0.145  0.00  0.00    +0.009 A 
ATOM     30  C   UNL     1       8.962   0.965   1.373  0.00  0.00    +0.001 A 
ATOM     31  C   UNL     1      10.202   1.555   1.539  0.00  0.00    +0.004 A 
ATOM     32  C   UNL     1      11.081   1.622   0.478  0.00  0.00    +0.046 A 
ATOM     33  C   UNL     1      10.725   1.097  -0.760  0.00  0.00    +0.126 A 
ATOM     34  O   UNL     1      11.616   1.187  -1.782  0.00  0.00    -0.486 OA
ATOM     35  C   UNL     1      11.717  -1.110  -2.537  0.00  0.00    +0.055 C 
ENDBRANCH  20  27
ENDBRANCH  19  21
ENDBRANCH   1  19
TORSDOF 6
