REMARK  Name = ZINC32960830
REMARK  10 active torsions:
REMARK  status: ('A' for Active; 'I' for Inactive)
REMARK    1  A    between atoms: C_1  and  C_2
REMARK    2  A    between atoms: C_2  and  C_29
REMARK    3  A    between atoms: N_5  and  C_9
REMARK    4  A    between atoms: C_9  and  C_10
REMARK    5  A    between atoms: N_12  and  C_13
REMARK    6  A    between atoms: C_13  and  C_14
REMARK    7  A    between atoms: C_14  and  C_16
REMARK    8  A    between atoms: C_14  and  N_24
REMARK    9  A    between atoms: C_19  and  O_22
REMARK   10  A    between atoms: O_22  and  C_23
REMARK                            x       y       z     vdW  Elec       q    Type
REMARK                         _______ _______ _______ _____ _____    ______ ____
ROOT
ATOM      1  C   UNL     1      -7.314   1.683  -3.301  0.00  0.00    +0.213 C 
ENDROOT
BRANCH   1   6
ATOM      2  C   UNL     1      -4.615  -0.073   0.122  0.00  0.00    +0.047 C 
ATOM      3  C   UNL     1      -4.424   0.688  -1.192  0.00  0.00    +0.135 C 
ATOM      4  C   UNL     1      -5.624   1.567  -1.482  0.00  0.00    +0.251 C 
ATOM      5  O   UNL     1      -6.039   2.485  -0.808  0.00  0.00    -0.272 OA
ATOM      6  N   UNL     1      -6.134   1.115  -2.644  0.00  0.00    -0.215 N 
ATOM      7  C   UNL     1      -5.431   0.083  -3.124  0.00  0.00    +0.310 C 
ATOM      8  O   UNL     1      -5.698  -0.494  -4.160  0.00  0.00    -0.252 OA
ATOM      9  N   UNL     1      -4.395  -0.245  -2.331  0.00  0.00    -0.281 N 
ATOM     10  H   UNL     1      -3.613  -1.017  -2.391  0.00  0.00    +0.152 HD
BRANCH   3  11
ATOM     11  C   UNL     1      -3.162   1.510  -1.148  0.00  0.00    -0.015 A 
ATOM     12  C   UNL     1      -3.208   2.811  -0.650  0.00  0.00    +0.007 A 
ATOM     13  C   UNL     1      -2.086   3.580  -0.595  0.00  0.00    +0.009 A 
ATOM     14  C   UNL     1      -0.862   3.058  -1.048  0.00  0.00    -0.018 A 
ATOM     15  C   UNL     1       0.317   3.822  -1.007  0.00  0.00    +0.008 A 
ATOM     16  C   UNL     1       1.484   3.284  -1.453  0.00  0.00    +0.001 A 
ATOM     17  C   UNL     1       1.530   1.983  -1.951  0.00  0.00    +0.001 A 
ATOM     18  C   UNL     1       0.408   1.214  -2.006  0.00  0.00    +0.008 A 
ATOM     19  C   UNL     1      -0.817   1.738  -1.560  0.00  0.00    -0.018 A 
ATOM     20  C   UNL     1      -1.995   0.972  -1.594  0.00  0.00    +0.014 A 
ENDBRANCH   3  11
ENDBRANCH   1   6
BRANCH   1  21
ATOM     21  C   UNL     1      -8.552   0.976  -2.810  0.00  0.00    +0.231 C 
ATOM     22  O   UNL     1      -8.457   0.086  -1.991  0.00  0.00    -0.274 OA
ATOM     23  N   UNL     1      -9.763   1.334  -3.280  0.00  0.00    -0.315 N 
ATOM     24  H   UNL     1      -9.849   2.141  -4.022  0.00  0.00    +0.149 HD
BRANCH  23  25
ATOM     25  C   UNL     1     -10.966   0.647  -2.802  0.00  0.00    +0.093 C 
BRANCH  25  26
ATOM     26  C   UNL     1     -12.178   1.122  -3.606  0.00  0.00    -0.020 C 
BRANCH  26  27
ATOM     27  C   UNL     1     -13.426   0.477  -3.062  0.00  0.00    -0.059 A 
ATOM     28  C   UNL     1     -13.681  -0.858  -3.317  0.00  0.00    +0.005 A 
ATOM     29  C   UNL     1     -14.822  -1.453  -2.815  0.00  0.00    +0.046 A 
ATOM     30  C   UNL     1     -15.718  -0.708  -2.063  0.00  0.00    +0.120 A 
ATOM     31  C   UNL     1     -15.463   0.633  -1.813  0.00  0.00    +0.046 A 
ATOM     32  C   UNL     1     -14.318   1.222  -2.313  0.00  0.00    +0.005 A 
BRANCH  30  33
ATOM     33  O   UNL     1     -16.844  -1.289  -1.573  0.00  0.00    -0.495 OA
ATOM     34  C   UNL     1     -17.041  -2.673  -1.870  0.00  0.00    +0.277 C 
ENDBRANCH  30  33
ENDBRANCH  26  27
BRANCH  26  35
ATOM     35  N   UNL     1     -12.007   0.746  -5.016  0.00  0.00    +0.385 N 
ATOM     36  C   UNL     1     -13.272   0.929  -5.772  0.00  0.00    -0.078 C 
ATOM     37  C   UNL     1     -12.797   1.009  -7.245  0.00  0.00    -0.020 C 
ATOM     38  C   UNL     1     -11.472   1.799  -7.138  0.00  0.00    -0.020 C 
ATOM     39  C   UNL     1     -11.012   1.616  -5.680  0.00  0.00    -0.078 C 
ATOM     40  H   UNL     1     -11.683  -0.305  -5.009  0.00  0.00    -0.081 HD
ENDBRANCH  26  35
ENDBRANCH  25  26
ENDBRANCH  23  25
ENDBRANCH   1  21
TORSDOF 8
