REMARK  Name = ZINC04237051
REMARK  12 active torsions:
REMARK  status: ('A' for Active; 'I' for Inactive)
REMARK    1  A    between atoms: C_1  and  C_2
REMARK    2  A    between atoms: C_2  and  C_3
REMARK    3  A    between atoms: C_3  and  C_4
REMARK    4  A    between atoms: C_4  and  C_5
REMARK    5  A    between atoms: C_5  and  C_6
REMARK    6  A    between atoms: C_17  and  C_38
REMARK    7  A    between atoms: C_18  and  C_20
REMARK    8  A    between atoms: C_20  and  C_21
REMARK    9  A    between atoms: C_31  and  O_37
REMARK   10  A    between atoms: C_33  and  C_34
REMARK   11  A    between atoms: C_33  and  C_35
REMARK   12  A    between atoms: C_35  and  O_36
REMARK                            x       y       z     vdW  Elec       q    Type
REMARK                         _______ _______ _______ _____ _____    ______ ____
ROOT
ATOM      1  C   UNL     1      -0.778   2.049   0.741  0.00  0.00    +0.219 C 
ATOM      2  O   UNL     1      -1.777   2.736   0.714  0.00  0.00    -0.275 OA
ATOM      3  N   UNL     1      -0.300   1.600   1.919  0.00  0.00    -0.265 N 
ATOM      4  C   UNL     1      -0.953   1.924   3.102  0.00  0.00    +0.165 A 
ATOM      5  N   UNL     1      -0.644   1.585   4.337  0.00  0.00    -0.229 NA
ATOM      6  C   UNL     1      -1.372   1.974   5.382  0.00  0.00    +0.058 A 
ATOM      7  C   UNL     1      -2.453   2.745   5.100  0.00  0.00    +0.015 A 
ATOM      8  S   UNL     1      -2.381   2.887   3.335  0.00  0.00    -0.057 S 
ATOM      9  C   UNL     1      -3.435   3.321   6.059  0.00  0.00    +0.049 C 
ATOM     10  C   UNL     1      -3.272   2.622   7.423  0.00  0.00    +0.011 C 
ATOM     11  C   UNL     1      -1.784   2.556   7.774  0.00  0.00    -0.019 C 
ATOM     12  C   UNL     1      -1.057   1.598   6.822  0.00  0.00    +0.054 C 
ATOM     13  C   UNL     1      -1.602   2.015   9.196  0.00  0.00    +0.010 C 
ATOM     14  C   UNL     1      -2.345   2.895  10.199  0.00  0.00    +0.032 C 
ATOM     15  C   UNL     1      -3.837   2.883   9.856  0.00  0.00    +0.123 C 
ATOM     16  C   UNL     1      -4.024   3.466   8.457  0.00  0.00    +0.021 C 
ATOM     17  C   UNL     1      -5.514   3.484   8.110  0.00  0.00    +0.016 C 
ATOM     18  C   UNL     1      -1.172   3.954   7.675  0.00  0.00    +0.012 C 
ATOM     19  H   UNL     1       0.499   1.051   1.940  0.00  0.00    +0.157 HD
ENDROOT
BRANCH  15  20
ATOM     20  O   UNL     1      -4.554   3.675  10.805  0.00  0.00    -0.391 OA
ATOM     21  H   UNL     1      -4.470   3.367  11.718  0.00  0.00    +0.210 HD
ENDBRANCH  15  20
BRANCH   1  22
ATOM     22  C   UNL     1      -0.070   1.697  -0.542  0.00  0.00    +0.096 C 
BRANCH  22  23
ATOM     23  C   UNL     1      -0.812   2.327  -1.723  0.00  0.00    +0.009 C 
BRANCH  23  24
ATOM     24  C   UNL     1      -0.094   1.970  -3.026  0.00  0.00    +0.000 C 
BRANCH  24  26
ATOM     25  C   UNL     1      -0.118   2.244  -5.509  0.00  0.00    +0.004 C 
ATOM     26  C   UNL     1      -0.836   2.601  -4.206  0.00  0.00    -0.003 C 
ENDBRANCH  24  26
ENDBRANCH  23  24
ENDBRANCH  22  23
ENDBRANCH   1  22
BRANCH  12  27
ATOM     27  C   UNL     1       0.452   1.696   7.055  0.00  0.00    +0.106 C 
BRANCH  27  28
ATOM     28  C   UNL     1       1.153   0.618   6.269  0.00  0.00    +0.219 C 
ATOM     29  O   UNL     1       0.509  -0.153   5.589  0.00  0.00    -0.275 OA
ATOM     30  N   UNL     1       2.495   0.510   6.322  0.00  0.00    -0.265 N 
ATOM     31  C   UNL     1       3.142  -0.485   5.597  0.00  0.00    +0.164 A 
ATOM     32  N   UNL     1       4.431  -0.748   5.520  0.00  0.00    -0.233 NA
ATOM     33  C   UNL     1       4.883  -1.740   4.777  0.00  0.00    +0.120 A 
ATOM     34  C   UNL     1       3.989  -2.490   4.088  0.00  0.00    +0.068 A 
ATOM     35  S   UNL     1       2.457  -1.703   4.566  0.00  0.00    -0.061 S 
ATOM     36  H   UNL     1       3.010   1.126   6.865  0.00  0.00    +0.157 HD
ENDBRANCH  27  28
ENDBRANCH  12  27
BRANCH  16  37
ATOM     37  C   UNL     1      -3.484   4.898   8.429  0.00  0.00    +0.165 C 
BRANCH  37  38
ATOM     38  O   UNL     1      -4.284   5.724   9.277  0.00  0.00    -0.394 OA
ATOM     39  H   UNL     1      -3.999   6.648   9.309  0.00  0.00    +0.209 HD
ENDBRANCH  37  38
ENDBRANCH  16  37
TORSDOF 9
