REMARK  Name = ZINC01443966
REMARK  5 active torsions:
REMARK  status: ('A' for Active; 'I' for Inactive)
REMARK    1  A    between atoms: C_1  and  C_2
REMARK    2  A    between atoms: C_2  and  C_27
REMARK    3  A    between atoms: C_6  and  C_14
REMARK    4  A    between atoms: C_8  and  C_12
REMARK    5  A    between atoms: C_9  and  N_11
REMARK                            x       y       z     vdW  Elec       q    Type
REMARK                         _______ _______ _______ _____ _____    ______ ____
ROOT
ATOM      1  C   UNL     1       1.645   4.255   3.181  0.00  0.00    +0.012 C 
ATOM      2  C   UNL     1       2.309   4.914   1.970  0.00  0.00    -0.021 C 
ATOM      3  C   UNL     1       2.520   3.874   0.869  0.00  0.00    +0.081 C 
ATOM      4  C   UNL     1       1.185   3.315   0.436  0.00  0.00    +0.115 C 
ATOM      5  C   UNL     1       0.076   4.075   0.481  0.00  0.00    +0.046 C 
ATOM      6  C   UNL     1      -1.256   3.518   0.038  0.00  0.00    +0.102 C 
ATOM      7  C   UNL     1      -1.207   2.016   0.019  0.00  0.00    +0.098 C 
ATOM      8  C   UNL     1      -0.017   1.369   0.010  0.00  0.00    +0.198 C 
ATOM      9  O   UNL     1       1.145   2.041   0.002  0.00  0.00    -0.445 OA
ATOM     10  C   UNL     1       0.118   5.405   0.942  0.00  0.00    +0.164 C 
ATOM     11  O   UNL     1      -0.901   6.066   0.949  0.00  0.00    -0.292 OA
ATOM     12  C   UNL     1       1.402   6.022   1.425  0.00  0.00    +0.086 C 
ATOM     13  C   UNL     1       3.659   5.506   2.384  0.00  0.00    +0.012 C 
ENDROOT
BRANCH   6  14
ATOM     14  C   UNL     1      -1.571   4.019  -1.347  0.00  0.00    -0.017 A 
ATOM     15  C   UNL     1      -0.716   3.733  -2.396  0.00  0.00    +0.009 A 
ATOM     16  C   UNL     1      -1.004   4.186  -3.670  0.00  0.00    +0.050 A 
ATOM     17  C   UNL     1      -2.145   4.938  -3.897  0.00  0.00    +0.167 A 
ATOM     18  C   UNL     1      -3.004   5.231  -2.841  0.00  0.00    +0.180 A 
ATOM     19  C   UNL     1      -2.712   4.769  -1.567  0.00  0.00    +0.067 A 
ATOM     20 BR   UNL     1      -3.875   5.164  -0.129  0.00  0.00    -0.046 Br
ATOM     21  O   UNL     1      -4.043   5.977  -3.318  0.00  0.00    -0.451 OA
ATOM     22  C   UNL     1      -3.602   6.481  -4.592  0.00  0.00    +0.466 C 
ATOM     23  O   UNL     1      -2.646   5.500  -5.036  0.00  0.00    -0.453 OA
ENDBRANCH   6  14
BRANCH   8  24
ATOM     24  N   UNL     1       0.002  -0.004   0.002  0.00  0.00    -0.328 N 
ATOM     25  H   UNL     1       0.849  -0.478  -0.009  0.00  0.00    +0.145 HD
ATOM     26  H   UNL     1      -0.831  -0.500   0.007  0.00  0.00    +0.145 HD
ENDBRANCH   8  24
BRANCH   7  27
ATOM     27  C   UNL     1      -2.426   1.264   0.015  0.00  0.00    +0.101 C 
ATOM     28  N   UNL     1      -3.393   0.667   0.012  0.00  0.00    -0.191 NA
ENDBRANCH   7  27
TORSDOF 3
