REMARK  Name = ZINC28525510
REMARK  8 active torsions:
REMARK  status: ('A' for Active; 'I' for Inactive)
REMARK    1  A    between atoms: C_1  and  O_2
REMARK    2  A    between atoms: O_2  and  C_3
REMARK    3  A    between atoms: C_5  and  N_11
REMARK    4  A    between atoms: N_11  and  C_12
REMARK    5  A    between atoms: C_13  and  C_33
REMARK    6  A    between atoms: C_19  and  C_21
REMARK    7  A    between atoms: C_24  and  C_26
REMARK    8  A    between atoms: C_26  and  N_27
REMARK                            x       y       z     vdW  Elec       q    Type
REMARK                         _______ _______ _______ _____ _____    ______ ____
ROOT
ATOM      1  C   UNL     1       3.166   9.791   3.712  0.00  0.00    +0.066 A 
ATOM      2  C   UNL     1       4.436   9.763   4.329  0.00  0.00    +0.092 A 
ATOM      3  C   UNL     1       5.006   8.514   4.608  0.00  0.00    +0.132 A 
ATOM      4  N   UNL     1       4.402   7.395   4.316  0.00  0.00    -0.253 NA
ATOM      5  C   UNL     1       3.182   7.346   3.724  0.00  0.00    +0.081 A 
ATOM      6  C   UNL     1       2.565   8.581   3.422  0.00  0.00    +0.061 A 
ATOM      7  S   UNL     1       1.029   8.107   2.669  0.00  0.00    -0.082 S 
ATOM      8  C   UNL     1       1.227   6.337   2.776  0.00  0.00    +0.057 A 
ATOM      9  C   UNL     1       2.447   6.204   3.369  0.00  0.00    +0.047 A 
ENDROOT
BRANCH   8  10
ATOM     10  C   UNL     1       0.305   5.282   2.329  0.00  0.00    +0.142 A 
ATOM     11  C   UNL     1      -0.909   5.477   1.739  0.00  0.00    +0.051 A 
ATOM     12  C   UNL     1      -1.441   4.200   1.476  0.00  0.00    +0.046 A 
ATOM     13  C   UNL     1      -0.542   3.298   1.920  0.00  0.00    +0.120 A 
ATOM     14  O   UNL     1       0.511   3.954   2.431  0.00  0.00    -0.458 OA
BRANCH  13  15
ATOM     15  C   UNL     1      -0.694   1.800   1.848  0.00  0.00    +0.158 C 
BRANCH  15  16
ATOM     16  N   UNL     1      -0.137   1.312   0.580  0.00  0.00    -0.299 NA
ATOM     17  C   UNL     1       1.176   1.916   0.313  0.00  0.00    +0.066 C 
ATOM     18  C   UNL     1       1.684   1.444  -1.051  0.00  0.00    -0.067 C 
ATOM     19  N   UNL     1       1.772  -0.023  -1.058  0.00  0.00    +0.381 N 
ATOM     20  C   UNL     1       0.459  -0.627  -0.791  0.00  0.00    -0.067 C 
ATOM     21  C   UNL     1      -0.050  -0.155   0.573  0.00  0.00    +0.066 C 
ATOM     22  H   UNL     1       2.125  -0.365  -2.042  0.00  0.00    -0.086 HD
ATOM     23  H   UNL     1       2.477  -0.352  -0.280  0.00  0.00    -0.086 HD
ENDBRANCH  15  16
ENDBRANCH  13  15
ENDBRANCH   8  10
BRANCH   1  24
ATOM     24  N   UNL     1       2.543  10.992   3.408  0.00  0.00    -0.311 N 
ATOM     25  H   UNL     1       1.802  11.037   2.597  0.00  0.00    +0.152 HD
BRANCH  24  28
ATOM     26  C   UNL     1       3.827  14.341   4.232  0.00  0.00    +0.140 A 
ATOM     27  C   UNL     1       3.521  13.196   3.513  0.00  0.00    +0.071 A 
ATOM     28  C   UNL     1       2.858  12.146   4.133  0.00  0.00    +0.054 A 
ATOM     29  C   UNL     1       2.512  12.241   5.476  0.00  0.00    +0.064 A 
ATOM     30  C   UNL     1       2.823  13.381   6.191  0.00  0.00    +0.045 A 
ATOM     31  C   UNL     1       3.479  14.431   5.574  0.00  0.00    +0.084 A 
ATOM     32 CL   UNL     1       3.868  15.862   6.476  0.00  0.00    -0.080 Cl
ATOM     33 CL   UNL     1       1.689  10.925   6.255  0.00  0.00    -0.082 Cl
BRANCH  26  35
ATOM     34  C   UNL     1       4.702  15.258   2.221  0.00  0.00    +0.277 C 
ATOM     35  O   UNL     1       4.471  15.373   3.627  0.00  0.00    -0.494 OA
ENDBRANCH  26  35
ENDBRANCH  24  28
ENDBRANCH   1  24
BRANCH   2  36
ATOM     36  C   UNL     1       5.122  10.976   4.660  0.00  0.00    +0.103 C 
ATOM     37  N   UNL     1       5.666  11.938   4.922  0.00  0.00    -0.191 NA
ENDBRANCH   2  36
TORSDOF 7
