REMARK  Name = ZINC08621331
REMARK  10 active torsions:
REMARK  status: ('A' for Active; 'I' for Inactive)
REMARK    1  A    between atoms: C_1  and  C_2
REMARK    2  A    between atoms: C_2  and  C_3
REMARK    3  A    between atoms: C_3  and  C_5
REMARK    4  A    between atoms: C_3  and  N_6
REMARK    5  A    between atoms: C_15  and  S_16
REMARK    6  A    between atoms: S_16  and  C_17
REMARK    7  A    between atoms: C_17  and  C_19
REMARK    8  A    between atoms: C_17  and  C_22
REMARK    9  A    between atoms: C_19  and  C_20
REMARK   10  A    between atoms: C_19  and  C_21
REMARK                            x       y       z     vdW  Elec       q    Type
REMARK                         _______ _______ _______ _____ _____    ______ ____
ROOT
ATOM      1  N   UNL     1      -0.108  -0.013   2.423  0.00  0.00    -0.284 N 
ATOM      2  C   UNL     1      -1.348  -0.495   2.624  0.00  0.00    +0.263 A 
ATOM      3  O   UNL     1      -1.903  -1.153   1.761  0.00  0.00    -0.267 OA
ATOM      4  C   UNL     1      -2.006  -0.225   3.865  0.00  0.00    +0.076 A 
ATOM      5  C   UNL     1      -3.345  -0.649   4.290  0.00  0.00    -0.023 A 
ATOM      6  C   UNL     1      -3.743  -0.258   5.517  0.00  0.00    -0.004 A 
ATOM      7  S   UNL     1      -2.381   0.670   6.174  0.00  0.00    -0.073 S 
ATOM      8  C   UNL     1      -1.278   0.541   4.790  0.00  0.00    +0.117 A 
ATOM      9  N   UNL     1      -0.055   0.989   4.530  0.00  0.00    -0.216 NA
ATOM     10  C   UNL     1       0.531   0.721   3.381  0.00  0.00    +0.174 A 
ATOM     11  C   UNL     1      -5.054  -0.531   6.188  0.00  0.00    +0.043 C 
ATOM     12  C   UNL     1      -5.378  -2.026   6.077  0.00  0.00    +0.005 C 
ATOM     13  C   UNL     1      -6.160  -2.255   4.787  0.00  0.00    +0.001 C 
ATOM     14  C   UNL     1      -5.695  -1.272   3.713  0.00  0.00    +0.005 C 
ATOM     15  C   UNL     1      -4.226  -1.500   3.380  0.00  0.00    +0.037 C 
ENDROOT
BRANCH   1  16
ATOM     16  C   UNL     1       0.573  -0.285   1.154  0.00  0.00    +0.089 C 
ATOM     17  C   UNL     1       0.714  -1.797   0.966  0.00  0.00    +0.031 C 
BRANCH  16  19
ATOM     18  C   UNL     1      -0.282   1.824   0.122  0.00  0.00    +0.006 C 
ATOM     19  C   UNL     1      -0.246   0.299   0.001  0.00  0.00    +0.021 C 
ENDBRANCH  16  19
ENDBRANCH   1  16
BRANCH  10  20
ATOM     20  S   UNL     1       2.157   1.325   3.073  0.00  0.00    -0.075 S 
BRANCH  20  21
ATOM     21  C   UNL     1       2.531   2.340   4.529  0.00  0.00    +0.143 C 
BRANCH  21  22
ATOM     22  C   UNL     1       2.665   1.452   5.739  0.00  0.00    +0.234 C 
ATOM     23  O   UNL     1       2.975   0.287   5.605  0.00  0.00    -0.274 OA
ATOM     24  N   UNL     1       2.441   1.952   6.970  0.00  0.00    -0.239 N 
ATOM     25  C   UNL     1       2.561   1.158   8.053  0.00  0.00    +0.303 C 
ATOM     26  O   UNL     1       2.871  -0.009   7.918  0.00  0.00    -0.253 OA
ATOM     27  N   UNL     1       2.337   1.659   9.284  0.00  0.00    -0.313 N 
ATOM     28  H   UNL     1       2.193   2.884   7.077  0.00  0.00    +0.159 HD
ATOM     29  H   UNL     1       2.089   2.590   9.391  0.00  0.00    +0.146 HD
ATOM     30  H   UNL     1       2.423   1.087  10.063  0.00  0.00    +0.146 HD
ENDBRANCH  21  22
BRANCH  21  31
ATOM     31  C   UNL     1       3.843   3.093   4.301  0.00  0.00    +0.005 C 
ATOM     32  C   UNL     1       4.949   2.097   3.945  0.00  0.00    +0.009 C 
ATOM     33  C   UNL     1       3.667   4.091   3.155  0.00  0.00    +0.009 C 
ENDBRANCH  21  31
ENDBRANCH  20  21
ENDBRANCH  10  20
TORSDOF 6
