REMARK  Name = ZINC13011935
REMARK  10 active torsions:
REMARK  status: ('A' for Active; 'I' for Inactive)
REMARK    1  A    between atoms: C_1  and  C_2
REMARK    2  A    between atoms: C_5  and  N_9
REMARK    3  A    between atoms: C_6  and  C_8
REMARK    4  A    between atoms: C_10  and  C_12
REMARK    5  A    between atoms: C_12  and  C_13
REMARK    6  A    between atoms: N_24  and  S_25
REMARK    7  A    between atoms: S_25  and  C_28
REMARK    8  A    between atoms: C_31  and  C_34
REMARK    9  A    between atoms: C_34  and  N_35
REMARK   10  A    between atoms: C_36  and  C_38
REMARK                            x       y       z     vdW  Elec       q    Type
REMARK                         _______ _______ _______ _____ _____    ______ ____
ROOT
ATOM      1  C   UNL     1      -1.603   3.713   8.441  0.00  0.00    +0.192 C 
ATOM      2  C   UNL     1      -2.329   4.143   9.690  0.00  0.00    +0.240 C 
ATOM      3  O   UNL     1      -2.338   5.315  10.005  0.00  0.00    -0.273 OA
ATOM      4  N   UNL     1      -2.968   3.243  10.461  0.00  0.00    -0.282 N 
ATOM      5  C   UNL     1      -2.930   1.879  10.147  0.00  0.00    +0.056 A 
ATOM      6  C   UNL     1      -3.806   0.989  10.748  0.00  0.00    +0.025 A 
ATOM      7  C   UNL     1      -3.750  -0.355  10.427  0.00  0.00    +0.002 A 
ATOM      8  C   UNL     1      -2.824  -0.816   9.509  0.00  0.00    +0.002 A 
ATOM      9  C   UNL     1      -1.946   0.065   8.903  0.00  0.00    +0.026 A 
ATOM     10  C   UNL     1      -1.999   1.411   9.218  0.00  0.00    +0.073 A 
ATOM     11  N   UNL     1      -1.131   2.331   8.614  0.00  0.00    -0.189 N 
ATOM     12  H   UNL     1      -3.458   3.542  11.242  0.00  0.00    +0.155 HD
ENDROOT
BRANCH  11  13
ATOM     13  S   UNL     1       0.380   1.875   8.110  0.00  0.00    +0.075 S 
ATOM     14  O   UNL     1       0.217   0.665   7.383  0.00  0.00    -0.150 OA
ATOM     15  O   UNL     1       0.984   3.030   7.543  0.00  0.00    -0.150 OA
BRANCH  13  16
ATOM     16  C   UNL     1       1.311   1.476   9.552  0.00  0.00    +0.109 A 
ATOM     17  C   UNL     1       2.049   2.454  10.191  0.00  0.00    +0.029 A 
ATOM     18  C   UNL     1       2.776   2.141  11.324  0.00  0.00    +0.007 A 
ATOM     19  C   UNL     1       2.773   0.848  11.813  0.00  0.00    -0.030 A 
ATOM     20  C   UNL     1       2.038  -0.131  11.171  0.00  0.00    +0.007 A 
ATOM     21  C   UNL     1       1.308   0.182  10.040  0.00  0.00    +0.029 A 
BRANCH  19  22
ATOM     22  C   UNL     1       3.570   0.506  13.046  0.00  0.00    +0.139 C 
BRANCH  22  23
ATOM     23  N   UNL     1       4.920   0.094  12.655  0.00  0.00    -0.311 N 
ATOM     24  C   UNL     1       5.815  -0.260  13.599  0.00  0.00    +0.210 C 
ATOM     25  O   UNL     1       5.503  -0.238  14.770  0.00  0.00    -0.276 OA
ATOM     26  C   UNL     1       7.205  -0.685  13.197  0.00  0.00    +0.109 C 
ATOM     27  H   UNL     1       5.170   0.076  11.718  0.00  0.00    +0.149 HD
ENDBRANCH  22  23
ENDBRANCH  19  22
ENDBRANCH  13  16
ENDBRANCH  11  13
BRANCH   1  28
ATOM     28  C   UNL     1      -2.555   3.782   7.246  0.00  0.00    +0.129 C 
BRANCH  28  30
ATOM     29  N   UNL     1      -2.422   3.536   4.788  0.00  0.00    -0.285 N 
ATOM     30  C   UNL     1      -1.798   3.469   5.981  0.00  0.00    +0.220 C 
ATOM     31  O   UNL     1      -0.628   3.155   6.037  0.00  0.00    -0.275 OA
ATOM     32  H   UNL     1      -3.340   3.845   4.737  0.00  0.00    +0.155 HD
BRANCH  29  37
ATOM     33  C   UNL     1       0.323   2.011   0.063  0.00  0.00    +0.044 C 
ATOM     34  C   UNL     1      -0.406   2.416   1.319  0.00  0.00    -0.050 A 
ATOM     35  C   UNL     1       0.286   3.012   2.357  0.00  0.00    +0.005 A 
ATOM     36  C   UNL     1      -0.379   3.385   3.508  0.00  0.00    +0.024 A 
ATOM     37  C   UNL     1      -1.744   3.159   3.623  0.00  0.00    +0.036 A 
ATOM     38  C   UNL     1      -2.437   2.560   2.579  0.00  0.00    -0.029 A 
ATOM     39  C   UNL     1      -1.766   2.195   1.428  0.00  0.00    +0.008 A 
ATOM     40  C   UNL     1      -3.919   2.314   2.700  0.00  0.00    +0.045 C 
ENDBRANCH  29  37
ENDBRANCH  28  30
ENDBRANCH   1  28
TORSDOF 7
