REMARK  Name = ZINC09272048
REMARK  7 active torsions:
REMARK  status: ('A' for Active; 'I' for Inactive)
REMARK    1  A    between atoms: C_1  and  C_2
REMARK    2  A    between atoms: C_5  and  S_8
REMARK    3  A    between atoms: S_8  and  C_9
REMARK    4  A    between atoms: C_9  and  C_10
REMARK    5  A    between atoms: C_17  and  N_34
REMARK    6  A    between atoms: C_18  and  C_32
REMARK    7  A    between atoms: C_19  and  C_21
REMARK                            x       y       z     vdW  Elec       q    Type
REMARK                         _______ _______ _______ _____ _____    ______ ____
ROOT
ATOM      1  C   UNL     1       0.097  -6.482   1.870  0.00  0.00    +0.054 A 
ATOM      2  C   UNL     1      -0.976  -7.285   1.942  0.00  0.00    +0.050 A 
ATOM      3  C   UNL     1      -0.520  -8.616   2.060  0.00  0.00    +0.245 A 
ATOM      4  N   UNL     1       0.782  -8.598   2.060  0.00  0.00    -0.135 NA
ATOM      5  N   UNL     1       1.200  -7.263   1.936  0.00  0.00    -0.277 N 
ATOM      6  H   UNL     1       2.119  -6.955   1.905  0.00  0.00    +0.189 HD
ATOM      7  O   UNL     1      -1.378  -9.667   2.150  0.00  0.00    -0.421 OA
ATOM      8  C   UNL     1      -2.673  -9.438   1.852  0.00  0.00    +0.201 C 
ATOM      9  C   UNL     1      -3.224  -8.213   1.726  0.00  0.00    +0.098 C 
ATOM     10  C   UNL     1      -2.442  -6.937   1.911  0.00  0.00    +0.104 C 
ENDROOT
BRANCH  10  11
ATOM     11  C   UNL     1      -2.837  -6.282   3.209  0.00  0.00    +0.003 A 
ATOM     12  C   UNL     1      -2.681  -6.954   4.388  0.00  0.00    +0.017 A 
ATOM     13  C   UNL     1      -3.062  -6.305   5.578  0.00  0.00    +0.001 A 
ATOM     14  C   UNL     1      -2.931  -6.933   6.827  0.00  0.00    +0.010 A 
ATOM     15  C   UNL     1      -3.311  -6.272   7.955  0.00  0.00    +0.001 A 
ATOM     16  C   UNL     1      -3.829  -4.980   7.888  0.00  0.00    +0.002 A 
ATOM     17  C   UNL     1      -3.970  -4.342   6.694  0.00  0.00    +0.028 A 
ATOM     18  C   UNL     1      -3.589  -4.991   5.507  0.00  0.00    +0.073 A 
ATOM     19  N   UNL     1      -3.715  -4.389   4.320  0.00  0.00    -0.235 NA
ATOM     20  C   UNL     1      -3.356  -4.988   3.209  0.00  0.00    +0.134 A 
ATOM     21 CL   UNL     1      -3.537  -4.150   1.700  0.00  0.00    -0.062 Cl
ENDBRANCH  10  11
BRANCH   8  22
ATOM     22  N   UNL     1      -3.487 -10.527   1.664  0.00  0.00    -0.328 N 
ATOM     23  H   UNL     1      -3.125 -11.423   1.747  0.00  0.00    +0.145 HD
ATOM     24  H   UNL     1      -4.424 -10.400   1.448  0.00  0.00    +0.145 HD
ENDBRANCH   8  22
BRANCH   9  25
ATOM     25  C   UNL     1      -4.615  -8.120   1.401  0.00  0.00    +0.101 C 
ATOM     26  N   UNL     1      -5.719  -8.047   1.143  0.00  0.00    -0.191 NA
ENDBRANCH   9  25
BRANCH   1  27
ATOM     27  C   UNL     1       0.077  -4.981   1.735  0.00  0.00    +0.129 C 
BRANCH  27  28
ATOM     28  S   UNL     1       0.062  -4.533  -0.023  0.00  0.00    -0.119 S 
BRANCH  28  33
ATOM     29  C   UNL     1      -0.018   1.503   0.010  0.00  0.00    +0.044 C 
ATOM     30  C   UNL     1       0.002  -0.004   0.002  0.00  0.00    -0.050 A 
ATOM     31  C   UNL     1       0.006  -0.687  -1.200  0.00  0.00    +0.004 A 
ATOM     32  C   UNL     1       0.024  -2.068  -1.212  0.00  0.00    +0.015 A 
ATOM     33  C   UNL     1       0.039  -2.771  -0.013  0.00  0.00    +0.008 A 
ATOM     34  C   UNL     1       0.036  -2.081   1.193  0.00  0.00    +0.015 A 
ATOM     35  C   UNL     1       0.023  -0.700   1.197  0.00  0.00    +0.004 A 
ENDBRANCH  28  33
ENDBRANCH  27  28
ENDBRANCH   1  27
TORSDOF 6
