REMARK  Name = ZINC15978439
REMARK  14 active torsions:
REMARK  status: ('A' for Active; 'I' for Inactive)
REMARK    1  A    between atoms: C_1  and  C_2
REMARK    2  A    between atoms: C_2  and  C_3
REMARK    3  A    between atoms: C_3  and  N_4
REMARK    4  A    between atoms: N_6  and  C_13
REMARK    5  A    between atoms: C_13  and  C_26
REMARK    6  A    between atoms: C_14  and  C_15
REMARK    7  A    between atoms: C_14  and  O_25
REMARK    8  A    between atoms: C_18  and  O_23
REMARK    9  A    between atoms: C_19  and  O_21
REMARK   10  A    between atoms: O_21  and  C_22
REMARK   11  A    between atoms: O_23  and  C_24
REMARK   12  A    between atoms: C_26  and  N_27
REMARK   13  A    between atoms: N_27  and  C_28
REMARK   14  A    between atoms: C_33  and  C_34
REMARK                            x       y       z     vdW  Elec       q    Type
REMARK                         _______ _______ _______ _____ _____    ______ ____
ROOT
ATOM      1  C   UNL     1       2.831  -5.101  -0.106  0.00  0.00    +0.119 C 
ATOM      2  C   UNL     1       2.672  -5.820   1.042  0.00  0.00    +0.150 C 
ENDROOT
BRANCH   1   5
ATOM      3  N   UNL     1       2.699  -1.580   0.218  0.00  0.00    -0.331 N 
ATOM      4  C   UNL     1       3.276  -2.729   0.418  0.00  0.00    +0.182 A 
ATOM      5  N   UNL     1       2.527  -3.729  -0.123  0.00  0.00    -0.295 N 
ATOM      6  C   UNL     1       1.413  -3.144  -0.694  0.00  0.00    +0.072 A 
ATOM      7  C   UNL     1       1.538  -1.763  -0.460  0.00  0.00    +0.067 A 
ATOM      8  C   UNL     1       0.545  -0.895  -0.922  0.00  0.00    +0.028 A 
ATOM      9  C   UNL     1      -0.544  -1.400  -1.597  0.00  0.00    +0.002 A 
ATOM     10  C   UNL     1      -0.663  -2.764  -1.823  0.00  0.00    +0.002 A 
ATOM     11  C   UNL     1       0.310  -3.634  -1.379  0.00  0.00    +0.028 A 
BRANCH   3  12
ATOM     12  C   UNL     1       3.220  -0.285   0.664  0.00  0.00    +0.123 C 
BRANCH  12  14
ATOM     13  C   UNL     1       3.142   1.430   2.479  0.00  0.00    +0.005 C 
ATOM     14  C   UNL     1       2.598   0.078   2.013  0.00  0.00    +0.018 C 
ENDBRANCH  12  14
ENDBRANCH   3  12
ENDBRANCH   1   5
BRANCH   2  15
ATOM     15  C   UNL     1       2.018  -5.207   2.211  0.00  0.00    +0.022 A 
ATOM     16  C   UNL     1       0.802  -4.534   2.060  0.00  0.00    +0.015 A 
ATOM     17  C   UNL     1       0.191  -3.960   3.155  0.00  0.00    +0.050 A 
ATOM     18  C   UNL     1       0.781  -4.049   4.408  0.00  0.00    +0.162 A 
ATOM     19  C   UNL     1       1.994  -4.718   4.566  0.00  0.00    +0.162 A 
ATOM     20  C   UNL     1       2.609  -5.301   3.475  0.00  0.00    +0.061 A 
BRANCH  19  21
ATOM     21  O   UNL     1       2.569  -4.802   5.796  0.00  0.00    -0.491 OA
ATOM     22  C   UNL     1       3.812  -5.502   5.884  0.00  0.00    +0.277 C 
ENDBRANCH  19  21
BRANCH  18  23
ATOM     23  O   UNL     1       0.175  -3.482   5.484  0.00  0.00    -0.491 OA
ATOM     24  C   UNL     1      -1.065  -2.812   5.251  0.00  0.00    +0.277 C 
ENDBRANCH  18  23
ENDBRANCH   2  15
BRANCH   2  25
ATOM     25  O   UNL     1       3.116  -7.098   1.108  0.00  0.00    -0.504 OA
ATOM     26  H   UNL     1       2.959  -7.526   1.961  0.00  0.00    +0.292 HD
ENDBRANCH   2  25
BRANCH   1  27
ATOM     27  C   UNL     1       3.302  -5.736  -1.279  0.00  0.00    +0.104 C 
ATOM     28  S   UNL     1       3.686  -4.803  -2.662  0.00  0.00    -0.033 S 
BRANCH  27  29
ATOM     29  N   UNL     1       3.449  -7.076  -1.307  0.00  0.00    -0.307 N 
ATOM     30  H   UNL     1       3.155  -7.612  -0.554  0.00  0.00    +0.153 HD
BRANCH  29  31
ATOM     31  C   UNL     1       4.023  -7.692  -2.422  0.00  0.00    +0.036 A 
ATOM     32  C   UNL     1       3.664  -7.290  -3.703  0.00  0.00    +0.023 A 
ATOM     33  C   UNL     1       4.233  -7.901  -4.802  0.00  0.00    +0.003 A 
ATOM     34  C   UNL     1       5.160  -8.913  -4.631  0.00  0.00    +0.020 A 
ATOM     35  C   UNL     1       5.521  -9.316  -3.357  0.00  0.00    +0.046 A 
ATOM     36  C   UNL     1       4.959  -8.704  -2.252  0.00  0.00    -0.011 A 
ATOM     37  C   UNL     1       5.356  -9.140  -0.865  0.00  0.00    +0.047 C 
ATOM     38 CL   UNL     1       6.684 -10.587  -3.147  0.00  0.00    -0.083 Cl
ENDBRANCH  29  31
ENDBRANCH  27  29
ENDBRANCH   1  27
TORSDOF 10
