REMARK  Name = ZINC13963664
REMARK  5 active torsions:
REMARK  status: ('A' for Active; 'I' for Inactive)
REMARK    1  A    between atoms: C_1  and  C_2
REMARK    2  A    between atoms: C_5  and  C_28
REMARK    3  A    between atoms: C_17  and  O_20
REMARK    4  A    between atoms: O_20  and  C_21
REMARK    5  A    between atoms: C_21  and  C_22
REMARK                            x       y       z     vdW  Elec       q    Type
REMARK                         _______ _______ _______ _____ _____    ______ ____
ROOT
ATOM      1  C   UNL     1      -2.314  -3.931   3.921  0.00  0.00    +0.009 C 
ATOM      2  C   UNL     1      -1.718  -4.833   2.839  0.00  0.00    +0.004 C 
ATOM      3  C   UNL     1      -0.735  -5.819   3.478  0.00  0.00    +0.009 C 
ATOM      4  C   UNL     1      -0.100  -6.677   2.381  0.00  0.00    +0.004 C 
ATOM      5  C   UNL     1       0.594  -5.766   1.365  0.00  0.00    +0.109 C 
ATOM      6  N   UNL     1      -0.388  -4.843   0.782  0.00  0.00    -0.315 N 
ATOM      7  C   UNL     1      -0.978  -3.976   1.810  0.00  0.00    +0.109 C 
ATOM      8  C   UNL     1       0.179  -4.092  -0.237  0.00  0.00    +0.122 A 
ATOM      9  C   UNL     1       0.793  -4.749  -1.313  0.00  0.00    +0.044 A 
ATOM     10  C   UNL     1       1.354  -4.024  -2.320  0.00  0.00    +0.013 A 
ATOM     11  C   UNL     1       1.297  -2.617  -2.243  0.00  0.00    +0.004 A 
ATOM     12  C   UNL     1       1.855  -1.810  -3.247  0.00  0.00    +0.010 A 
ATOM     13  C   UNL     1       1.782  -0.454  -3.142  0.00  0.00    +0.004 A 
ATOM     14  C   UNL     1       1.155   0.146  -2.054  0.00  0.00    +0.048 A 
ATOM     15  C   UNL     1       0.606  -0.607  -1.056  0.00  0.00    +0.147 A 
ATOM     16  C   UNL     1       0.663  -2.014  -1.131  0.00  0.00    +0.115 A 
ATOM     17  N   UNL     1       0.129  -2.777  -0.172  0.00  0.00    -0.228 NA
ATOM     18  C   UNL     1       0.927  -7.624   3.004  0.00  0.00    +0.009 C 
ENDROOT
BRANCH  15  19
ATOM     19  O   UNL     1       0.002  -0.004   0.002  0.00  0.00    -0.485 OA
BRANCH  19  20
ATOM     20  C   UNL     1      -0.017   1.425   0.010  0.00  0.00    +0.266 C 
BRANCH  20  21
ATOM     21  C   UNL     1      -0.723   1.911   1.250  0.00  0.00    +0.008 A 
ATOM     22  C   UNL     1      -2.092   2.132   1.238  0.00  0.00    +0.010 A 
ATOM     23  C   UNL     1      -2.699   2.574   2.403  0.00  0.00    +0.020 A 
ATOM     24  C   UNL     1      -1.923   2.789   3.527  0.00  0.00    +0.111 A 
ATOM     25  N   UNL     1      -0.623   2.573   3.500  0.00  0.00    -0.263 NA
ATOM     26  C   UNL     1      -0.013   2.147   2.411  0.00  0.00    +0.117 A 
ENDBRANCH  20  21
ENDBRANCH  19  20
ENDBRANCH  15  19
TORSDOF 3
