REMARK  Name = ZINC13635126
REMARK  8 active torsions:
REMARK  status: ('A' for Active; 'I' for Inactive)
REMARK    1  A    between atoms: C_1  and  C_2
REMARK    2  A    between atoms: C_3  and  C_25
REMARK    3  A    between atoms: C_4  and  C_16
REMARK    4  A    between atoms: C_19  and  O_23
REMARK    5  A    between atoms: C_20  and  O_22
REMARK    6  A    between atoms: O_23  and  C_24
REMARK    7  A    between atoms: C_25  and  O_27
REMARK    8  A    between atoms: O_27  and  C_28
REMARK                            x       y       z     vdW  Elec       q    Type
REMARK                         _______ _______ _______ _____ _____    ______ ____
ROOT
ATOM      1  C   UNL     1      -2.613   7.101   2.561  0.00  0.00    +0.061 C 
ATOM      2  C   UNL     1      -2.530   6.343   1.261  0.00  0.00    +0.020 C 
ATOM      3  C   UNL     1      -2.637   5.007   1.283  0.00  0.00    +0.080 C 
ATOM      4  C   UNL     1      -2.557   4.152   0.049  0.00  0.00    +0.159 C 
ATOM      5  N   UNL     1      -2.657   4.997  -1.142  0.00  0.00    -0.300 N 
ATOM      6  C   UNL     1      -2.859   4.649  -2.446  0.00  0.00    +0.071 A 
ATOM      7  C   UNL     1      -3.038   3.425  -3.080  0.00  0.00    +0.028 A 
ATOM      8  C   UNL     1      -3.219   3.447  -4.453  0.00  0.00    +0.002 A 
ATOM      9  C   UNL     1      -3.224   4.628  -5.175  0.00  0.00    +0.002 A 
ATOM     10  C   UNL     1      -3.047   5.858  -4.568  0.00  0.00    +0.030 A 
ATOM     11  C   UNL     1      -2.863   5.861  -3.180  0.00  0.00    +0.091 A 
ATOM     12  N   UNL     1      -2.669   6.864  -2.301  0.00  0.00    -0.214 NA
ATOM     13  C   UNL     1      -2.550   6.370  -1.099  0.00  0.00    +0.202 A 
ATOM     14  N   UNL     1      -2.349   7.045   0.096  0.00  0.00    -0.288 N 
ATOM     15  H   UNL     1      -2.090   7.979   0.108  0.00  0.00    +0.155 HD
ENDROOT
BRANCH   4  16
ATOM     16  C   UNL     1      -1.242   3.416   0.032  0.00  0.00    -0.016 A 
ATOM     17  C   UNL     1      -0.055   4.125   0.025  0.00  0.00    +0.010 A 
ATOM     18  C   UNL     1       1.154   3.455   0.010  0.00  0.00    +0.050 A 
ATOM     19  C   UNL     1       1.178   2.069   0.002  0.00  0.00    +0.161 A 
ATOM     20  C   UNL     1      -0.016   1.356   0.009  0.00  0.00    +0.159 A 
ATOM     21  C   UNL     1      -1.225   2.034   0.019  0.00  0.00    +0.055 A 
BRANCH  20  22
ATOM     22  O   UNL     1       0.002  -0.004   0.002  0.00  0.00    -0.503 OA
ATOM     23  H   UNL     1       0.016  -0.402   0.883  0.00  0.00    +0.292 HD
ENDBRANCH  20  22
BRANCH  19  24
ATOM     24  O   UNL     1       2.367   1.409  -0.013  0.00  0.00    -0.491 OA
ATOM     25  C   UNL     1       3.552   2.206  -0.021  0.00  0.00    +0.277 C 
ENDBRANCH  19  24
ENDBRANCH   4  16
BRANCH   3  26
ATOM     26  C   UNL     1      -2.834   4.371   2.529  0.00  0.00    +0.339 C 
ATOM     27  O   UNL     1      -2.903   5.034   3.547  0.00  0.00    -0.245 OA
BRANCH  26  28
ATOM     28  O   UNL     1      -2.946   3.027   2.591  0.00  0.00    -0.465 OA
ATOM     29  C   UNL     1      -3.144   2.451   3.883  0.00  0.00    +0.280 C 
ENDBRANCH  26  28
ENDBRANCH   3  26
TORSDOF 5
