REMARK  Name = ZINC39957172
REMARK  8 active torsions:
REMARK  status: ('A' for Active; 'I' for Inactive)
REMARK    1  A    between atoms: C_1  and  C_2
REMARK    2  A    between atoms: C_2  and  C_25
REMARK    3  A    between atoms: C_6  and  C_21
REMARK    4  A    between atoms: C_17  and  C_19
REMARK    5  A    between atoms: C_17  and  C_20
REMARK    6  A    between atoms: C_21  and  C_22
REMARK    7  A    between atoms: C_22  and  C_23
REMARK    8  A    between atoms: C_23  and  O_24
REMARK                            x       y       z     vdW  Elec       q    Type
REMARK                         _______ _______ _______ _____ _____    ______ ____
ROOT
ATOM      1  C   UNL     1      -0.019   1.526   0.010  0.00  0.00    +0.074 C 
ATOM      2  C   UNL     1       0.002  -0.004   0.002  0.00  0.00    +0.166 C 
ATOM      3  O   UNL     1       0.690  -0.473  -1.175  0.00  0.00    -0.341 OA
ATOM      4  C   UNL     1       1.397  -1.639  -0.719  0.00  0.00    +0.182 C 
ATOM      5  C   UNL     1       2.562  -2.004  -1.614  0.00  0.00    +0.153 C 
ATOM      6  O   UNL     1       3.507  -0.936  -1.649  0.00  0.00    -0.343 OA
ATOM      7  C   UNL     1       4.069  -0.597  -0.402  0.00  0.00    +0.285 C 
ATOM      8  C   UNL     1       3.009  -0.216   0.643  0.00  0.00    +0.209 C 
ATOM      9  C   UNL     1       1.855  -1.221   0.688  0.00  0.00    +0.187 C 
ATOM     10  O   UNL     1       0.696  -0.484   1.164  0.00  0.00    -0.341 OA
ATOM     11  O   UNL     1       3.745  -0.384   1.885  0.00  0.00    -0.338 OA
ATOM     12  C   UNL     1       4.801  -1.319   1.620  0.00  0.00    +0.168 C 
ATOM     13  O   UNL     1       4.735  -1.700   0.237  0.00  0.00    -0.318 OA
ATOM     14  C   UNL     1       4.622  -2.560   2.496  0.00  0.00    +0.074 C 
ATOM     15  C   UNL     1       6.152  -0.668   1.925  0.00  0.00    +0.074 C 
ATOM     16  C   UNL     1      -1.432  -0.538   0.003  0.00  0.00    +0.074 C 
ENDROOT
BRANCH   5  17
ATOM     17  C   UNL     1       2.050  -2.271  -3.030  0.00  0.00    +0.036 C 
BRANCH  17  18
ATOM     18  C   UNL     1       3.204  -2.760  -3.907  0.00  0.00    +0.030 C 
BRANCH  18  19
ATOM     19  C   UNL     1       2.692  -3.027  -5.324  0.00  0.00    +0.156 C 
BRANCH  19  20
ATOM     20  O   UNL     1       3.770  -3.484  -6.142  0.00  0.00    -0.395 OA
ATOM     21  H   UNL     1       3.517  -3.673  -7.056  0.00  0.00    +0.209 HD
ENDBRANCH  19  20
ENDBRANCH  18  19
ENDBRANCH  17  18
ENDBRANCH   5  17
TORSDOF 4
