REMARK  Name = ZINC41070039
REMARK  6 active torsions:
REMARK  status: ('A' for Active; 'I' for Inactive)
REMARK    1  A    between atoms: C_1  and  C_2
REMARK    2  A    between atoms: C_2  and  C_3
REMARK    3  A    between atoms: N_9  and  S_10
REMARK    4  A    between atoms: S_10  and  C_13
REMARK    5  A    between atoms: C_18  and  N_19
REMARK    6  A    between atoms: N_19  and  N_20
REMARK                            x       y       z     vdW  Elec       q    Type
REMARK                         _______ _______ _______ _____ _____    ______ ____
ROOT
ATOM      1  C   UNL     1       2.283   0.275  -1.481  0.00  0.00    +0.147 A 
ATOM      2  C   UNL     1       1.296   0.734  -2.335  0.00  0.00    +0.048 A 
ATOM      3  C   UNL     1       1.075   0.048  -3.522  0.00  0.00    +0.038 A 
ATOM      4  C   UNL     1       1.841  -1.065  -3.813  0.00  0.00    +0.128 A 
ATOM      5  N   UNL     1       2.775  -1.480  -2.978  0.00  0.00    -0.236 NA
ATOM      6  C   UNL     1       3.020  -0.848  -1.840  0.00  0.00    +0.159 A 
ATOM      7 BR   UNL     1      -0.260   0.630  -4.728  0.00  0.00    -0.049 Br
ENDROOT
BRANCH   1   8
ATOM      8  S   UNL     1       2.606   1.107   0.039  0.00  0.00    +0.064 S 
ATOM      9  O   UNL     1       1.703   2.202   0.103  0.00  0.00    -0.153 OA
ATOM     10  O   UNL     1       4.015   1.275   0.118  0.00  0.00    -0.153 OA
BRANCH   8  16
ATOM     11  C   UNL     1       0.772  -0.229   1.533  0.00  0.00    +0.080 C 
ATOM     12  C   UNL     1       0.580  -1.749   1.528  0.00  0.00    +0.021 C 
ATOM     13  C   UNL     1       1.560  -2.386   2.516  0.00  0.00    +0.003 C 
ATOM     14  C   UNL     1       2.995  -2.079   2.084  0.00  0.00    +0.017 C 
ATOM     15  C   UNL     1       3.215  -0.563   2.095  0.00  0.00    +0.110 C 
ATOM     16  N   UNL     1       2.184   0.073   1.262  0.00  0.00    -0.173 NA
BRANCH  11  18
ATOM     17  C   UNL     1      -1.574   0.085   0.734  0.00  0.00    +0.005 C 
ATOM     18  C   UNL     1      -0.105   0.402   0.450  0.00  0.00    +0.017 C 
ENDBRANCH  11  18
ENDBRANCH   8  16
ENDBRANCH   1   8
BRANCH   6  19
ATOM     19  N   UNL     1       4.018  -1.317  -0.993  0.00  0.00    -0.266 N 
ATOM     20  H   UNL     1       4.150  -0.906  -0.124  0.00  0.00    +0.167 HD
BRANCH  19  21
ATOM     21  N   UNL     1       4.814  -2.356  -1.385  0.00  0.00    -0.255 NA
ATOM     22  H   UNL     1       5.437  -2.634  -0.642  0.00  0.00    +0.140 HD
ATOM     23  H   UNL     1       4.260  -3.136  -1.703  0.00  0.00    +0.140 HD
ENDBRANCH  19  21
ENDBRANCH   6  19
TORSDOF 5
