REMARK  Name = ZINC39666995
REMARK  11 active torsions:
REMARK  status: ('A' for Active; 'I' for Inactive)
REMARK    1  A    between atoms: C_1  and  C_2
REMARK    2  A    between atoms: C_5  and  C_9
REMARK    3  A    between atoms: C_6  and  C_8
REMARK    4  A    between atoms: C_9  and  C_10
REMARK    5  A    between atoms: C_10  and  N_11
REMARK    6  A    between atoms: C_12  and  C_14
REMARK    7  A    between atoms: C_25  and  C_27
REMARK    8  A    between atoms: C_30  and  O_35
REMARK    9  A    between atoms: C_32  and  O_33
REMARK   10  A    between atoms: O_33  and  C_34
REMARK   11  A    between atoms: O_35  and  C_36
REMARK                            x       y       z     vdW  Elec       q    Type
REMARK                         _______ _______ _______ _____ _____    ______ ____
ROOT
ATOM      1  C   UNL     1      -2.480  -8.462   0.192  0.00  0.00    +0.100 C 
ATOM      2  C   UNL     1      -2.064  -8.988  -1.200  0.00  0.00    +0.121 C 
ATOM      3  N   UNL     1      -2.893 -10.199  -1.406  0.00  0.00    -0.296 N 
ATOM      4  C   UNL     1      -4.218  -9.837  -0.849  0.00  0.00    +0.115 C 
ATOM      5  C   UNL     1      -3.895  -9.021   0.418  0.00  0.00    -0.004 C 
ATOM      6  C   UNL     1      -4.895  -7.879   0.579  0.00  0.00    -0.010 C 
ATOM      7  C   UNL     1      -6.284  -8.459   0.861  0.00  0.00    -0.082 C 
ATOM      8  N   UNL     1      -6.238  -9.272   2.082  0.00  0.00    +0.379 N 
ATOM      9  C   UNL     1      -5.345 -10.420   1.886  0.00  0.00    -0.082 C 
ATOM     10  C   UNL     1      -3.917  -9.923   1.648  0.00  0.00    -0.010 C 
ATOM     11  C   UNL     1      -2.525 -11.365  -1.972  0.00  0.00    +0.250 C 
ATOM     12  O   UNL     1      -1.366 -11.546  -2.295  0.00  0.00    -0.270 OA
ATOM     13  H   UNL     1      -5.897  -8.708   2.847  0.00  0.00    -0.086 HD
ATOM     14  H   UNL     1      -7.167  -9.602   2.299  0.00  0.00    -0.086 HD
ENDROOT
BRANCH  11  15
ATOM     15  C   UNL     1      -3.526 -12.422  -2.198  0.00  0.00    +0.079 A 
ATOM     16  C   UNL     1      -4.838 -12.084  -2.542  0.00  0.00    +0.020 A 
ATOM     17  C   UNL     1      -5.770 -13.073  -2.753  0.00  0.00    +0.046 A 
ATOM     18  C   UNL     1      -5.412 -14.412  -2.626  0.00  0.00    +0.124 A 
ATOM     19  C   UNL     1      -4.113 -14.759  -2.284  0.00  0.00    +0.092 A 
ATOM     20  C   UNL     1      -3.165 -13.772  -2.075  0.00  0.00    +0.136 A 
BRANCH  20  21
ATOM     21  O   UNL     1      -1.893 -14.110  -1.747  0.00  0.00    -0.494 OA
ATOM     22  C   UNL     1      -1.598 -15.504  -1.639  0.00  0.00    +0.277 C 
ENDBRANCH  20  21
BRANCH  18  23
ATOM     23  O   UNL     1      -6.337 -15.382  -2.835  0.00  0.00    -0.495 OA
ATOM     24  C   UNL     1      -7.656 -14.956  -3.183  0.00  0.00    +0.277 C 
ENDBRANCH  18  23
ENDBRANCH  11  15
BRANCH   1  26
ATOM     25  N   UNL     1      -2.428  -6.284   1.365  0.00  0.00    -0.315 N 
ATOM     26  C   UNL     1      -2.504  -6.955   0.198  0.00  0.00    +0.218 C 
ATOM     27  O   UNL     1      -2.592  -6.346  -0.847  0.00  0.00    -0.275 OA
ATOM     28  H   UNL     1      -2.358  -6.771   2.200  0.00  0.00    +0.149 HD
BRANCH  25  29
ATOM     29  C   UNL     1      -2.451  -4.819   1.370  0.00  0.00    +0.109 C 
BRANCH  29  30
ATOM     30  C   UNL     1      -2.353  -4.314   2.811  0.00  0.00    +0.054 C 
BRANCH  30  35
ATOM     31  C   UNL     1      -2.444   1.464   2.830  0.00  0.00    +0.044 C 
ATOM     32  C   UNL     1      -2.420  -0.042   2.825  0.00  0.00    -0.050 A 
ATOM     33  C   UNL     1      -1.212  -0.715   2.839  0.00  0.00    +0.003 A 
ATOM     34  C   UNL     1      -1.190  -2.097   2.835  0.00  0.00    +0.004 A 
ATOM     35  C   UNL     1      -2.376  -2.807   2.817  0.00  0.00    -0.043 A 
ATOM     36  C   UNL     1      -3.584  -2.135   2.803  0.00  0.00    -0.047 A 
ATOM     37  C   UNL     1      -3.606  -0.752   2.812  0.00  0.00    +0.007 A 
ATOM     38  C   UNL     1      -4.877  -2.909   2.783  0.00  0.00    +0.044 C 
ENDBRANCH  30  35
ENDBRANCH  29  30
ENDBRANCH  25  29
ENDBRANCH   1  26
TORSDOF 7
