REMARK  Name = ZINC00752398
REMARK  4 active torsions:
REMARK  status: ('A' for Active; 'I' for Inactive)
REMARK    1  A    between atoms: C_4  and  C_7
REMARK    2  A    between atoms: C_12  and  C_20
REMARK    3  A    between atoms: C_14  and  C_18
REMARK    4  A    between atoms: C_15  and  N_17
REMARK                            x       y       z     vdW  Elec       q    Type
REMARK                         _______ _______ _______ _____ _____    ______ ____
ROOT
ATOM      1  C   UNL     1      -0.759   1.596  -1.230  0.00  0.00    +0.034 C 
ATOM      2  C   UNL     1      -2.212   1.122  -1.149  0.00  0.00    +0.083 C 
ATOM      3  C   UNL     1      -2.846   1.644   0.119  0.00  0.00    +0.115 C 
ATOM      4  C   UNL     1      -2.108   1.839   1.227  0.00  0.00    +0.046 C 
ATOM      5  C   UNL     1      -2.744   2.358   2.493  0.00  0.00    +0.101 C 
ATOM      6  C   UNL     1      -4.066   3.002   2.180  0.00  0.00    +0.098 C 
ATOM      7  C   UNL     1      -4.696   2.740   1.009  0.00  0.00    +0.198 C 
ATOM      8  O   UNL     1      -4.168   1.902   0.103  0.00  0.00    -0.445 OA
ATOM      9  C   UNL     1      -0.722   1.573   1.242  0.00  0.00    +0.164 C 
ATOM     10  O   UNL     1      -0.090   1.741   2.266  0.00  0.00    -0.292 OA
ATOM     11  C   UNL     1      -0.013   1.086   0.008  0.00  0.00    +0.088 C 
ENDROOT
BRANCH   5  12
ATOM     12  C   UNL     1      -2.961   1.211   3.446  0.00  0.00    -0.034 A 
ATOM     13  C   UNL     1      -3.777   0.155   3.084  0.00  0.00    +0.004 A 
ATOM     14  C   UNL     1      -3.971  -0.900   3.955  0.00  0.00    +0.001 A 
ATOM     15  C   UNL     1      -3.359  -0.894   5.195  0.00  0.00    +0.015 A 
ATOM     16  C   UNL     1      -2.547   0.164   5.560  0.00  0.00    +0.018 A 
ATOM     17  C   UNL     1      -2.349   1.217   4.685  0.00  0.00    +0.020 A 
ATOM     18 BR   UNL     1      -1.710   0.172   7.256  0.00  0.00    -0.050 Br
ENDBRANCH   5  12
BRANCH   1  22
ATOM     19  C   UNL     1       1.070   0.026  -4.756  0.00  0.00    +0.000 A 
ATOM     20  C   UNL     1       1.002   1.393  -4.563  0.00  0.00    +0.000 A 
ATOM     21  C   UNL     1       0.410   1.901  -3.422  0.00  0.00    +0.004 A 
ATOM     22  C   UNL     1      -0.114   1.042  -2.474  0.00  0.00    -0.043 A 
ATOM     23  C   UNL     1      -0.042  -0.325  -2.665  0.00  0.00    +0.004 A 
ATOM     24  C   UNL     1       0.546  -0.833  -3.808  0.00  0.00    +0.000 A 
ENDBRANCH   1  22
BRANCH   7  25
ATOM     25  N   UNL     1      -5.899   3.345   0.744  0.00  0.00    -0.328 N 
ATOM     26  H   UNL     1      -6.359   3.165  -0.092  0.00  0.00    +0.145 HD
ATOM     27  H   UNL     1      -6.290   3.952   1.391  0.00  0.00    +0.145 HD
ENDBRANCH   7  25
BRANCH   6  28
ATOM     28  C   UNL     1      -4.663   3.897   3.125  0.00  0.00    +0.101 C 
ATOM     29  N   UNL     1      -5.136   4.608   3.874  0.00  0.00    -0.191 NA
ENDBRANCH   6  28
TORSDOF 4
