REMARK  Name = ZINC39684607
REMARK  13 active torsions:
REMARK  status: ('A' for Active; 'I' for Inactive)
REMARK    1  A    between atoms: C_1  and  C_2
REMARK    2  A    between atoms: C_4  and  C_11
REMARK    3  A    between atoms: N_5  and  C_7
REMARK    4  A    between atoms: C_7  and  C_8
REMARK    5  A    between atoms: C_7  and  C_9
REMARK    6  A    between atoms: C_7  and  C_10
REMARK    7  A    between atoms: C_15  and  C_24
REMARK    8  A    between atoms: N_26  and  C_27
REMARK    9  A    between atoms: C_27  and  C_29
REMARK   10  A    between atoms: C_27  and  C_30
REMARK   11  A    between atoms: C_30  and  C_31
REMARK   12  A    between atoms: C_30  and  C_32
REMARK   13  A    between atoms: C_30  and  C_33
REMARK                            x       y       z     vdW  Elec       q    Type
REMARK                         _______ _______ _______ _____ _____    ______ ____
ROOT
ATOM      1  C   UNL     1      -0.654  -4.126  -1.226  0.00  0.00    +0.265 C 
ATOM      2  O   UNL     1      -0.919  -3.986  -2.405  0.00  0.00    -0.268 OA
ATOM      3  N   UNL     1      -0.802  -5.331  -0.641  0.00  0.00    -0.295 N 
ATOM      4  C   UNL     1      -0.660  -5.667   0.795  0.00  0.00    +0.121 C 
ATOM      5  C   UNL     1      -1.790  -6.683   1.072  0.00  0.00    +0.100 C 
ATOM      6  C   UNL     1      -2.102  -7.307  -0.299  0.00  0.00    -0.004 C 
ATOM      7  C   UNL     1      -1.150  -6.619  -1.288  0.00  0.00    +0.115 C 
ATOM      8  C   UNL     1      -1.838  -8.809  -0.268  0.00  0.00    -0.010 C 
ATOM      9  C   UNL     1      -2.211  -9.416  -1.624  0.00  0.00    -0.082 C 
ATOM     10  N   UNL     1      -3.627  -9.153  -1.908  0.00  0.00    +0.379 N 
ATOM     11  C   UNL     1      -3.853  -7.707  -2.027  0.00  0.00    -0.082 C 
ATOM     12  C   UNL     1      -3.550  -7.028  -0.689  0.00  0.00    -0.010 C 
ATOM     13  H   UNL     1      -3.885  -9.605  -2.772  0.00  0.00    -0.086 HD
ATOM     14  H   UNL     1      -4.192  -9.519  -1.157  0.00  0.00    -0.086 HD
ENDROOT
BRANCH   1  18
ATOM     15  C   UNL     1       1.217  -1.185   2.458  0.00  0.00    +0.067 C 
ATOM     16  C   UNL     1       0.643  -1.684   1.156  0.00  0.00    +0.061 A 
ATOM     17  C   UNL     1       0.316  -3.008   0.856  0.00  0.00    +0.057 A 
ATOM     18  C   UNL     1      -0.171  -2.980  -0.440  0.00  0.00    +0.124 A 
ATOM     19  N   UNL     1      -0.112  -1.676  -0.842  0.00  0.00    -0.254 N 
ATOM     20  N   UNL     1       0.359  -0.953   0.109  0.00  0.00    -0.175 NA
BRANCH  19  21
ATOM     21  C   UNL     1      -0.529  -1.178  -2.155  0.00  0.00    +0.056 C 
ATOM     22  C   UNL     1      -1.978  -1.593  -2.421  0.00  0.00    +0.036 C 
ATOM     23  C   UNL     1      -0.424   0.348  -2.178  0.00  0.00    +0.036 C 
ATOM     24  C   UNL     1       0.377  -1.768  -3.236  0.00  0.00    +0.036 C 
ENDBRANCH  19  21
ENDBRANCH   1  18
BRANCH   5  25
ATOM     25  C   UNL     1      -1.320  -7.740   2.038  0.00  0.00    +0.218 C 
ATOM     26  O   UNL     1      -0.141  -8.017   2.107  0.00  0.00    -0.275 OA
ATOM     27  N   UNL     1      -2.209  -8.379   2.824  0.00  0.00    -0.312 N 
ATOM     28  H   UNL     1      -3.159  -8.213   2.715  0.00  0.00    +0.149 HD
BRANCH  27  29
ATOM     29  C   UNL     1      -1.742  -9.323   3.842  0.00  0.00    +0.075 C 
ATOM     30  C   UNL     1      -1.383  -8.560   5.118  0.00  0.00    +0.028 C 
BRANCH  29  31
ATOM     31  C   UNL     1      -2.850 -10.334   4.146  0.00  0.00    -0.020 C 
ATOM     32  C   UNL     1      -3.209 -11.097   2.869  0.00  0.00    +0.012 C 
ATOM     33  C   UNL     1      -2.362 -11.320   5.209  0.00  0.00    +0.012 C 
ATOM     34  C   UNL     1      -4.086  -9.596   4.664  0.00  0.00    +0.012 C 
ENDBRANCH  29  31
ENDBRANCH  27  29
ENDBRANCH   5  25
TORSDOF 5
