REMARK  Name = ZINC65076363
REMARK  6 active torsions:
REMARK  status: ('A' for Active; 'I' for Inactive)
REMARK    1  A    between atoms: C_1  and  C_2
REMARK    2  A    between atoms: C_12  and  C_14
REMARK    3  A    between atoms: N_20  and  C_22
REMARK    4  A    between atoms: C_22  and  C_23
REMARK    5  A    between atoms: N_25  and  C_26
REMARK    6  A    between atoms: C_26  and  C_27
REMARK                            x       y       z     vdW  Elec       q    Type
REMARK                         _______ _______ _______ _____ _____    ______ ____
ROOT
ATOM      1  C   UNL     1       2.515  -0.746   2.840  0.00  0.00    +0.182 C 
ATOM      2  C   UNL     1       2.514  -2.253   2.859  0.00  0.00    +0.007 C 
ATOM      3  C   UNL     1       3.391  -2.886   3.643  0.00  0.00    +0.066 C 
ATOM      4  C   UNL     1       4.316  -2.061   4.445  0.00  0.00    +0.253 C 
ATOM      5  O   UNL     1       4.901  -2.536   5.399  0.00  0.00    -0.269 OA
ATOM      6  N   UNL     1       4.501  -0.770   4.101  0.00  0.00    -0.224 N 
ATOM      7  N   UNL     1       3.883  -0.246   3.007  0.00  0.00    -0.221 NA
ATOM      8  H   UNL     1       4.429  -0.400   2.172  0.00  0.00    +0.146 HD
ENDROOT
BRANCH   1  19
ATOM      9  C   UNL     1       0.294   1.814   0.001  0.00  0.00    +0.029 C 
ATOM     10  C   UNL     1      -0.026   0.324   0.136  0.00  0.00    +0.083 C 
ATOM     11  C   UNL     1      -1.532   0.122   0.375  0.00  0.00    +0.059 C 
ATOM     12  C   UNL     1      -1.615  -0.555   1.725  0.00  0.00    -0.024 A 
ATOM     13  C   UNL     1      -2.705  -0.981   2.459  0.00  0.00    +0.005 A 
ATOM     14  C   UNL     1      -2.521  -1.584   3.689  0.00  0.00    +0.000 A 
ATOM     15  C   UNL     1      -1.242  -1.760   4.184  0.00  0.00    +0.002 A 
ATOM     16  C   UNL     1      -0.151  -1.337   3.455  0.00  0.00    +0.024 A 
ATOM     17  C   UNL     1      -0.329  -0.727   2.212  0.00  0.00    +0.040 A 
ATOM     18  N   UNL     1       0.631  -0.232   1.321  0.00  0.00    -0.266 N 
ATOM     19  C   UNL     1       1.964  -0.262   1.523  0.00  0.00    +0.242 C 
ATOM     20  O   UNL     1       2.718   0.101   0.646  0.00  0.00    -0.273 OA
ENDBRANCH   1  19
BRANCH   6  21
ATOM     21  C   UNL     1       5.379   0.077   4.912  0.00  0.00    +0.222 C 
BRANCH  21  22
ATOM     22  C   UNL     1       4.599   0.644   6.071  0.00  0.00    +0.232 C 
ATOM     23  O   UNL     1       3.426   0.368   6.205  0.00  0.00    -0.274 OA
ATOM     24  N   UNL     1       5.206   1.457   6.957  0.00  0.00    -0.310 N 
ATOM     25  H   UNL     1       6.144   1.678   6.850  0.00  0.00    +0.149 HD
BRANCH  24  26
ATOM     26  C   UNL     1       4.448   2.009   8.083  0.00  0.00    +0.151 C 
BRANCH  26  27
ATOM     27  C   UNL     1       5.364   2.893   8.931  0.00  0.00    +0.191 C 
ATOM     28  N   UNL     1       5.950   3.954   8.102  0.00  0.00    -0.362 N 
ATOM     29  C   UNL     1       7.242   3.803   8.130  0.00  0.00    +0.060 A 
ATOM     30  C   UNL     1       8.348   4.543   7.507  0.00  0.00    +0.027 A 
ATOM     31  C   UNL     1       9.618   4.146   7.721  0.00  0.00    +0.002 A 
ATOM     32  C   UNL     1       9.941   3.039   8.526  0.00  0.00    +0.002 A 
ATOM     33  C   UNL     1       9.004   2.292   9.143  0.00  0.00    +0.027 A 
ATOM     34  C   UNL     1       7.584   2.632   8.983  0.00  0.00    +0.060 A 
ATOM     35  N   UNL     1       6.489   2.103   9.448  0.00  0.00    -0.362 N 
ATOM     36  H   UNL     1       5.462   4.640   7.620  0.00  0.00    +0.162 HD
ATOM     37  H   UNL     1       6.428   1.329  10.030  0.00  0.00    +0.162 HD
ENDBRANCH  26  27
ENDBRANCH  24  26
ENDBRANCH  21  22
ENDBRANCH   6  21
TORSDOF 5
