REMARK  Name = ZINC51358045
REMARK  3 active torsions:
REMARK  status: ('A' for Active; 'I' for Inactive)
REMARK    1  A    between atoms: C_3  and  C_9
REMARK    2  A    between atoms: C_4  and  O_8
REMARK    3  A    between atoms: C_15  and  C_17
REMARK                            x       y       z     vdW  Elec       q    Type
REMARK                         _______ _______ _______ _____ _____    ______ ____
ROOT
ATOM      1  C   UNL     1       3.652   2.171  -0.022  0.00  0.00    +0.250 C 
ATOM      2  O   UNL     1       4.712   1.576  -0.009  0.00  0.00    -0.270 OA
ATOM      3  N   UNL     1       3.634   3.515  -0.116  0.00  0.00    -0.296 N 
ATOM      4  C   UNL     1       2.427   4.362  -0.107  0.00  0.00    +0.108 C 
ATOM      5  C   UNL     1       2.848   5.661  -0.838  0.00  0.00    +0.021 C 
ATOM      6  C   UNL     1       4.309   5.835  -0.347  0.00  0.00    +0.022 C 
ATOM      7  C   UNL     1       4.816   4.381  -0.240  0.00  0.00    +0.062 C 
ENDROOT
BRANCH   1  10
ATOM      8  C   UNL     1       0.139   1.222   0.895  0.00  0.00    +0.016 A 
ATOM      9  C   UNL     1       1.320   1.926   0.817  0.00  0.00    +0.018 A 
ATOM     10  C   UNL     1       2.385   1.421   0.066  0.00  0.00    +0.078 A 
ATOM     11  C   UNL     1       2.242   0.198  -0.603  0.00  0.00    +0.130 A 
ATOM     12  C   UNL     1       1.046  -0.498  -0.514  0.00  0.00    +0.061 A 
ATOM     13  C   UNL     1       0.001   0.012   0.232  0.00  0.00    +0.021 A 
ATOM     14 BR   UNL     1      -1.626  -0.944   0.348  0.00  0.00    -0.050 Br
BRANCH  11  15
ATOM     15  O   UNL     1       3.268  -0.302  -1.336  0.00  0.00    -0.506 OA
ATOM     16  H   UNL     1       3.867  -0.873  -0.835  0.00  0.00    +0.292 HD
ENDBRANCH  11  15
ENDBRANCH   1  10
BRANCH   7  17
ATOM     17  C   UNL     1       5.706   4.226   0.995  0.00  0.00    -0.051 C 
ATOM     18  C   UNL     1       6.265   2.784   1.079  0.00  0.00    -0.016 C 
ATOM     19  C   UNL     1       7.547   2.995   1.928  0.00  0.00    -0.021 C 
ATOM     20  C   UNL     1       8.054   4.374   1.457  0.00  0.00    -0.082 C 
ATOM     21  N   UNL     1       6.899   5.091   0.881  0.00  0.00    +0.382 N 
ATOM     22  H   UNL     1       7.078   5.297  -0.091  0.00  0.00    -0.085 HD
ATOM     23  H   UNL     1       6.745   5.951   1.385  0.00  0.00    -0.085 HD
ENDBRANCH   7  17
TORSDOF 3
