REMARK  Name = ZINC22053345
REMARK  7 active torsions:
REMARK  status: ('A' for Active; 'I' for Inactive)
REMARK    1  A    between atoms: C_1  and  C_2
REMARK    2  A    between atoms: C_2  and  C_4
REMARK    3  A    between atoms: C_2  and  N_20
REMARK    4  A    between atoms: C_12  and  N_14
REMARK    5  A    between atoms: N_23  and  S_26
REMARK    6  A    between atoms: S_26  and  C_29
REMARK    7  A    between atoms: C_32  and  N_35
REMARK                            x       y       z     vdW  Elec       q    Type
REMARK                         _______ _______ _______ _____ _____    ______ ____
ROOT
ATOM      1  N   UNL     1      -3.054   4.230  -4.254  0.00  0.00    +0.388 N 
ATOM      2  C   UNL     1      -4.342   4.935  -4.231  0.00  0.00    -0.060 C 
ATOM      3  C   UNL     1      -4.637   5.408  -2.803  0.00  0.00    +0.091 C 
ATOM      4  N   UNL     1      -4.544   4.251  -1.899  0.00  0.00    -0.180 NA
ATOM      5  C   UNL     1      -3.334   3.417  -1.958  0.00  0.00    +0.091 C 
ATOM      6  C   UNL     1      -3.093   3.019  -3.423  0.00  0.00    -0.060 C 
ATOM      7  H   UNL     1      -2.296   4.904  -3.827  0.00  0.00    -0.081 HD
ENDROOT
BRANCH   4   8
ATOM      8  S   UNL     1      -5.767   3.901  -0.839  0.00  0.00    +0.061 S 
ATOM      9  O   UNL     1      -6.468   5.116  -0.612  0.00  0.00    -0.153 OA
ATOM     10  O   UNL     1      -5.185   3.148   0.217  0.00  0.00    -0.153 OA
BRANCH   8  11
ATOM     11  C   UNL     1      -6.884   2.822  -1.671  0.00  0.00    +0.106 A 
ATOM     12  C   UNL     1      -7.936   3.346  -2.399  0.00  0.00    +0.030 A 
ATOM     13  C   UNL     1      -8.817   2.502  -3.048  0.00  0.00    +0.030 A 
ATOM     14  C   UNL     1      -8.639   1.127  -2.976  0.00  0.00    +0.065 A 
ATOM     15  C   UNL     1      -7.579   0.604  -2.248  0.00  0.00    +0.030 A 
ATOM     16  C   UNL     1      -6.705   1.452  -1.597  0.00  0.00    +0.030 A 
BRANCH  14  17
ATOM     17  N   UNL     1      -9.527   0.269  -3.639  0.00  0.00    -0.240 N 
ATOM     18  C   UNL     1      -9.466  -1.082  -3.655  0.00  0.00    +0.114 A 
ATOM     19  C   UNL     1     -10.502  -1.533  -4.400  0.00  0.00    +0.041 A 
ATOM     20  C   UNL     1     -11.216  -0.421  -4.861  0.00  0.00    +0.135 A 
ATOM     21  N   UNL     1     -10.633   0.658  -4.406  0.00  0.00    -0.175 NA
ENDBRANCH  14  17
ENDBRANCH   8  11
ENDBRANCH   4   8
BRANCH   1  23
ATOM     22  C   UNL     1      -1.329   3.143  -5.612  0.00  0.00    -0.005 C 
ATOM     23  C   UNL     1      -2.653   3.911  -5.631  0.00  0.00    -0.004 C 
BRANCH  23  24
ATOM     24  C   UNL     1      -2.481   5.188  -6.413  0.00  0.00    +0.096 A 
ATOM     25  N   UNL     1      -1.812   6.174  -5.863  0.00  0.00    -0.344 N 
ATOM     26  C   UNL     1      -1.636   7.327  -6.524  0.00  0.00    +0.051 A 
ATOM     27  C   UNL     1      -0.926   8.401  -5.968  0.00  0.00    +0.026 A 
ATOM     28  C   UNL     1      -0.777   9.551  -6.684  0.00  0.00    +0.002 A 
ATOM     29  C   UNL     1      -1.318   9.678  -7.960  0.00  0.00    +0.001 A 
ATOM     30  C   UNL     1      -2.014   8.653  -8.531  0.00  0.00    +0.013 A 
ATOM     31  C   UNL     1      -2.186   7.458  -7.823  0.00  0.00    +0.038 A 
ATOM     32  C   UNL     1      -2.898   6.359  -8.362  0.00  0.00    +0.132 A 
ATOM     33  N   UNL     1      -3.008   5.262  -7.624  0.00  0.00    -0.220 NA
ATOM     34  H   UNL     1      -1.391   6.057  -4.854  0.00  0.00    +0.167 HD
BRANCH  32  35
ATOM     35  N   UNL     1      -3.456   6.426  -9.620  0.00  0.00    -0.315 N 
ATOM     36  C   UNL     1      -4.923   6.407  -9.547  0.00  0.00    +0.106 C 
ATOM     37  C   UNL     1      -5.507   6.628 -10.944  0.00  0.00    +0.019 C 
ATOM     38  C   UNL     1      -5.010   5.523 -11.881  0.00  0.00    +0.003 C 
ATOM     39  C   UNL     1      -3.479   5.533 -11.901  0.00  0.00    +0.019 C 
ATOM     40  C   UNL     1      -2.954   5.344 -10.477  0.00  0.00    +0.106 C 
ENDBRANCH  32  35
ENDBRANCH  23  24
ENDBRANCH   1  23
TORSDOF 6
