REMARK  Name = ZINC36205391
REMARK  19 active torsions:
REMARK  status: ('A' for Active; 'I' for Inactive)
REMARK    1  A    between atoms: C_1  and  C_2
REMARK    2  A    between atoms: C_5  and  C_9
REMARK    3  A    between atoms: C_7  and  C_8
REMARK    4  A    between atoms: C_18  and  C_20
REMARK    5  A    between atoms: C_20  and  N_21
REMARK    6  A    between atoms: N_21  and  C_22
REMARK    7  A    between atoms: N_21  and  C_27
REMARK    8  A    between atoms: C_22  and  C_23
REMARK    9  A    between atoms: C_23  and  C_24
REMARK   10  A    between atoms: C_24  and  O_25
REMARK   11  A    between atoms: O_25  and  C_26
REMARK   12  A    between atoms: C_27  and  C_28
REMARK   13  A    between atoms: C_28  and  C_30
REMARK   14  A    between atoms: C_28  and  O_36
REMARK   15  A    between atoms: C_30  and  O_31
REMARK   16  A    between atoms: O_31  and  C_32
REMARK   17  A    between atoms: C_32  and  C_33
REMARK   18  A    between atoms: C_33  and  C_34
REMARK   19  A    between atoms: C_33  and  C_35
REMARK                            x       y       z     vdW  Elec       q    Type
REMARK                         _______ _______ _______ _____ _____    ______ ____
ROOT
ATOM      1  C   UNL     1      -1.850  -5.543   2.486  0.00  0.00    +0.004 A 
ATOM      2  C   UNL     1      -1.044  -6.391   3.168  0.00  0.00    +0.056 A 
ATOM      3  S   UNL     1      -1.037  -7.858   2.156  0.00  0.00    -0.076 S 
ATOM      4  C   UNL     1      -2.106  -7.305   0.853  0.00  0.00    +0.116 A 
ATOM      5  C   UNL     1      -2.449  -5.997   1.236  0.00  0.00    +0.080 A 
ATOM      6  C   UNL     1      -3.327  -5.301   0.346  0.00  0.00    +0.260 A 
ATOM      7  O   UNL     1      -3.677  -4.159   0.591  0.00  0.00    -0.267 OA
ATOM      8  N   UNL     1      -3.760  -5.925  -0.764  0.00  0.00    -0.312 N 
ATOM      9  H   UNL     1      -4.356  -5.458  -1.371  0.00  0.00    +0.170 HD
ATOM     10  C   UNL     1      -3.380  -7.196  -1.052  0.00  0.00    +0.094 A 
ATOM     11  N   UNL     1      -2.571  -7.854  -0.266  0.00  0.00    -0.229 NA
ENDROOT
BRANCH   1  16
ATOM     12  C   UNL     1      -2.915  -0.252   4.493  0.00  0.00    +0.044 C 
ATOM     13  C   UNL     1      -2.636  -1.637   3.968  0.00  0.00    -0.048 A 
ATOM     14  C   UNL     1      -2.236  -1.808   2.655  0.00  0.00    +0.004 A 
ATOM     15  C   UNL     1      -1.979  -3.073   2.168  0.00  0.00    +0.009 A 
ATOM     16  C   UNL     1      -2.124  -4.181   3.003  0.00  0.00    -0.016 A 
ATOM     17  C   UNL     1      -2.528  -4.002   4.325  0.00  0.00    +0.012 A 
ATOM     18  C   UNL     1      -2.777  -2.731   4.802  0.00  0.00    -0.047 A 
ATOM     19  C   UNL     1      -3.207  -2.536   6.233  0.00  0.00    +0.044 C 
ENDBRANCH   1  16
BRANCH  10  20
ATOM     20  C   UNL     1      -3.890  -7.855  -2.308  0.00  0.00    -0.003 C 
BRANCH  20  21
ATOM     21  N   UNL     1      -3.225  -9.153  -2.485  0.00  0.00    +0.386 N 
ATOM     22  H   UNL     1      -3.326  -9.700  -1.643  0.00  0.00    -0.081 HD
BRANCH  21  23
ATOM     23  C   UNL     1      -1.799  -8.939  -2.762  0.00  0.00    -0.076 C 
BRANCH  23  24
ATOM     24  C   UNL     1      -1.644  -8.188  -4.086  0.00  0.00    +0.009 C 
BRANCH  24  25
ATOM     25  C   UNL     1      -0.158  -8.050  -4.423  0.00  0.00    +0.157 C 
BRANCH  25  26
ATOM     26  O   UNL     1      -0.013  -7.348  -5.660  0.00  0.00    -0.383 OA
ATOM     27  C   UNL     1       1.344  -7.164  -6.068  0.00  0.00    +0.193 C 
ENDBRANCH  25  26
ENDBRANCH  24  25
ENDBRANCH  23  24
ENDBRANCH  21  23
BRANCH  21  28
ATOM     28  C   UNL     1      -3.841  -9.870  -3.610  0.00  0.00    -0.044 C 
BRANCH  28  29
ATOM     29  C   UNL     1      -3.266 -11.285  -3.689  0.00  0.00    +0.124 C 
BRANCH  29  30
ATOM     30  O   UNL     1      -1.887 -11.219  -4.059  0.00  0.00    -0.391 OA
ATOM     31  H   UNL     1      -1.729 -10.799  -4.916  0.00  0.00    +0.210 HD
ENDBRANCH  29  30
BRANCH  29  32
ATOM     32  C   UNL     1      -4.037 -12.091  -4.737  0.00  0.00    +0.189 C 
BRANCH  32  33
ATOM     33  O   UNL     1      -3.578 -13.444  -4.729  0.00  0.00    -0.377 OA
BRANCH  33  34
ATOM     34  C   UNL     1      -4.237 -14.287  -5.676  0.00  0.00    +0.163 C 
BRANCH  34  35
ATOM     35  C   UNL     1      -3.670 -15.704  -5.580  0.00  0.00    +0.009 C 
ATOM     36  C   UNL     1      -4.005 -16.296  -4.210  0.00  0.00    +0.009 C 
ATOM     37  C   UNL     1      -4.285 -16.576  -6.676  0.00  0.00    +0.009 C 
ENDBRANCH  34  35
ENDBRANCH  33  34
ENDBRANCH  32  33
ENDBRANCH  29  32
ENDBRANCH  28  29
ENDBRANCH  21  28
ENDBRANCH  20  21
ENDBRANCH  10  20
TORSDOF 14
