REMARK  Name = ZINC12348299
REMARK  7 active torsions:
REMARK  status: ('A' for Active; 'I' for Inactive)
REMARK    1  A    between atoms: C_1  and  C_2
REMARK    2  A    between atoms: C_2  and  N_3
REMARK    3  A    between atoms: N_3  and  C_4
REMARK    4  A    between atoms: N_3  and  C_6
REMARK    5  A    between atoms: C_4  and  C_5
REMARK    6  A    between atoms: C_9  and  C_12
REMARK    7  A    between atoms: N_18  and  C_21
REMARK                            x       y       z     vdW  Elec       q    Type
REMARK                         _______ _______ _______ _____ _____    ______ ____
ROOT
ATOM      1  C   UNL     1       1.646  -6.127   0.636  0.00  0.00    +0.092 C 
ATOM      2  C   UNL     1       2.490  -6.370  -0.583  0.00  0.00    +0.070 A 
ATOM      3  C   UNL     1       3.817  -6.710  -0.504  0.00  0.00    +0.125 A 
ATOM      4  N   UNL     1       4.294  -6.856  -1.770  0.00  0.00    -0.277 N 
ATOM      5  H   UNL     1       5.203  -7.092  -2.014  0.00  0.00    +0.189 HD
ATOM      6  N   UNL     1       3.238  -6.605  -2.660  0.00  0.00    -0.218 N 
ATOM      7  C   UNL     1       2.139  -6.309  -1.932  0.00  0.00    +0.278 A 
ATOM      8  O   UNL     1       1.036  -6.038  -2.376  0.00  0.00    -0.265 OA
ATOM      9  N   UNL     1       4.449  -6.854   0.708  0.00  0.00    -0.303 N 
ATOM     10  C   UNL     1       3.683  -6.949   1.846  0.00  0.00    +0.017 C 
ATOM     11  C   UNL     1       2.373  -6.632   1.864  0.00  0.00    +0.024 C 
ATOM     12  C   UNL     1       1.613  -6.761   3.043  0.00  0.00    +0.162 C 
ATOM     13  O   UNL     1       0.437  -6.455   3.028  0.00  0.00    -0.292 OA
ATOM     14  C   UNL     1       2.223  -7.269   4.319  0.00  0.00    +0.080 C 
ATOM     15  C   UNL     1       3.391  -8.199   3.975  0.00  0.00    +0.014 C 
ATOM     16  C   UNL     1       4.379  -7.426   3.101  0.00  0.00    +0.051 C 
ATOM     17  H   UNL     1       5.417  -6.887   0.759  0.00  0.00    +0.153 HD
ENDROOT
BRANCH   1  21
ATOM     18  C   UNL     1       0.908  -1.939   1.045  0.00  0.00    +0.013 A 
ATOM     19  C   UNL     1      -0.150  -2.816   0.897  0.00  0.00    +0.022 A 
ATOM     20  C   UNL     1       0.088  -4.171   0.765  0.00  0.00    +0.006 A 
ATOM     21  C   UNL     1       1.385  -4.649   0.779  0.00  0.00    -0.035 A 
ATOM     22  C   UNL     1       2.444  -3.772   0.926  0.00  0.00    +0.006 A 
ATOM     23  C   UNL     1       2.205  -2.416   1.054  0.00  0.00    +0.022 A 
BRANCH  18  24
ATOM     24  N   UNL     1       0.667  -0.568   1.179  0.00  0.00    -0.394 NA
ATOM     25  H   UNL     1       1.544  -0.080   1.271  0.00  0.00    +0.126 HD
BRANCH  24  27
ATOM     26  C   UNL     1       0.868  -0.191  -1.233  0.00  0.00    +0.022 C 
ATOM     27  C   UNL     1      -0.044  -0.078  -0.010  0.00  0.00    +0.081 C 
ENDBRANCH  24  27
BRANCH  24  28
ATOM     28  C   UNL     1      -0.154  -0.330   2.373  0.00  0.00    +0.081 C 
ATOM     29  C   UNL     1       0.637  -0.723   3.623  0.00  0.00    +0.022 C 
ENDBRANCH  24  28
ENDBRANCH  18  24
ENDBRANCH   1  21
BRANCH   6  30
ATOM     30  C   UNL     1       3.311  -6.651  -4.056  0.00  0.00    +0.067 A 
ATOM     31  C   UNL     1       2.186  -6.373  -4.822  0.00  0.00    +0.028 A 
ATOM     32  C   UNL     1       2.262  -6.420  -6.200  0.00  0.00    +0.002 A 
ATOM     33  C   UNL     1       3.456  -6.743  -6.818  0.00  0.00    +0.000 A 
ATOM     34  C   UNL     1       4.578  -7.021  -6.058  0.00  0.00    +0.002 A 
ATOM     35  C   UNL     1       4.511  -6.970  -4.680  0.00  0.00    +0.028 A 
ENDBRANCH   6  30
TORSDOF 5
