REMARK  Name = ZINC04121430
REMARK  4 active torsions:
REMARK  status: ('A' for Active; 'I' for Inactive)
REMARK    1  A    between atoms: C_1  and  C_2
REMARK    2  A    between atoms: C_7  and  C_8
REMARK    3  A    between atoms: N_12  and  N_13
REMARK    4  A    between atoms: C_14  and  C_16
REMARK                            x       y       z     vdW  Elec       q    Type
REMARK                         _______ _______ _______ _____ _____    ______ ____
ROOT
ATOM      1  N   UNL     1       0.105  -6.525   2.881  0.00  0.00    -0.228 N 
ATOM      2  C   UNL     1       0.123  -7.450   3.861  0.00  0.00    +0.296 C 
ATOM      3  O   UNL     1       0.124  -7.101   5.025  0.00  0.00    -0.265 OA
ATOM      4  H   UNL     1       0.104  -6.804   1.951  0.00  0.00    +0.173 HD
ENDROOT
BRANCH   1  16
ATOM      5  C   UNL     1      -0.018   1.503   0.010  0.00  0.00    +0.044 C 
ATOM      6  C   UNL     1       0.002  -0.004   0.002  0.00  0.00    -0.045 A 
ATOM      7  C   UNL     1       0.005  -0.675  -1.212  0.00  0.00    +0.005 A 
ATOM      8  C   UNL     1       0.024  -2.058  -1.221  0.00  0.00    +0.017 A 
ATOM      9  C   UNL     1       0.039  -2.743  -0.032  0.00  0.00    +0.041 A 
ATOM     10  C   UNL     1       0.036  -2.094   1.223  0.00  0.00    +0.083 A 
ATOM     11  C   UNL     1       0.023  -0.680   1.194  0.00  0.00    -0.021 A 
ATOM     12  C   UNL     1       0.024   0.091   2.489  0.00  0.00    +0.046 C 
ATOM     13  N   UNL     1       0.052  -2.906   2.303  0.00  0.00    -0.223 NA
ATOM     14  C   UNL     1       0.070  -4.215   2.200  0.00  0.00    +0.176 A 
ATOM     15  S   UNL     1       0.065  -4.459   0.429  0.00  0.00    -0.051 S 
ATOM     16  N   UNL     1       0.088  -5.162   3.204  0.00  0.00    -0.242 N 
ATOM     17  H   UNL     1       0.089  -4.884   4.133  0.00  0.00    +0.172 HD
ENDBRANCH   1  16
BRANCH   2  18
ATOM     18  C   UNL     1       0.141  -8.892   3.519  0.00  0.00    +0.195 A 
ATOM     19  C   UNL     1       0.153  -9.798   4.527  0.00  0.00    +0.103 A 
ATOM     20  C   UNL     1       0.188 -11.229   4.178  0.00  0.00    +0.193 A 
ATOM     21  O   UNL     1      -0.024 -12.100   5.003  0.00  0.00    -0.287 OA
ATOM     22  C   UNL     1       0.494 -11.544   2.769  0.00  0.00    +0.064 A 
ATOM     23  C   UNL     1       0.807 -12.840   2.363  0.00  0.00    +0.015 A 
ATOM     24  C   UNL     1       1.090 -13.086   1.047  0.00  0.00    +0.001 A 
ATOM     25  C   UNL     1       1.068 -12.054   0.120  0.00  0.00    +0.004 A 
ATOM     26  C   UNL     1       0.758 -10.767   0.503  0.00  0.00    +0.047 A 
ATOM     27  C   UNL     1       0.463 -10.493   1.835  0.00  0.00    +0.139 A 
ATOM     28  O   UNL     1       0.139  -9.245   2.227  0.00  0.00    -0.450 OA
ENDBRANCH   2  18
TORSDOF 2
