REMARK  Name = ZINC33014922
REMARK  10 active torsions:
REMARK  status: ('A' for Active; 'I' for Inactive)
REMARK    1  A    between atoms: C_1  and  C_2
REMARK    2  A    between atoms: C_5  and  N_9
REMARK    3  A    between atoms: C_7  and  C_8
REMARK    4  A    between atoms: C_19  and  N_20
REMARK    5  A    between atoms: N_20  and  C_21
REMARK    6  A    between atoms: C_22  and  C_34
REMARK    7  A    between atoms: C_26  and  C_32
REMARK    8  A    between atoms: C_26  and  C_33
REMARK    9  A    between atoms: C_28  and  C_30
REMARK   10  A    between atoms: C_28  and  C_31
REMARK                            x       y       z     vdW  Elec       q    Type
REMARK                         _______ _______ _______ _____ _____    ______ ____
ROOT
ATOM      1  N   UNL     1       1.893  -2.662  -0.659  0.00  0.00    -0.202 N 
ATOM      2  C   UNL     1       1.196  -1.699  -1.283  0.00  0.00    +0.258 C 
ATOM      3  O   UNL     1       0.318  -2.008  -2.067  0.00  0.00    -0.269 OA
ATOM      4  C   UNL     1       1.474  -0.279  -1.034  0.00  0.00    +0.046 A 
ATOM      5  C   UNL     1       0.753   0.727  -1.679  0.00  0.00    +0.014 A 
ATOM      6  C   UNL     1       1.044   2.049  -1.418  0.00  0.00    +0.001 A 
ATOM      7  C   UNL     1       2.046   2.390  -0.522  0.00  0.00    +0.001 A 
ATOM      8  C   UNL     1       2.771   1.411   0.126  0.00  0.00    +0.009 A 
ATOM      9  C   UNL     1       2.492   0.073  -0.123  0.00  0.00    +0.000 A 
ATOM     10  C   UNL     1       3.238  -1.015   0.544  0.00  0.00    +0.059 C 
ATOM     11  C   UNL     1       4.243  -0.738   1.443  0.00  0.00    +0.086 C 
ATOM     12  C   UNL     1       2.874  -2.399   0.219  0.00  0.00    +0.259 C 
ATOM     13  O   UNL     1       3.469  -3.319   0.751  0.00  0.00    -0.269 OA
ENDROOT
BRANCH   1  18
ATOM     14  C   UNL     1       0.636  -8.081  -1.783  0.00  0.00    +0.044 C 
ATOM     15  C   UNL     1       0.970  -6.642  -1.484  0.00  0.00    -0.047 A 
ATOM     16  C   UNL     1       0.410  -6.017  -0.385  0.00  0.00    +0.005 A 
ATOM     17  C   UNL     1       0.714  -4.699  -0.108  0.00  0.00    +0.024 A 
ATOM     18  C   UNL     1       1.583  -4.000  -0.936  0.00  0.00    +0.045 A 
ATOM     19  C   UNL     1       2.139  -4.628  -2.042  0.00  0.00    +0.027 A 
ATOM     20  C   UNL     1       1.835  -5.949  -2.310  0.00  0.00    -0.046 A 
ATOM     21  C   UNL     1       2.443  -6.633  -3.507  0.00  0.00    +0.044 C 
ENDBRANCH   1  18
BRANCH  11  22
ATOM     22  N   UNL     1       4.817  -1.746   2.155  0.00  0.00    -0.313 N 
ATOM     23  H   UNL     1       4.506  -2.787   1.981  0.00  0.00    +0.152 HD
BRANCH  22  24
ATOM     24  C   UNL     1       5.791  -1.461   3.097  0.00  0.00    +0.087 A 
ATOM     25  C   UNL     1       6.492  -2.339   3.919  0.00  0.00    +0.083 A 
ATOM     26  C   UNL     1       7.478  -1.778   4.818  0.00  0.00    -0.021 A 
ATOM     27  C   UNL     1       7.614  -0.431   4.800  0.00  0.00    -0.015 A 
ATOM     28  S   UNL     1       6.465   0.121   3.570  0.00  0.00    -0.078 S 
ATOM     29  C   UNL     1       8.535   0.389   5.643  0.00  0.00    -0.041 C 
ATOM     30  N   UNL     1       9.416  -0.451   6.447  0.00  0.00    +0.389 N 
ATOM     31  C   UNL     1       9.653  -1.812   5.998  0.00  0.00    -0.069 C 
ATOM     32  C   UNL     1       8.351  -2.586   5.770  0.00  0.00    +0.024 C 
ATOM     33  C   UNL     1      10.457  -2.553   7.085  0.00  0.00    -0.010 C 
ATOM     34  C   UNL     1      10.483  -1.833   4.710  0.00  0.00    -0.010 C 
ATOM     35  C   UNL     1       7.681   1.260   6.584  0.00  0.00    -0.005 C 
ATOM     36  C   UNL     1       9.353   1.327   4.745  0.00  0.00    -0.005 C 
ATOM     37  H   UNL     1      10.413   0.011   6.502  0.00  0.00    -0.084 HD
ATOM     38  H   UNL     1       9.002  -0.551   7.461  0.00  0.00    -0.084 HD
BRANCH  25  39
ATOM     39  C   UNL     1       6.236  -3.748   3.867  0.00  0.00    +0.102 C 
ATOM     40  N   UNL     1       6.034  -4.865   3.826  0.00  0.00    -0.191 NA
ENDBRANCH  25  39
ENDBRANCH  22  24
ENDBRANCH  11  22
TORSDOF 4
