REMARK  Name = ZINC03077642
REMARK  6 active torsions:
REMARK  status: ('A' for Active; 'I' for Inactive)
REMARK    1  A    between atoms: C_1  and  C_2
REMARK    2  A    between atoms: C_6  and  N_20
REMARK    3  A    between atoms: C_7  and  C_11
REMARK    4  A    between atoms: C_11  and  C_13
REMARK    5  A    between atoms: C_22  and  C_25
REMARK    6  A    between atoms: C_22  and  C_26
REMARK                            x       y       z     vdW  Elec       q    Type
REMARK                         _______ _______ _______ _____ _____    ______ ____
ROOT
ATOM      1  C   UNL     1      -3.752   0.441  -3.338  0.00  0.00    +0.066 C 
ATOM      2  C   UNL     1      -2.278   0.161  -3.477  0.00  0.00    +0.048 A 
ATOM      3  C   UNL     1      -1.520  -0.062  -2.334  0.00  0.00    +0.003 A 
ATOM      4  C   UNL     1      -0.173  -0.320  -2.463  0.00  0.00    -0.023 A 
ATOM      5  C   UNL     1       0.376  -0.341  -3.748  0.00  0.00    +0.065 A 
ATOM      6  C   UNL     1       1.723  -0.569  -4.282  0.00  0.00    +0.084 A 
ATOM      7  C   UNL     1       1.603  -0.453  -5.656  0.00  0.00    +0.199 A 
ATOM      8  O   UNL     1       0.316  -0.181  -5.968  0.00  0.00    -0.432 OA
ATOM      9  C   UNL     1      -0.450  -0.105  -4.862  0.00  0.00    +0.230 A 
ATOM     10  N   UNL     1      -1.741   0.135  -4.678  0.00  0.00    -0.217 NA
ATOM     11  C   UNL     1       0.702  -0.580  -1.263  0.00  0.00    +0.070 C 
ATOM     12  C   UNL     1      -0.014  -0.105   0.004  0.00  0.00    +0.068 C 
ATOM     13  O   UNL     1      -1.349  -0.624  -0.002  0.00  0.00    -0.369 OA
ATOM     14  C   UNL     1      -2.185  -0.015  -0.986  0.00  0.00    +0.197 C 
ATOM     15  C   UNL     1      -0.057   1.424   0.027  0.00  0.00    +0.041 C 
ATOM     16  C   UNL     1       0.731  -0.617   1.238  0.00  0.00    +0.041 C 
ENDROOT
BRANCH   6  17
ATOM     17  N   UNL     1       2.873  -0.841  -3.563  0.00  0.00    -0.354 N 
ATOM     18  H   UNL     1       2.837  -0.899  -2.595  0.00  0.00    +0.142 HD
ATOM     19  H   UNL     1       3.714  -0.975  -4.026  0.00  0.00    +0.142 HD
ENDBRANCH   6  17
BRANCH   7  20
ATOM     20  C   UNL     1       2.658  -0.597  -6.584  0.00  0.00    +0.230 C 
ATOM     21  O   UNL     1       3.802  -0.744  -6.189  0.00  0.00    -0.283 OA
BRANCH  20  22
ATOM     22  C   UNL     1       2.375  -0.568  -8.036  0.00  0.00    +0.026 A 
ATOM     23  C   UNL     1       1.089  -0.278  -8.493  0.00  0.00    +0.013 A 
ATOM     24  C   UNL     1       0.832  -0.246  -9.848  0.00  0.00    +0.021 A 
ATOM     25  C   UNL     1       1.845  -0.514 -10.754  0.00  0.00    +0.041 A 
ATOM     26  C   UNL     1       3.123  -0.808 -10.306  0.00  0.00    +0.021 A 
ATOM     27  C   UNL     1       3.392  -0.837  -8.954  0.00  0.00    +0.013 A 
ATOM     28 CL   UNL     1       1.513  -0.479 -12.457  0.00  0.00    -0.084 Cl
ENDBRANCH  20  22
ENDBRANCH   7  20
TORSDOF 3
