REMARK  Name = ZINC55893435
REMARK  6 active torsions:
REMARK  status: ('A' for Active; 'I' for Inactive)
REMARK    1  A    between atoms: C_1  and  C_2
REMARK    2  A    between atoms: C_15  and  C_17
REMARK    3  A    between atoms: C_17  and  N_18
REMARK    4  A    between atoms: N_18  and  C_19
REMARK    5  A    between atoms: C_22  and  O_26
REMARK    6  A    between atoms: O_26  and  C_27
REMARK                            x       y       z     vdW  Elec       q    Type
REMARK                         _______ _______ _______ _____ _____    ______ ____
ROOT
ATOM      1  C   UNL     1      -0.019   1.526   0.010  0.00  0.00    +0.029 C 
ATOM      2  C   UNL     1       0.002  -0.004   0.002  0.00  0.00    +0.087 C 
ATOM      3  C   UNL     1       0.715  -0.496  -1.259  0.00  0.00    +0.118 C 
ATOM      4  C   UNL     1       1.097  -1.944  -1.106  0.00  0.00    +0.219 C 
ATOM      5  O   UNL     1       0.459  -2.800  -1.683  0.00  0.00    -0.275 OA
ATOM      6  N   UNL     1       2.146  -2.297  -0.332  0.00  0.00    -0.284 N 
ATOM      7  C   UNL     1       2.832  -1.333   0.416  0.00  0.00    +0.055 A 
ATOM      8  C   UNL     1       4.214  -1.255   0.377  0.00  0.00    +0.025 A 
ATOM      9  C   UNL     1       4.871  -0.309   1.143  0.00  0.00    +0.002 A 
ATOM     10  C   UNL     1       4.154   0.557   1.947  0.00  0.00    +0.002 A 
ATOM     11  C   UNL     1       2.773   0.492   1.984  0.00  0.00    +0.025 A 
ATOM     12  C   UNL     1       2.107  -0.445   1.211  0.00  0.00    +0.058 A 
ATOM     13  N   UNL     1       0.707  -0.488   1.190  0.00  0.00    -0.265 N 
ATOM     14  C   UNL     1       0.022  -0.966   2.248  0.00  0.00    +0.237 C 
ATOM     15  O   UNL     1      -1.190  -0.998   2.221  0.00  0.00    -0.274 OA
ATOM     16  H   UNL     1       2.425  -3.225  -0.293  0.00  0.00    +0.155 HD
ENDROOT
BRANCH  14  17
ATOM     17  C   UNL     1       0.762  -1.460   3.464  0.00  0.00    +0.198 C 
BRANCH  17  18
ATOM     18  N   UNL     1      -0.201  -1.924   4.466  0.00  0.00    -0.335 N 
ATOM     19  H   UNL     1      -1.152  -1.879   4.282  0.00  0.00    +0.147 HD
BRANCH  18  20
ATOM     20  C   UNL     1       0.252  -2.431   5.689  0.00  0.00    +0.033 A 
ATOM     21  C   UNL     1       1.613  -2.490   5.955  0.00  0.00    +0.065 A 
ATOM     22  C   UNL     1       2.061  -2.991   7.165  0.00  0.00    +0.169 A 
ATOM     23  C   UNL     1       1.149  -3.436   8.112  0.00  0.00    +0.190 A 
ATOM     24  C   UNL     1      -0.212  -3.378   7.846  0.00  0.00    +0.169 A 
ATOM     25  C   UNL     1      -0.660  -2.871   6.639  0.00  0.00    +0.065 A 
ATOM     26  F   UNL     1      -1.100  -3.811   8.768  0.00  0.00    -0.201 F 
ATOM     27  F   UNL     1       3.386  -3.048   7.424  0.00  0.00    -0.201 F 
BRANCH  23  28
ATOM     28  O   UNL     1       1.589  -3.930   9.301  0.00  0.00    -0.490 OA
ATOM     29  C   UNL     1       1.751  -2.997  10.371  0.00  0.00    +0.277 C 
ENDBRANCH  23  28
ENDBRANCH  18  20
ENDBRANCH  17  18
ENDBRANCH  14  17
TORSDOF 4
