REMARK  Name = ZINC48610388
REMARK  7 active torsions:
REMARK  status: ('A' for Active; 'I' for Inactive)
REMARK    1  A    between atoms: C_1  and  C_2
REMARK    2  A    between atoms: C_2  and  C_3
REMARK    3  A    between atoms: C_2  and  C_4
REMARK    4  A    between atoms: C_4  and  C_20
REMARK    5  A    between atoms: N_7  and  C_11
REMARK    6  A    between atoms: C_11  and  C_12
REMARK    7  A    between atoms: C_17  and  C_18
REMARK                            x       y       z     vdW  Elec       q    Type
REMARK                         _______ _______ _______ _____ _____    ______ ____
ROOT
ATOM      1  C   UNL     1       0.718  -0.497  -1.257  0.00  0.00    +0.112 C 
ATOM      2  C   UNL     1       0.660  -2.010  -1.345  0.00  0.00    +0.247 C 
ATOM      3  O   UNL     1       1.121  -2.808  -0.558  0.00  0.00    -0.273 OA
ATOM      4  N   UNL     1      -0.012  -2.282  -2.482  0.00  0.00    -0.220 N 
ATOM      5  C   UNL     1      -0.382  -1.164  -3.116  0.00  0.00    +0.310 C 
ATOM      6  O   UNL     1      -1.000  -1.155  -4.163  0.00  0.00    -0.252 OA
ATOM      7  N   UNL     1       0.006  -0.052  -2.467  0.00  0.00    -0.285 N 
ATOM      8  C   UNL     1       2.168  -0.009  -1.276  0.00  0.00    +0.042 C 
ATOM      9  H   UNL     1      -0.153   0.865  -2.741  0.00  0.00    +0.151 HD
ENDROOT
BRANCH   1  11
ATOM     10  C   UNL     1      -0.019   1.526   0.010  0.00  0.00    +0.010 C 
ATOM     11  C   UNL     1       0.002  -0.004   0.002  0.00  0.00    +0.015 C 
ATOM     12  C   UNL     1      -1.433  -0.534   0.013  0.00  0.00    +0.010 C 
ENDBRANCH   1  11
BRANCH   4  13
ATOM     13  C   UNL     1      -0.300  -3.636  -2.962  0.00  0.00    +0.154 C 
BRANCH  13  14
ATOM     14  C   UNL     1      -1.623  -4.096  -2.405  0.00  0.00    -0.012 A 
ATOM     15  C   UNL     1      -1.657  -4.933  -1.309  0.00  0.00    +0.006 A 
ATOM     16  C   UNL     1      -2.870  -5.356  -0.796  0.00  0.00    +0.000 A 
ATOM     17  C   UNL     1      -4.056  -4.944  -1.377  0.00  0.00    +0.001 A 
ATOM     18  C   UNL     1      -4.036  -4.108  -2.474  0.00  0.00    +0.019 A 
ATOM     19  C   UNL     1      -2.816  -3.671  -2.993  0.00  0.00    +0.056 A 
BRANCH  19  20
ATOM     20  C   UNL     1      -2.788  -2.797  -4.127  0.00  0.00    +0.099 C 
ATOM     21  N   UNL     1      -2.765  -2.104  -5.027  0.00  0.00    -0.191 NA
ENDBRANCH  19  20
ENDBRANCH  13  14
ENDBRANCH   4  13
TORSDOF 4
