REMARK  Name = ZINC39691843
REMARK  7 active torsions:
REMARK  status: ('A' for Active; 'I' for Inactive)
REMARK    1  A    between atoms: C_1  and  C_2
REMARK    2  A    between atoms: C_8  and  C_16
REMARK    3  A    between atoms: C_12  and  C_13
REMARK    4  A    between atoms: C_16  and  S_17
REMARK    5  A    between atoms: S_17  and  C_18
REMARK    6  A    between atoms: C_24  and  C_27
REMARK    7  A    between atoms: N_35  and  C_36
REMARK                            x       y       z     vdW  Elec       q    Type
REMARK                         _______ _______ _______ _____ _____    ______ ____
ROOT
ATOM      1  S   UNL     1       0.052  -5.036  -3.985  0.00  0.00    -0.083 S 
ENDROOT
BRANCH   1   2
ATOM      2  C   UNL     1       0.057  -5.993  -5.464  0.00  0.00    +0.159 C 
ATOM      3  N   UNL     1       0.048  -5.391  -6.610  0.00  0.00    -0.247 NA
ATOM      4  C   UNL     1       0.067  -6.107  -7.881  0.00  0.00    +0.185 C 
ATOM      5  C   UNL     1       0.831  -7.448  -7.718  0.00  0.00    +0.141 C 
ATOM      6  C   UNL     1       2.307  -7.207  -7.769  0.00  0.00    -0.019 C 
ATOM      7  C   UNL     1       2.760  -6.109  -8.393  0.00  0.00    +0.047 C 
ATOM      8  S   UNL     1       1.265  -5.245  -8.995  0.00  0.00    -0.105 S 
ATOM      9  C   UNL     1       0.436  -8.108  -6.431  0.00  0.00    +0.231 C 
ATOM     10  O   UNL     1       0.483  -9.316  -6.335  0.00  0.00    -0.274 OA
ATOM     11  N   UNL     1       0.077  -7.371  -5.379  0.00  0.00    -0.253 N 
ATOM     12  C   UNL     1      -0.345  -8.037  -4.144  0.00  0.00    +0.140 C 
BRANCH   6  13
ATOM     13  C   UNL     1       3.246  -8.158  -7.146  0.00  0.00    -0.021 A 
ATOM     14  C   UNL     1       3.363  -9.458  -7.644  0.00  0.00    +0.008 A 
ATOM     15  C   UNL     1       4.243 -10.342  -7.056  0.00  0.00    +0.001 A 
ATOM     16  C   UNL     1       5.009  -9.944  -5.974  0.00  0.00    +0.000 A 
ATOM     17  C   UNL     1       4.898  -8.658  -5.475  0.00  0.00    +0.001 A 
ATOM     18  C   UNL     1       4.027  -7.761  -6.057  0.00  0.00    +0.008 A 
ENDBRANCH   6  13
ENDBRANCH   1   2
BRANCH   1  19
ATOM     19  C   UNL     1       0.025  -3.320  -4.573  0.00  0.00    +0.151 C 
BRANCH  19  27
ATOM     20  C   UNL     1      -0.018   1.503   0.010  0.00  0.00    +0.046 C 
ATOM     21  C   UNL     1       0.002  -0.004   0.002  0.00  0.00    -0.015 A 
ATOM     22  C   UNL     1       0.005  -0.700  -1.207  0.00  0.00    +0.076 A 
ATOM     23  C   UNL     1      -0.009  -0.168  -2.590  0.00  0.00    +0.260 A 
ATOM     24  O   UNL     1      -0.026   1.032  -2.798  0.00  0.00    -0.267 OA
ATOM     25  N   UNL     1      -0.002  -1.047  -3.611  0.00  0.00    -0.310 N 
ATOM     26  H   UNL     1      -0.010  -0.716  -4.523  0.00  0.00    +0.170 HD
ATOM     27  C   UNL     1       0.018  -2.385  -3.391  0.00  0.00    +0.121 A 
ATOM     28  N   UNL     1       0.031  -2.886  -2.186  0.00  0.00    -0.226 NA
ATOM     29  C   UNL     1       0.026  -2.110  -1.109  0.00  0.00    +0.116 A 
ATOM     30  S   UNL     1       0.038  -2.402   0.641  0.00  0.00    -0.062 S 
ATOM     31  C   UNL     1       0.023  -0.703   1.188  0.00  0.00    +0.106 A 
BRANCH  31  32
ATOM     32  C   UNL     1       0.029  -0.199   2.513  0.00  0.00    +0.393 C 
ATOM     33  O   UNL     1       0.015   1.010   2.709  0.00  0.00    -0.240 OA
ATOM     34  O   UNL     1       0.050  -0.973   3.463  0.00  0.00    -0.240 OA
ENDBRANCH  31  32
ENDBRANCH  19  27
ENDBRANCH   1  19
TORSDOF 5
