REMARK  Name = ZINC65487230
REMARK  5 active torsions:
REMARK  status: ('A' for Active; 'I' for Inactive)
REMARK    1  A    between atoms: C_1  and  C_2
REMARK    2  A    between atoms: C_4  and  C_8
REMARK    3  A    between atoms: C_5  and  C_7
REMARK    4  A    between atoms: C_8  and  C_9
REMARK    5  A    between atoms: C_8  and  N_10
REMARK                            x       y       z     vdW  Elec       q    Type
REMARK                         _______ _______ _______ _____ _____    ______ ____
ROOT
ATOM      1  N   UNL     1      -2.754  -3.100  -0.581  0.00  0.00    -0.293 N 
ATOM      2  C   UNL     1      -3.473  -4.086  -1.154  0.00  0.00    +0.303 C 
ATOM      3  O   UNL     1      -2.993  -5.197  -1.274  0.00  0.00    -0.253 OA
ATOM      4  N   UNL     1      -4.723  -3.841  -1.593  0.00  0.00    -0.285 N 
ATOM      5  C   UNL     1      -5.562  -4.931  -2.109  0.00  0.00    +0.114 C 
ATOM      6  C   UNL     1      -6.061  -4.551  -3.507  0.00  0.00    +0.084 C 
ATOM      7  C   UNL     1      -6.759  -3.191  -3.443  0.00  0.00    +0.173 C 
ATOM      8  C   UNL     1      -5.774  -2.121  -2.969  0.00  0.00    +0.084 C 
ATOM      9  C   UNL     1      -5.275  -2.480  -1.560  0.00  0.00    +0.114 C 
ATOM     10  O   UNL     1      -7.256  -2.845  -4.741  0.00  0.00    -0.346 OA
ATOM     11  C   UNL     1      -8.685  -2.687  -4.625  0.00  0.00    +0.191 C 
ATOM     12  C   UNL     1      -8.886  -2.421  -3.112  0.00  0.00    +0.191 C 
ATOM     13  O   UNL     1      -7.864  -3.263  -2.526  0.00  0.00    -0.346 OA
ATOM     14  H   UNL     1      -3.107  -2.197  -0.551  0.00  0.00    +0.151 HD
ENDROOT
BRANCH   1  15
ATOM     15  C   UNL     1      -1.439  -3.392  -0.005  0.00  0.00    +0.105 C 
ATOM     16  C   UNL     1      -1.611  -3.899   1.428  0.00  0.00    +0.033 C 
BRANCH  15  20
ATOM     17  C   UNL     1      -0.027   1.503   0.034  0.00  0.00    +0.086 C 
ATOM     18  C   UNL     1      -0.004  -0.004   0.019  0.00  0.00    +0.103 A 
ATOM     19  C   UNL     1      -1.083  -0.807   0.017  0.00  0.00    +0.050 A 
ATOM     20  C   UNL     1      -0.605  -2.137   0.002  0.00  0.00    +0.013 A 
ATOM     21  C   UNL     1       0.739  -2.067  -0.003  0.00  0.00    +0.107 A 
ATOM     22  O   UNL     1       1.097  -0.773   0.002  0.00  0.00    -0.465 OA
ATOM     23  C   UNL     1       1.682  -3.242  -0.016  0.00  0.00    +0.086 C 
ENDBRANCH  15  20
ENDBRANCH   1  15
TORSDOF 2
