REMARK  Name = ZINC02652235
REMARK  7 active torsions:
REMARK  status: ('A' for Active; 'I' for Inactive)
REMARK    1  A    between atoms: C_4  and  C_7
REMARK    2  A    between atoms: C_8  and  C_17
REMARK    3  A    between atoms: N_18  and  N_19
REMARK    4  A    between atoms: C_20  and  C_22
REMARK    5  A    between atoms: C_25  and  N_28
REMARK    6  A    between atoms: N_28  and  S_29
REMARK    7  A    between atoms: S_29  and  C_32
REMARK                            x       y       z     vdW  Elec       q    Type
REMARK                         _______ _______ _______ _____ _____    ______ ____
ROOT
ATOM      1  N   UNL     1       2.869   4.122  -0.205  0.00  0.00    -0.203 N 
ATOM      2  C   UNL     1       1.656   3.539  -0.135  0.00  0.00    +0.263 C 
ATOM      3  O   UNL     1       0.652   4.225  -0.097  0.00  0.00    -0.268 OA
ATOM      4  H   UNL     1       3.669   3.575  -0.236  0.00  0.00    +0.178 HD
ENDROOT
BRANCH   2   5
ATOM      5  C   UNL     1       1.546   2.068  -0.104  0.00  0.00    +0.038 A 
ATOM      6  C   UNL     1       0.288   1.462  -0.031  0.00  0.00    +0.015 A 
ATOM      7  C   UNL     1       0.189   0.089  -0.003  0.00  0.00    +0.025 A 
ATOM      8  C   UNL     1       1.339  -0.694  -0.047  0.00  0.00    +0.048 A 
ATOM      9  C   UNL     1       2.592  -0.093  -0.120  0.00  0.00    +0.025 A 
ATOM     10  C   UNL     1       2.698   1.278  -0.148  0.00  0.00    +0.015 A 
BRANCH   8  11
ATOM     11  N   UNL     1       1.235  -2.081  -0.018  0.00  0.00    -0.216 N 
ATOM     12  H   UNL     1       1.454  -2.567   0.792  0.00  0.00    +0.174 HD
BRANCH  11  13
ATOM     13  S   UNL     1       0.737  -2.902  -1.367  0.00  0.00    +0.079 S 
ATOM     14  O   UNL     1       0.778  -4.285  -1.040  0.00  0.00    -0.149 OA
ATOM     15  O   UNL     1      -0.448  -2.261  -1.819  0.00  0.00    -0.149 OA
BRANCH  13  16
ATOM     16  C   UNL     1       1.956  -2.644  -2.614  0.00  0.00    +0.146 A 
ATOM     17  C   UNL     1       3.016  -3.421  -2.944  0.00  0.00    +0.036 A 
ATOM     18  C   UNL     1       3.850  -3.016  -3.970  0.00  0.00    +0.010 A 
ATOM     19  C   UNL     1       3.583  -1.854  -4.614  0.00  0.00    +0.047 A 
ATOM     20  S   UNL     1       2.110  -1.296  -3.773  0.00  0.00    -0.077 S 
ENDBRANCH  13  16
ENDBRANCH  11  13
ENDBRANCH   8  11
ENDBRANCH   2   5
BRANCH   1  22
ATOM     21  C   UNL     1       4.144   6.082  -0.302  0.00  0.00    +0.141 C 
ATOM     22  N   UNL     1       2.973   5.519  -0.234  0.00  0.00    -0.187 NA
BRANCH  21  24
ATOM     23  C   UNL     1       5.420   8.290  -0.404  0.00  0.00    +0.056 A 
ATOM     24  C   UNL     1       4.253   7.546  -0.333  0.00  0.00    +0.028 A 
ATOM     25  C   UNL     1       3.145   8.515  -0.301  0.00  0.00    +0.009 A 
ATOM     26  C   UNL     1       1.758   8.388  -0.226  0.00  0.00    +0.010 A 
ATOM     27  C   UNL     1       0.970   9.517  -0.207  0.00  0.00    +0.001 A 
ATOM     28  C   UNL     1       1.550  10.777  -0.258  0.00  0.00    +0.002 A 
ATOM     29  C   UNL     1       2.918  10.918  -0.327  0.00  0.00    +0.026 A 
ATOM     30  C   UNL     1       3.734   9.790  -0.347  0.00  0.00    +0.048 A 
ATOM     31  N   UNL     1       5.101   9.624  -0.411  0.00  0.00    -0.354 N 
ATOM     32  H   UNL     1       5.746  10.348  -0.456  0.00  0.00    +0.166 HD
BRANCH  23  36
ATOM     33  C   UNL     1       9.350   6.694  -0.571  0.00  0.00    +0.000 A 
ATOM     34  C   UNL     1       8.988   7.725  -1.421  0.00  0.00    +0.001 A 
ATOM     35  C   UNL     1       7.713   8.248  -1.372  0.00  0.00    +0.010 A 
ATOM     36  C   UNL     1       6.786   7.735  -0.462  0.00  0.00    -0.001 A 
ATOM     37  C   UNL     1       7.160   6.699   0.398  0.00  0.00    +0.010 A 
ATOM     38  C   UNL     1       8.436   6.181   0.334  0.00  0.00    +0.001 A 
ENDBRANCH  23  36
ENDBRANCH  21  24
ENDBRANCH   1  22
TORSDOF 7
