REMARK  Name = ZINC20275728
REMARK  6 active torsions:
REMARK  status: ('A' for Active; 'I' for Inactive)
REMARK    1  A    between atoms: C_1  and  C_2
REMARK    2  A    between atoms: C_5  and  O_29
REMARK    3  A    between atoms: C_17  and  C_28
REMARK    4  A    between atoms: C_22  and  C_23
REMARK    5  A    between atoms: C_22  and  O_27
REMARK    6  A    between atoms: C_23  and  N_24
REMARK                            x       y       z     vdW  Elec       q    Type
REMARK                         _______ _______ _______ _____ _____    ______ ____
ROOT
ATOM      1  C   UNL     1       1.576  -0.550   1.510  0.00  0.00    +0.016 C 
ATOM      2  C   UNL     1       1.318   0.752   2.270  0.00  0.00    -0.008 C 
ATOM      3  C   UNL     1      -0.193   0.954   2.370  0.00  0.00    +0.014 C 
ATOM      4  C   UNL     1      -0.700   1.736   1.159  0.00  0.00    +0.032 C 
ATOM      5  C   UNL     1       0.099   1.387  -0.095  0.00  0.00    +0.119 C 
ATOM      6  C   UNL     1       1.512   1.978   0.016  0.00  0.00    +0.062 C 
ATOM      7  C   UNL     1       1.916   1.885   1.478  0.00  0.00    -0.065 C 
ATOM      8  C   UNL     1       2.724   2.763   1.980  0.00  0.00    -0.027 C 
ATOM      9  C   UNL     1       3.143   2.789   3.419  0.00  0.00    +0.031 C 
ATOM     10  C   UNL     1       2.134   2.013   4.276  0.00  0.00    +0.000 C 
ATOM     11  C   UNL     1       1.939   0.629   3.648  0.00  0.00    +0.003 C 
ATOM     12  C   UNL     1       3.316  -0.036   3.571  0.00  0.00    +0.005 C 
ATOM     13  C   UNL     1       3.810  -0.273   4.996  0.00  0.00    +0.010 C 
ATOM     14  C   UNL     1       3.955   1.044   5.760  0.00  0.00    -0.002 C 
ATOM     15  C   UNL     1       2.660   1.873   5.691  0.00  0.00    +0.001 C 
ATOM     16  C   UNL     1       1.697   1.113   6.621  0.00  0.00    +0.007 C 
ATOM     17  C   UNL     1       2.601   0.688   7.801  0.00  0.00    +0.034 C 
ATOM     18  C   UNL     1       4.045   0.673   7.265  0.00  0.00    +0.057 C 
ATOM     19  C   UNL     1       5.165   1.845   5.276  0.00  0.00    +0.014 C 
ENDROOT
BRANCH  18  20
ATOM     20  O   UNL     1       4.837   1.637   7.962  0.00  0.00    -0.390 OA
ATOM     21  H   UNL     1       5.008   1.530   9.043  0.00  0.00    +0.210 HD
ENDBRANCH  18  20
BRANCH   5  22
ATOM     22  O   UNL     1      -0.556   1.930  -1.243  0.00  0.00    -0.391 OA
ATOM     23  H   UNL     1      -0.125   1.780  -2.244  0.00  0.00    +0.210 HD
ENDBRANCH   5  22
BRANCH  18  24
ATOM     24  C   UNL     1       4.652  -0.723   7.427  0.00  0.00    -0.043 C 
BRANCH  24  25
ATOM     25  N   UNL     1       4.621  -1.109   8.844  0.00  0.00    +0.379 N 
ATOM     26  C   UNL     1       5.971  -1.413   9.336  0.00  0.00    -0.098 C 
ATOM     27  C   UNL     1       4.972  -2.525   9.012  0.00  0.00    -0.098 C 
ATOM     28  H   UNL     1       3.797  -0.474   9.204  0.00  0.00    -0.082 HD
ENDBRANCH  24  25
ENDBRANCH  18  24
TORSDOF 4
