REMARK  Name = ZINC00861527
REMARK  4 active torsions:
REMARK  status: ('A' for Active; 'I' for Inactive)
REMARK    1  A    between atoms: C_1  and  C_2
REMARK    2  A    between atoms: C_5  and  C_11
REMARK    3  A    between atoms: C_7  and  N_8
REMARK    4  A    between atoms: C_16  and  C_21
REMARK                            x       y       z     vdW  Elec       q    Type
REMARK                         _______ _______ _______ _____ _____    ______ ____
ROOT
ATOM      1  C   UNL     1       1.721   2.416   0.178  0.00  0.00    +0.136 C 
ATOM      2  C   UNL     1       2.635   1.984   1.301  0.00  0.00    +0.036 C 
ATOM      3  C   UNL     1       2.343   1.081   2.251  0.00  0.00    +0.017 C 
ATOM      4  C   UNL     1       3.376   0.713   3.304  0.00  0.00    +0.059 C 
ATOM      5  C   UNL     1       4.241   1.929   3.630  0.00  0.00    +0.032 C 
ATOM      6  C   UNL     1       4.939   2.365   2.336  0.00  0.00    +0.088 C 
ATOM      7  C   UNL     1       3.894   2.630   1.294  0.00  0.00    +0.163 C 
ATOM      8  O   UNL     1       4.138   3.428   0.410  0.00  0.00    -0.292 OA
ATOM      9  N   UNL     1       1.161   0.423   2.361  0.00  0.00    -0.316 N 
ATOM     10  C   UNL     1       0.496  -0.193   1.307  0.00  0.00    +0.052 A 
ATOM     11  C   UNL     1       0.249  -1.555   1.286  0.00  0.00    +0.025 A 
ATOM     12  C   UNL     1      -0.513  -2.090   0.261  0.00  0.00    +0.002 A 
ATOM     13  C   UNL     1      -1.020  -1.271  -0.732  0.00  0.00    +0.002 A 
ATOM     14  C   UNL     1      -0.757   0.087  -0.722  0.00  0.00    +0.025 A 
ATOM     15  C   UNL     1       0.019   0.624   0.293  0.00  0.00    +0.049 A 
ATOM     16  N   UNL     1       0.349   1.977   0.320  0.00  0.00    -0.331 N 
ATOM     17  H   UNL     1       0.751   0.379   3.239  0.00  0.00    +0.152 HD
ATOM     18  H   UNL     1      -0.353   2.637   0.432  0.00  0.00    +0.147 HD
ENDROOT
BRANCH   1  23
ATOM     19  C   UNL     1       3.809   0.327  -4.789  0.00  0.00    +0.046 C 
ATOM     20  C   UNL     1       3.265   0.872  -3.494  0.00  0.00    -0.020 A 
ATOM     21  C   UNL     1       2.806   0.006  -2.518  0.00  0.00    +0.006 A 
ATOM     22  C   UNL     1       2.311   0.506  -1.328  0.00  0.00    +0.006 A 
ATOM     23  C   UNL     1       2.265   1.871  -1.118  0.00  0.00    -0.021 A 
ATOM     24  C   UNL     1       2.724   2.737  -2.093  0.00  0.00    +0.038 A 
ATOM     25  C   UNL     1       3.224   2.237  -3.281  0.00  0.00    +0.129 A 
BRANCH  25  26
ATOM     26  N   UNL     1       3.715   3.164  -4.325  0.00  0.00    +0.057 N 
ATOM     27  O   UNL     1       4.690   2.868  -4.992  0.00  0.00    -0.126 OA
ATOM     28  O   UNL     1       3.144   4.222  -4.518  0.00  0.00    -0.126 OA
ENDBRANCH  25  26
ENDBRANCH   1  23
BRANCH   5  29
ATOM     29  C   UNL     1       5.270   1.561   4.667  0.00  0.00    -0.043 A 
ATOM     30  C   UNL     1       6.187   0.559   4.406  0.00  0.00    +0.005 A 
ATOM     31  C   UNL     1       7.134   0.225   5.355  0.00  0.00    +0.020 A 
ATOM     32  C   UNL     1       7.158   0.885   6.571  0.00  0.00    +0.041 A 
ATOM     33  C   UNL     1       6.237   1.883   6.834  0.00  0.00    +0.020 A 
ATOM     34  C   UNL     1       5.293   2.221   5.882  0.00  0.00    +0.005 A 
ATOM     35 CL   UNL     1       8.344   0.462   7.766  0.00  0.00    -0.084 Cl
ENDBRANCH   5  29
TORSDOF 3
