REMARK  Name = ZINC36586672
REMARK  15 active torsions:
REMARK  status: ('A' for Active; 'I' for Inactive)
REMARK    1  A    between atoms: C_1  and  C_2
REMARK    2  A    between atoms: C_5  and  S_8
REMARK    3  A    between atoms: S_8  and  C_11
REMARK    4  A    between atoms: C_11  and  N_12
REMARK    5  A    between atoms: C_13  and  C_15
REMARK    6  A    between atoms: C_15  and  C_17
REMARK    7  A    between atoms: C_15  and  N_24
REMARK    8  A    between atoms: C_22  and  O_23
REMARK    9  A    between atoms: N_24  and  C_35
REMARK   10  A    between atoms: C_25  and  C_27
REMARK   11  A    between atoms: C_28  and  O_34
REMARK   12  A    between atoms: C_32  and  O_33
REMARK   13  A    between atoms: C_35  and  C_36
REMARK   14  A    between atoms: C_35  and  C_37
REMARK   15  A    between atoms: C_35  and  C_38
REMARK                            x       y       z     vdW  Elec       q    Type
REMARK                         _______ _______ _______ _____ _____    ______ ____
ROOT
ATOM      1  C   UNL     1       2.244  -3.900   3.984  0.00  0.00    +0.196 C 
ENDROOT
BRANCH   1   2
ATOM      2  C   UNL     1       3.580  -3.208   3.914  0.00  0.00    +0.023 A 
ATOM      3  C   UNL     1       4.720  -3.933   3.625  0.00  0.00    +0.009 A 
ATOM      4  C   UNL     1       5.947  -3.298   3.561  0.00  0.00    +0.001 A 
ATOM      5  C   UNL     1       6.036  -1.937   3.785  0.00  0.00    +0.004 A 
ATOM      6  C   UNL     1       4.899  -1.207   4.073  0.00  0.00    +0.046 A 
ATOM      7  C   UNL     1       3.666  -1.841   4.133  0.00  0.00    +0.122 A 
BRANCH   7   8
ATOM      8  O   UNL     1       2.545  -1.124   4.411  0.00  0.00    -0.506 OA
ATOM      9  H   UNL     1       2.342  -1.063   5.354  0.00  0.00    +0.292 HD
ENDBRANCH   7   8
ENDBRANCH   1   2
BRANCH   1  11
ATOM     10  N   UNL     1       1.224  -2.537   2.189  0.00  0.00    -0.294 N 
ATOM     11  C   UNL     1       1.536  -3.761   2.661  0.00  0.00    +0.239 C 
ATOM     12  O   UNL     1       1.246  -4.749   2.021  0.00  0.00    -0.273 OA
ATOM     13  H   UNL     1       1.456  -1.747   2.701  0.00  0.00    +0.150 HD
BRANCH  10  14
ATOM     14  C   UNL     1       0.536  -2.402   0.903  0.00  0.00    +0.278 C 
BRANCH  14  15
ATOM     15  S   UNL     1      -1.252  -2.273   1.184  0.00  0.00    +0.013 S 
ATOM     16  O   UNL     1      -1.678  -3.279   2.093  0.00  0.00    -0.168 OA
ATOM     17  O   UNL     1      -1.929  -2.077  -0.050  0.00  0.00    -0.168 OA
BRANCH  15  22
ATOM     18  C   UNL     1      -1.983   2.914   4.179  0.00  0.00    +0.044 C 
ATOM     19  C   UNL     1      -1.800   1.619   3.431  0.00  0.00    -0.050 A 
ATOM     20  C   UNL     1      -1.837   1.607   2.049  0.00  0.00    +0.005 A 
ATOM     21  C   UNL     1      -1.669   0.419   1.363  0.00  0.00    +0.027 A 
ATOM     22  C   UNL     1      -1.464  -0.758   2.059  0.00  0.00    +0.090 A 
ATOM     23  C   UNL     1      -1.426  -0.746   3.441  0.00  0.00    +0.027 A 
ATOM     24  C   UNL     1      -1.590   0.443   4.126  0.00  0.00    +0.005 A 
ENDBRANCH  15  22
ENDBRANCH  14  15
ENDBRANCH  10  14
ENDBRANCH   1  11
BRANCH   1  25
ATOM     25  N   UNL     1       2.444  -5.320   4.283  0.00  0.00    -0.277 N 
ATOM     26  C   UNL     1       3.037  -6.122   3.377  0.00  0.00    +0.255 C 
ATOM     27  O   UNL     1       3.346  -5.683   2.286  0.00  0.00    -0.270 OA
BRANCH  26  28
ATOM     28  C   UNL     1       3.310  -7.531   3.707  0.00  0.00    +0.119 A 
ATOM     29  C   UNL     1       2.360  -8.521   3.418  0.00  0.00    +0.133 A 
ATOM     30  C   UNL     1       2.627  -9.844   3.733  0.00  0.00    +0.046 A 
ATOM     31  C   UNL     1       3.825 -10.189   4.330  0.00  0.00    +0.007 A 
ATOM     32  C   UNL     1       4.769  -9.221   4.620  0.00  0.00    +0.046 A 
ATOM     33  C   UNL     1       4.524  -7.893   4.308  0.00  0.00    +0.133 A 
BRANCH  33  34
ATOM     34  O   UNL     1       5.454  -6.946   4.588  0.00  0.00    -0.506 OA
ATOM     35  H   UNL     1       5.364  -6.553   5.467  0.00  0.00    +0.292 HD
ENDBRANCH  33  34
BRANCH  29  36
ATOM     36  O   UNL     1       1.183  -8.185   2.833  0.00  0.00    -0.506 OA
ATOM     37  H   UNL     1       1.205  -8.204   1.866  0.00  0.00    +0.292 HD
ENDBRANCH  29  36
ENDBRANCH  26  28
BRANCH  25  38
ATOM     38  C   UNL     1       2.001  -5.868   5.567  0.00  0.00    +0.030 C 
ATOM     39  C   UNL     1       1.224  -4.798   6.337  0.00  0.00    +0.031 C 
ATOM     40  C   UNL     1       1.097  -7.077   5.321  0.00  0.00    +0.031 C 
ATOM     41  C   UNL     1       3.220  -6.301   6.385  0.00  0.00    +0.031 C 
ENDBRANCH  25  38
ENDBRANCH   1  25
TORSDOF 11
