REMARK  Name = ZINC39869760
REMARK  7 active torsions:
REMARK  status: ('A' for Active; 'I' for Inactive)
REMARK    1  A    between atoms: C_1  and  C_2
REMARK    2  A    between atoms: C_6  and  O_26
REMARK    3  A    between atoms: C_7  and  N_8
REMARK    4  A    between atoms: C_14  and  C_15
REMARK    5  A    between atoms: C_18  and  C_21
REMARK    6  A    between atoms: C_21  and  O_23
REMARK    7  A    between atoms: O_23  and  C_24
REMARK                            x       y       z     vdW  Elec       q    Type
REMARK                         _______ _______ _______ _____ _____    ______ ____
ROOT
ATOM      1  N   UNL     1      -1.407   0.037   2.232  0.00  0.00    -0.293 N 
ATOM      2  C   UNL     1      -1.425  -0.615   3.435  0.00  0.00    +0.156 C 
ATOM      3  N   UNL     1      -1.527  -1.916   3.662  0.00  0.00    -0.154 NA
ATOM      4  C   UNL     1      -1.533  -2.422   4.875  0.00  0.00    +0.276 C 
ATOM      5  O   UNL     1      -1.627  -3.622   5.072  0.00  0.00    -0.267 OA
ATOM      6  C   UNL     1      -1.419  -1.450   5.993  0.00  0.00    +0.079 C 
ATOM      7  C   UNL     1      -1.396  -1.664   7.331  0.00  0.00    +0.028 C 
ATOM      8  S   UNL     1      -1.310   0.082   5.075  0.00  0.00    -0.051 S 
ATOM      9  H   UNL     1      -1.245   0.993   2.201  0.00  0.00    +0.154 HD
ENDROOT
BRANCH   1  16
ATOM     10  C   UNL     1      -3.708   0.666   0.683  0.00  0.00    +0.046 C 
ATOM     11  C   UNL     1      -2.730  -0.401   0.260  0.00  0.00    -0.026 A 
ATOM     12  C   UNL     1      -2.936  -1.102  -0.913  0.00  0.00    +0.005 A 
ATOM     13  C   UNL     1      -2.042  -2.080  -1.304  0.00  0.00    +0.004 A 
ATOM     14  C   UNL     1      -0.936  -2.363  -0.523  0.00  0.00    +0.047 A 
ATOM     15  C   UNL     1      -0.722  -1.666   0.654  0.00  0.00    +0.138 A 
ATOM     16  C   UNL     1      -1.621  -0.675   1.046  0.00  0.00    +0.078 A 
BRANCH  15  17
ATOM     17  O   UNL     1       0.365  -1.943   1.423  0.00  0.00    -0.505 OA
ATOM     18  H   UNL     1       1.147  -1.419   1.202  0.00  0.00    +0.292 HD
ENDBRANCH  15  17
ENDBRANCH   1  16
BRANCH   7  19
ATOM     19  C   UNL     1      -1.469  -0.526   8.259  0.00  0.00    -0.024 A 
ATOM     20  C   UNL     1      -1.732   0.760   7.771  0.00  0.00    +0.009 A 
ATOM     21  C   UNL     1      -1.801   1.820   8.637  0.00  0.00    +0.015 A 
ATOM     22  C   UNL     1      -1.608   1.618  10.007  0.00  0.00    +0.059 A 
ATOM     23  C   UNL     1      -1.345   0.335  10.495  0.00  0.00    +0.015 A 
ATOM     24  C   UNL     1      -1.282  -0.728   9.632  0.00  0.00    +0.009 A 
BRANCH  22  25
ATOM     25  C   UNL     1      -1.681   2.761  10.939  0.00  0.00    +0.339 C 
ATOM     26  O   UNL     1      -1.909   3.877  10.515  0.00  0.00    -0.245 OA
BRANCH  25  27
ATOM     27  O   UNL     1      -1.495   2.567  12.259  0.00  0.00    -0.464 OA
ATOM     28  C   UNL     1      -1.580   3.718  13.102  0.00  0.00    +0.280 C 
ENDBRANCH  25  27
ENDBRANCH  22  25
ENDBRANCH   7  19
TORSDOF 5
