REMARK  Name = ZINC09129867
REMARK  11 active torsions:
REMARK  status: ('A' for Active; 'I' for Inactive)
REMARK    1  A    between atoms: C_2  and  C_3
REMARK    2  A    between atoms: C_3  and  N_4
REMARK    3  A    between atoms: C_5  and  C_26
REMARK    4  A    between atoms: C_8  and  S_9
REMARK    5  A    between atoms: S_9  and  C_10
REMARK    6  A    between atoms: C_10  and  C_11
REMARK    7  A    between atoms: N_13  and  C_14
REMARK    8  A    between atoms: C_14  and  C_15
REMARK    9  A    between atoms: C_15  and  C_16
REMARK   10  A    between atoms: C_19  and  S_22
REMARK   11  A    between atoms: S_22  and  N_25
REMARK                            x       y       z     vdW  Elec       q    Type
REMARK                         _______ _______ _______ _____ _____    ______ ____
ROOT
ATOM      1  C   UNL     1       8.376  -1.059  -0.136  0.00  0.00    +0.223 C 
ATOM      2  O   UNL     1       9.054  -0.053  -0.143  0.00  0.00    -0.275 OA
ATOM      3  N   UNL     1       8.968  -2.270  -0.156  0.00  0.00    -0.314 N 
ATOM      4  H   UNL     1       8.426  -3.075  -0.150  0.00  0.00    +0.149 HD
ENDROOT
BRANCH   1   5
ATOM      5  C   UNL     1       6.873  -0.955  -0.105  0.00  0.00    +0.173 C 
BRANCH   5   6
ATOM      6  S   UNL     1       6.390   0.789  -0.083  0.00  0.00    -0.078 S 
BRANCH   6  11
ATOM      7  N   UNL     1       3.740   1.644  -0.024  0.00  0.00    -0.315 N 
ATOM      8  C   UNL     1       2.478   1.075  -0.002  0.00  0.00    +0.070 A 
ATOM      9  C   UNL     1       2.660  -0.272  -0.009  0.00  0.00    +0.140 A 
ATOM     10  N   UNL     1       3.976  -0.517  -0.043  0.00  0.00    -0.230 NA
ATOM     11  C   UNL     1       4.636   0.620  -0.049  0.00  0.00    +0.170 A 
BRANCH   8  12
ATOM     12  C   UNL     1       1.186   1.792   0.029  0.00  0.00    +0.000 A 
ATOM     13  C   UNL     1       0.020   1.153  -0.395  0.00  0.00    +0.011 A 
ATOM     14  C   UNL     1      -1.182   1.828  -0.368  0.00  0.00    +0.020 A 
ATOM     15  C   UNL     1      -1.235   3.135   0.089  0.00  0.00    +0.041 A 
ATOM     16  C   UNL     1      -0.082   3.774   0.511  0.00  0.00    +0.020 A 
ATOM     17  C   UNL     1       1.127   3.110   0.484  0.00  0.00    +0.011 A 
ATOM     18 CL   UNL     1      -2.753   3.976   0.126  0.00  0.00    -0.084 Cl
ENDBRANCH   8  12
BRANCH   7  19
ATOM     19  C   UNL     1       4.051   3.076  -0.020  0.00  0.00    +0.151 C 
BRANCH  19  21
ATOM     20  C   UNL     1       5.410   4.141   1.706  0.00  0.00    +0.005 C 
ATOM     21  C   UNL     1       4.292   3.534   1.396  0.00  0.00    -0.013 C 
ENDBRANCH  19  21
ENDBRANCH   7  19
ENDBRANCH   6  11
ENDBRANCH   5   6
ENDBRANCH   1   5
BRANCH   3  22
ATOM     22  C   UNL     1      10.429  -2.372  -0.187  0.00  0.00    +0.109 C 
BRANCH  22  23
ATOM     23  C   UNL     1      10.838  -3.846  -0.205  0.00  0.00    +0.054 C 
BRANCH  23  24
ATOM     24  C   UNL     1      12.341  -3.950  -0.236  0.00  0.00    -0.046 A 
ATOM     25  C   UNL     1      13.005  -3.995  -1.447  0.00  0.00    +0.005 A 
ATOM     26  C   UNL     1      14.384  -4.087  -1.476  0.00  0.00    +0.029 A 
ATOM     27  C   UNL     1      15.098  -4.141  -0.294  0.00  0.00    +0.105 A 
ATOM     28  C   UNL     1      14.433  -4.101   0.918  0.00  0.00    +0.029 A 
ATOM     29  C   UNL     1      13.055  -4.005   0.946  0.00  0.00    +0.005 A 
BRANCH  27  30
ATOM     30  S   UNL     1      16.856  -4.262  -0.330  0.00  0.00    +0.056 S 
ATOM     31  O   UNL     1      17.273  -3.733  -1.581  0.00  0.00    -0.153 OA
ATOM     32  O   UNL     1      17.324  -3.747   0.909  0.00  0.00    -0.153 OA
BRANCH  30  33
ATOM     33  N   UNL     1      17.236  -5.873  -0.347  0.00  0.00    -0.204 NA
ATOM     34  H   UNL     1      16.530  -6.538  -0.337  0.00  0.00    +0.144 HD
ATOM     35  H   UNL     1      18.165  -6.152  -0.368  0.00  0.00    +0.144 HD
ENDBRANCH  30  33
ENDBRANCH  27  30
ENDBRANCH  23  24
ENDBRANCH  22  23
ENDBRANCH   3  22
TORSDOF 11
