REMARK  Name = ZINC51147535
REMARK  6 active torsions:
REMARK  status: ('A' for Active; 'I' for Inactive)
REMARK    1  A    between atoms: C_1  and  C_2
REMARK    2  A    between atoms: C_3  and  C_20
REMARK    3  A    between atoms: C_7  and  N_18
REMARK    4  A    between atoms: C_9  and  C_11
REMARK    5  A    between atoms: C_11  and  N_12
REMARK    6  A    between atoms: N_18  and  N_19
REMARK                            x       y       z     vdW  Elec       q    Type
REMARK                         _______ _______ _______ _____ _____    ______ ____
ROOT
ATOM      1  C   UNL     1      -1.563   1.389   0.641  0.00  0.00    +0.045 C 
ATOM      2  C   UNL     1      -1.394  -0.106   0.572  0.00  0.00    -0.028 A 
ATOM      3  C   UNL     1      -2.038  -0.819  -0.364  0.00  0.00    -0.008 A 
ATOM      4  S   UNL     1      -1.524  -2.495  -0.038  0.00  0.00    -0.074 S 
ATOM      5  C   UNL     1      -0.459  -2.193   1.347  0.00  0.00    +0.114 A 
ATOM      6  C   UNL     1      -0.527  -0.792   1.514  0.00  0.00    +0.052 A 
ATOM      7  C   UNL     1       0.255  -0.267   2.579  0.00  0.00    +0.144 A 
ATOM      8  N   UNL     1       0.978  -1.093   3.318  0.00  0.00    -0.214 NA
ATOM      9  C   UNL     1       0.998  -2.396   3.100  0.00  0.00    +0.150 A 
ATOM     10  N   UNL     1       0.285  -2.944   2.135  0.00  0.00    -0.223 NA
ATOM     11  C   UNL     1      -2.973  -0.322  -1.436  0.00  0.00    +0.052 C 
ENDROOT
BRANCH   7  12
ATOM     12  N   UNL     1       0.262   1.092   2.839  0.00  0.00    -0.267 N 
ATOM     13  H   UNL     1       0.110   1.724   2.119  0.00  0.00    +0.167 HD
BRANCH  12  14
ATOM     14  N   UNL     1       0.482   1.543   4.109  0.00  0.00    -0.255 NA
ATOM     15  H   UNL     1       1.355   1.190   4.472  0.00  0.00    +0.140 HD
ATOM     16  H   UNL     1       0.458   2.551   4.144  0.00  0.00    +0.140 HD
ENDBRANCH  12  14
ENDBRANCH   7  12
BRANCH   9  17
ATOM     17  C   UNL     1       1.844  -3.278   3.982  0.00  0.00    +0.183 C 
BRANCH  17  18
ATOM     18  N   UNL     1       1.052  -3.724   5.131  0.00  0.00    -0.294 N 
ATOM     19  C   UNL     1       0.960  -3.000   6.405  0.00  0.00    +0.109 C 
ATOM     20  C   UNL     1      -0.280  -3.580   7.120  0.00  0.00    +0.028 C 
ATOM     21  C   UNL     1      -0.376  -4.990   6.492  0.00  0.00    +0.097 C 
ATOM     22  C   UNL     1       0.311  -4.845   5.152  0.00  0.00    +0.216 C 
ATOM     23  O   UNL     1       0.211  -5.628   4.232  0.00  0.00    -0.276 OA
ENDBRANCH  17  18
ENDBRANCH   9  17
TORSDOF 4
