REMARK  Name = ZINC01211721
REMARK  9 active torsions:
REMARK  status: ('A' for Active; 'I' for Inactive)
REMARK    1  A    between atoms: C_1  and  C_2
REMARK    2  A    between atoms: C_6  and  N_9
REMARK    3  A    between atoms: C_7  and  C_8
REMARK    4  A    between atoms: C_10  and  C_12
REMARK    5  A    between atoms: C_12  and  C_33
REMARK    6  A    between atoms: C_13  and  C_14
REMARK    7  A    between atoms: N_16  and  C_23
REMARK    8  A    between atoms: C_23  and  C_24
REMARK    9  A    between atoms: N_26  and  C_27
REMARK                            x       y       z     vdW  Elec       q    Type
REMARK                         _______ _______ _______ _____ _____    ______ ____
ROOT
ATOM      1  C   UNL     1      -1.119  -4.145  -0.842  0.00  0.00    +0.002 A 
ATOM      2  C   UNL     1      -1.143  -2.833  -1.274  0.00  0.00    +0.095 A 
ATOM      3  N   UNL     1      -1.504  -2.029  -0.256  0.00  0.00    -0.337 N 
ATOM      4  C   UNL     1      -1.730  -2.764   0.891  0.00  0.00    +0.050 A 
ATOM      5  C   UNL     1      -1.507  -4.115   0.582  0.00  0.00    +0.007 A 
ATOM      6  C   UNL     1      -1.666  -5.091   1.561  0.00  0.00    +0.010 A 
ATOM      7  C   UNL     1      -2.049  -4.726   2.834  0.00  0.00    +0.001 A 
ATOM      8  C   UNL     1      -2.274  -3.392   3.140  0.00  0.00    +0.002 A 
ATOM      9  C   UNL     1      -2.120  -2.416   2.180  0.00  0.00    +0.026 A 
ENDROOT
BRANCH   1  11
ATOM     10  C   UNL     1      -0.145  -5.139  -2.825  0.00  0.00    +0.114 C 
ATOM     11  C   UNL     1      -0.789  -5.285  -1.609  0.00  0.00    +0.034 C 
BRANCH  10  13
ATOM     12  N   UNL     1       0.719  -6.170  -4.860  0.00  0.00    -0.281 N 
ATOM     13  C   UNL     1       0.092  -6.312  -3.676  0.00  0.00    +0.259 C 
ATOM     14  O   UNL     1      -0.278  -7.413  -3.311  0.00  0.00    -0.269 OA
ATOM     15  H   UNL     1       1.086  -5.309  -5.114  0.00  0.00    +0.155 HD
BRANCH  12  21
ATOM     16  C   UNL     1       0.885  -7.949  -9.440  0.00  0.00    +0.044 C 
ATOM     17  C   UNL     1       0.924  -8.155  -7.947  0.00  0.00    -0.046 A 
ATOM     18  C   UNL     1       1.080  -9.428  -7.430  0.00  0.00    +0.004 A 
ATOM     19  C   UNL     1       1.116  -9.622  -6.061  0.00  0.00    +0.002 A 
ATOM     20  C   UNL     1       0.997  -8.543  -5.206  0.00  0.00    +0.023 A 
ATOM     21  C   UNL     1       0.840  -7.264  -5.723  0.00  0.00    +0.037 A 
ATOM     22  C   UNL     1       0.798  -7.074  -7.098  0.00  0.00    -0.026 A 
ATOM     23  C   UNL     1       0.622  -5.688  -7.663  0.00  0.00    +0.046 C 
ENDBRANCH  12  21
ENDBRANCH  10  13
BRANCH  10  24
ATOM     24  C   UNL     1       0.289  -3.844  -3.254  0.00  0.00    +0.104 C 
ATOM     25  N   UNL     1       0.634  -2.817  -3.595  0.00  0.00    -0.191 NA
ENDBRANCH  10  24
ENDBRANCH   1  11
BRANCH   3  26
ATOM     26  C   UNL     1      -1.634  -0.573  -0.350  0.00  0.00    +0.217 C 
BRANCH  26  27
ATOM     27  C   UNL     1      -0.352   0.076   0.104  0.00  0.00    +0.237 C 
ATOM     28  O   UNL     1       0.579  -0.610   0.471  0.00  0.00    -0.274 OA
ATOM     29  N   UNL     1      -0.240   1.419   0.104  0.00  0.00    -0.284 N 
ATOM     30  H   UNL     1      -0.951   1.966  -0.266  0.00  0.00    +0.155 HD
BRANCH  29  31
ATOM     31  C   UNL     1       0.906   2.026   0.631  0.00  0.00    +0.033 A 
ATOM     32  C   UNL     1       0.803   3.229   1.317  0.00  0.00    +0.023 A 
ATOM     33  C   UNL     1       1.935   3.822   1.842  0.00  0.00    +0.002 A 
ATOM     34  C   UNL     1       3.171   3.225   1.673  0.00  0.00    +0.000 A 
ATOM     35  C   UNL     1       3.277   2.030   0.985  0.00  0.00    +0.002 A 
ATOM     36  C   UNL     1       2.149   1.429   0.464  0.00  0.00    +0.023 A 
ENDBRANCH  29  31
ENDBRANCH  26  27
ENDBRANCH   3  26
TORSDOF 7
