REMARK  Name = ZINC64957028
REMARK  7 active torsions:
REMARK  status: ('A' for Active; 'I' for Inactive)
REMARK    1  A    between atoms: C_1  and  C_2
REMARK    2  A    between atoms: C_2  and  C_3
REMARK    3  A    between atoms: C_2  and  N_4
REMARK    4  A    between atoms: C_5  and  C_7
REMARK    5  A    between atoms: N_15  and  C_16
REMARK    6  A    between atoms: C_16  and  C_17
REMARK    7  A    between atoms: C_17  and  N_18
REMARK                            x       y       z     vdW  Elec       q    Type
REMARK                         _______ _______ _______ _____ _____    ______ ____
ROOT
ATOM      1  C   UNL     1       2.721  -1.063  -2.429  0.00  0.00    +0.039 A 
ATOM      2  C   UNL     1       1.984  -1.394  -3.569  0.00  0.00    +0.015 A 
ATOM      3  C   UNL     1       2.628  -1.839  -4.703  0.00  0.00    +0.027 A 
ATOM      4  C   UNL     1       4.011  -1.959  -4.716  0.00  0.00    +0.068 A 
ATOM      5  C   UNL     1       4.755  -1.629  -3.578  0.00  0.00    +0.066 A 
ATOM      6  C   UNL     1       4.115  -1.178  -2.442  0.00  0.00    +0.039 A 
ATOM      7  N   UNL     1       6.102  -1.848  -3.888  0.00  0.00    -0.263 N 
ATOM      8  N   UNL     1       6.174  -2.298  -5.175  0.00  0.00    -0.160 NA
ATOM      9  N   UNL     1       4.914  -2.372  -5.694  0.00  0.00    -0.248 N 
ATOM     10  H   UNL     1       6.854  -1.705  -3.292  0.00  0.00    +0.168 HD
ATOM     11  H   UNL     1       6.636  -3.194  -5.220  0.00  0.00    +0.168 HD
ENDROOT
BRANCH   1  13
ATOM     12  N   UNL     1       0.688  -0.476  -1.203  0.00  0.00    -0.309 N 
ATOM     13  C   UNL     1       2.031  -0.587  -1.215  0.00  0.00    +0.244 C 
ATOM     14  O   UNL     1       2.674  -0.294  -0.225  0.00  0.00    -0.270 OA
ATOM     15  H   UNL     1       0.175  -0.710  -1.993  0.00  0.00    +0.149 HD
BRANCH  12  17
ATOM     16  C   UNL     1      -0.019   1.526   0.010  0.00  0.00    +0.027 C 
ATOM     17  C   UNL     1       0.002  -0.004   0.002  0.00  0.00    +0.067 C 
ATOM     18  C   UNL     1      -1.433  -0.534   0.013  0.00  0.00    +0.027 C 
ENDBRANCH  12  17
ENDBRANCH   1  13
BRANCH   9  19
ATOM     19  C   UNL     1       4.569  -2.810  -7.048  0.00  0.00    +0.147 C 
BRANCH  19  20
ATOM     20  C   UNL     1       4.562  -1.604  -7.989  0.00  0.00    +0.150 C 
BRANCH  20  21
ATOM     21  N   UNL     1       4.217  -2.042  -9.343  0.00  0.00    -0.259 N 
ATOM     22  C   UNL     1       5.201  -2.422 -10.187  0.00  0.00    +0.264 A 
ATOM     23  O   UNL     1       6.365  -2.403  -9.836  0.00  0.00    -0.267 OA
ATOM     24  C   UNL     1       4.828  -2.859 -11.544  0.00  0.00    +0.063 A 
ATOM     25  C   UNL     1       5.784  -3.265 -12.472  0.00  0.00    +0.017 A 
ATOM     26  C   UNL     1       5.384  -3.666 -13.729  0.00  0.00    +0.021 A 
ATOM     27  C   UNL     1       4.039  -3.666 -14.071  0.00  0.00    +0.043 A 
ATOM     28  C   UNL     1       3.081  -3.265 -13.159  0.00  0.00    +0.046 A 
ATOM     29  C   UNL     1       3.465  -2.859 -11.891  0.00  0.00    +0.057 A 
ATOM     30  N   UNL     1       2.536  -2.450 -10.946  0.00  0.00    -0.307 N 
ATOM     31  H   UNL     1       1.592  -2.445 -11.171  0.00  0.00    +0.170 HD
ATOM     32  C   UNL     1       2.929  -2.065  -9.720  0.00  0.00    +0.330 A 
ATOM     33  O   UNL     1       2.083  -1.718  -8.919  0.00  0.00    -0.246 OA
ATOM     34 CL   UNL     1       3.556  -4.174 -15.659  0.00  0.00    -0.083 Cl
ENDBRANCH  20  21
ENDBRANCH  19  20
ENDBRANCH   9  19
TORSDOF 5
