REMARK  Name = ZINC14274816
REMARK  7 active torsions:
REMARK  status: ('A' for Active; 'I' for Inactive)
REMARK    1  A    between atoms: C_1  and  O_2
REMARK    2  A    between atoms: O_2  and  C_3
REMARK    3  A    between atoms: C_4  and  C_14
REMARK    4  A    between atoms: N_16  and  C_17
REMARK    5  A    between atoms: C_17  and  N_19
REMARK    6  A    between atoms: N_19  and  C_20
REMARK    7  A    between atoms: C_29  and  O_30
REMARK                            x       y       z     vdW  Elec       q    Type
REMARK                         _______ _______ _______ _____ _____    ______ ____
ROOT
ATOM      1  C   UNL     1      -0.864   0.407  -0.854  0.00  0.00    +0.253 C 
ATOM      2  O   UNL     1      -0.892   1.198  -1.776  0.00  0.00    -0.270 OA
ATOM      3  N   UNL     1       0.245   0.293  -0.097  0.00  0.00    -0.263 N 
ATOM      4  H   UNL     1       0.267  -0.339   0.639  0.00  0.00    +0.157 HD
ENDROOT
BRANCH   1   6
ATOM      5  C   UNL     1      -3.206  -0.301  -1.355  0.00  0.00    +0.147 A 
ATOM      6  C   UNL     1      -2.045  -0.428  -0.563  0.00  0.00    +0.080 A 
ATOM      7  C   UNL     1      -2.009  -1.329   0.489  0.00  0.00    +0.025 A 
ATOM      8  C   UNL     1      -3.134  -2.120   0.761  0.00  0.00    -0.016 A 
ATOM      9  C   UNL     1      -3.132  -3.044   1.823  0.00  0.00    +0.008 A 
ATOM     10  C   UNL     1      -4.240  -3.797   2.062  0.00  0.00    +0.001 A 
ATOM     11  C   UNL     1      -5.380  -3.668   1.270  0.00  0.00    +0.001 A 
ATOM     12  C   UNL     1      -5.419  -2.785   0.235  0.00  0.00    +0.010 A 
ATOM     13  C   UNL     1      -4.295  -1.988  -0.044  0.00  0.00    -0.000 A 
ATOM     14  C   UNL     1      -4.306  -1.068  -1.106  0.00  0.00    +0.068 A 
ATOM     15 BR   UNL     1      -5.849  -0.886  -2.184  0.00  0.00    -0.046 Br
BRANCH   5  17
ATOM     16  C   UNL     1      -2.796   0.119  -3.658  0.00  0.00    +0.277 C 
ATOM     17  O   UNL     1      -3.226   0.590  -2.379  0.00  0.00    -0.493 OA
ENDBRANCH   5  17
ENDBRANCH   1   6
BRANCH   3  18
ATOM     18  C   UNL     1       1.325   1.052  -0.366  0.00  0.00    +0.141 C 
ATOM     19  S   UNL     1       1.287   2.166  -1.665  0.00  0.00    -0.018 S 
BRANCH  18  20
ATOM     20  N   UNL     1       2.437   0.934   0.388  0.00  0.00    -0.293 N 
ATOM     21  H   UNL     1       2.445   0.333   1.149  0.00  0.00    +0.154 HD
BRANCH  20  22
ATOM     22  C   UNL     1       3.578   1.678   0.072  0.00  0.00    +0.082 A 
ATOM     23  C   UNL     1       4.754   1.030  -0.356  0.00  0.00    +0.007 A 
ATOM     24  C   UNL     1       4.808  -0.367  -0.488  0.00  0.00    +0.010 A 
ATOM     25  C   UNL     1       5.958  -0.960  -0.910  0.00  0.00    +0.001 A 
ATOM     26  C   UNL     1       7.085  -0.200  -1.221  0.00  0.00    +0.001 A 
ATOM     27  C   UNL     1       7.067   1.156  -1.110  0.00  0.00    +0.008 A 
ATOM     28  C   UNL     1       5.897   1.804  -0.676  0.00  0.00    -0.016 A 
ATOM     29  C   UNL     1       5.845   3.203  -0.551  0.00  0.00    +0.012 A 
ATOM     30  C   UNL     1       4.700   3.806  -0.129  0.00  0.00    +0.048 A 
ATOM     31  C   UNL     1       3.565   3.056   0.184  0.00  0.00    +0.139 A 
BRANCH  31  32
ATOM     32  O   UNL     1       2.435   3.687   0.603  0.00  0.00    -0.505 OA
ATOM     33  H   UNL     1       2.345   3.736   1.564  0.00  0.00    +0.292 HD
ENDBRANCH  31  32
ENDBRANCH  20  22
ENDBRANCH  18  20
ENDBRANCH   3  18
TORSDOF 6
