REMARK  Name = ZINC38742411
REMARK  5 active torsions:
REMARK  status: ('A' for Active; 'I' for Inactive)
REMARK    1  A    between atoms: C_1  and  C_2
REMARK    2  A    between atoms: C_2  and  C_3
REMARK    3  A    between atoms: C_2  and  C_4
REMARK    4  A    between atoms: C_6  and  C_10
REMARK    5  A    between atoms: C_18  and  C_20
REMARK                            x       y       z     vdW  Elec       q    Type
REMARK                         _______ _______ _______ _____ _____    ______ ____
ROOT
ATOM      1  C   UNL     1       3.477  -0.875  -3.068  0.00  0.00    +0.206 C 
ATOM      2  N   UNL     1       3.487   0.590  -2.841  0.00  0.00    -0.231 NA
ATOM      3  N   UNL     1       3.652   1.218  -4.163  0.00  0.00    -0.224 NA
ATOM      4  C   UNL     1       3.136   0.187  -5.086  0.00  0.00    +0.240 C 
ATOM      5  N   UNL     1       3.749  -1.057  -4.512  0.00  0.00    -0.206 N 
ATOM      6  N   UNL     1       4.384  -1.845  -5.447  0.00  0.00    -0.173 NA
ATOM      7  C   UNL     1       4.710  -1.414  -6.631  0.00  0.00    +0.125 C 
ATOM      8  S   UNL     1       3.983   0.254  -6.708  0.00  0.00    -0.063 S 
ATOM      9  H   UNL     1       2.631   0.893  -2.401  0.00  0.00    +0.143 HD
ATOM     10  H   UNL     1       4.624   1.417  -4.349  0.00  0.00    +0.144 HD
ENDROOT
BRANCH   7  11
ATOM     11  C   UNL     1       5.481  -2.119  -7.677  0.00  0.00    +0.010 A 
ATOM     12  C   UNL     1       5.742  -1.492  -8.897  0.00  0.00    +0.012 A 
ATOM     13  C   UNL     1       6.463  -2.154  -9.869  0.00  0.00    +0.022 A 
ATOM     14  C   UNL     1       6.927  -3.438  -9.638  0.00  0.00    +0.059 A 
ATOM     15  C   UNL     1       6.671  -4.066  -8.429  0.00  0.00    +0.060 A 
ATOM     16  C   UNL     1       5.956  -3.411  -7.447  0.00  0.00    +0.032 A 
ATOM     17 CL   UNL     1       7.257  -5.676  -8.148  0.00  0.00    -0.082 Cl
ATOM     18 CL   UNL     1       7.832  -4.265 -10.867  0.00  0.00    -0.082 Cl
ENDBRANCH   7  11
BRANCH   1  21
ATOM     19  C   UNL     1       0.707  -0.490  -1.238  0.00  0.00    +0.064 C 
ATOM     20  C   UNL     1       1.805  -1.250  -1.237  0.00  0.00    +0.030 C 
ATOM     21  C   UNL     1       2.107  -1.457  -2.710  0.00  0.00    +0.190 C 
ATOM     22  N   UNL     1       1.029  -0.708  -3.378  0.00  0.00    -0.177 NA
ATOM     23  N   UNL     1       0.311  -0.220  -2.502  0.00  0.00    -0.158 NA
BRANCH  19  25
ATOM     24  C   UNL     1      -0.019   1.526   0.010  0.00  0.00    +0.014 C 
ATOM     25  C   UNL     1       0.002  -0.004   0.002  0.00  0.00    +0.033 C 
ATOM     26  C   UNL     1      -1.433  -0.534   0.013  0.00  0.00    +0.014 C 
ENDBRANCH  19  25
ENDBRANCH   1  21
TORSDOF 3
