REMARK  Name = ZINC13785651
REMARK  6 active torsions:
REMARK  status: ('A' for Active; 'I' for Inactive)
REMARK    1  A    between atoms: C_4  and  C_7
REMARK    2  A    between atoms: C_20  and  C_22
REMARK    3  A    between atoms: C_25  and  O_28
REMARK    4  A    between atoms: O_28  and  C_29
REMARK    5  A    between atoms: C_29  and  C_30
REMARK    6  A    between atoms: C_30  and  O_31
REMARK                            x       y       z     vdW  Elec       q    Type
REMARK                         _______ _______ _______ _____ _____    ______ ____
ROOT
ATOM      1  C   UNL     1      -2.623   3.799  -0.000  0.00  0.00    +0.068 C 
ATOM      2  N   UNL     1      -2.711   5.088   0.041  0.00  0.00    -0.185 NA
ATOM      3  N   UNL     1      -4.013   5.553   0.013  0.00  0.00    -0.205 N 
ATOM      4  C   UNL     1      -4.936   4.407   0.178  0.00  0.00    +0.136 C 
ATOM      5  C   UNL     1      -4.013   3.197  -0.023  0.00  0.00    +0.086 C 
ATOM      6  C   UNL     1      -5.960   4.523  -0.920  0.00  0.00    +0.018 A 
ATOM      7  C   UNL     1      -6.752   3.431  -1.221  0.00  0.00    +0.024 A 
ATOM      8  C   UNL     1      -7.711   3.516  -2.213  0.00  0.00    +0.018 A 
ATOM      9  C   UNL     1      -7.878   4.703  -2.904  0.00  0.00    +0.019 A 
ATOM     10  C   UNL     1      -7.086   5.791  -2.611  0.00  0.00    +0.047 A 
ATOM     11  C   UNL     1      -6.109   5.712  -1.618  0.00  0.00    +0.129 A 
ATOM     12  O   UNL     1      -5.353   6.818  -1.398  0.00  0.00    -0.465 OA
ATOM     13  C   UNL     1      -4.531   6.906  -0.229  0.00  0.00    +0.310 C 
ATOM     14 BR   UNL     1      -8.790   2.018  -2.623  0.00  0.00    -0.050 Br
ENDROOT
BRANCH   1  18
ATOM     15  C   UNL     1       1.002   1.591  -0.048  0.00  0.00    +0.000 A 
ATOM     16  C   UNL     1      -0.211   0.925  -0.072  0.00  0.00    +0.001 A 
ATOM     17  C   UNL     1      -1.393   1.636  -0.062  0.00  0.00    +0.010 A 
ATOM     18  C   UNL     1      -1.364   3.032  -0.017  0.00  0.00    -0.002 A 
ATOM     19  C   UNL     1      -0.136   3.698   0.007  0.00  0.00    +0.010 A 
ATOM     20  C   UNL     1       1.038   2.974  -0.009  0.00  0.00    +0.001 A 
ENDBRANCH   1  18
BRANCH  13  21
ATOM     21  C   UNL     1      -5.353   7.363   0.948  0.00  0.00    +0.013 A 
ATOM     22  C   UNL     1      -6.491   8.122   0.743  0.00  0.00    +0.012 A 
ATOM     23  C   UNL     1      -7.249   8.538   1.820  0.00  0.00    +0.046 A 
ATOM     24  C   UNL     1      -6.862   8.203   3.110  0.00  0.00    +0.121 A 
ATOM     25  C   UNL     1      -5.717   7.447   3.313  0.00  0.00    +0.046 A 
ATOM     26  C   UNL     1      -4.965   7.028   2.232  0.00  0.00    +0.012 A 
BRANCH  24  27
ATOM     27  O   UNL     1      -7.603   8.617   4.171  0.00  0.00    -0.490 OA
BRANCH  27  28
ATOM     28  C   UNL     1      -8.769   9.392   3.886  0.00  0.00    +0.256 C 
BRANCH  28  29
ATOM     29  C   UNL     1      -9.467   9.762   5.196  0.00  0.00    +0.196 C 
BRANCH  29  30
ATOM     30  O   UNL     1      -8.620  10.621   5.962  0.00  0.00    -0.392 OA
ATOM     31  H   UNL     1      -9.000  10.896   6.807  0.00  0.00    +0.210 HD
ENDBRANCH  29  30
ENDBRANCH  28  29
ENDBRANCH  27  28
ENDBRANCH  24  27
ENDBRANCH  13  21
TORSDOF 6
