REMARK  Name = ZINC14468761
REMARK  11 active torsions:
REMARK  status: ('A' for Active; 'I' for Inactive)
REMARK    1  A    between atoms: C_1  and  C_2
REMARK    2  A    between atoms: C_6  and  C_40
REMARK    3  A    between atoms: C_7  and  N_8
REMARK    4  A    between atoms: N_8  and  S_9
REMARK    5  A    between atoms: S_9  and  C_12
REMARK    6  A    between atoms: C_25  and  C_28
REMARK    7  A    between atoms: C_31  and  O_36
REMARK    8  A    between atoms: C_32  and  O_34
REMARK    9  A    between atoms: O_34  and  C_35
REMARK   10  A    between atoms: O_36  and  C_37
REMARK   11  A    between atoms: C_37  and  C_39
REMARK                            x       y       z     vdW  Elec       q    Type
REMARK                         _______ _______ _______ _____ _____    ______ ____
ROOT
ATOM      1  C   UNL     1      -0.640  -3.575  -0.545  0.00  0.00    +0.109 A 
ATOM      2  C   UNL     1      -0.981  -3.102   0.710  0.00  0.00    +0.030 A 
ATOM      3  C   UNL     1      -1.200  -1.754   0.906  0.00  0.00    +0.025 A 
ATOM      4  C   UNL     1      -1.081  -0.862  -0.153  0.00  0.00    +0.031 A 
ATOM      5  C   UNL     1      -0.723  -1.346  -1.416  0.00  0.00    -0.018 A 
ATOM      6  C   UNL     1      -0.512  -2.695  -1.603  0.00  0.00    +0.034 A 
ATOM      7  C   UNL     1      -0.584  -0.361  -2.510  0.00  0.00    +0.049 C 
ATOM      8  C   UNL     1      -0.781  -0.750  -3.930  0.00  0.00    -0.023 C 
ATOM      9  C   UNL     1      -1.270   0.292  -4.591  0.00  0.00    -0.030 C 
ATOM     10  C   UNL     1      -1.470   1.470  -3.636  0.00  0.00    +0.033 C 
ATOM     11  C   UNL     1      -1.653   0.752  -2.293  0.00  0.00    +0.029 C 
ATOM     12  C   UNL     1      -1.213   1.497  -1.045  0.00  0.00    +0.105 C 
ATOM     13  N   UNL     1      -1.320   0.520   0.061  0.00  0.00    -0.336 N 
ATOM     14  H   UNL     1      -1.577   0.828   0.944  0.00  0.00    +0.147 HD
ENDROOT
BRANCH  12  15
ATOM     15  C   UNL     1       0.212   1.963  -1.192  0.00  0.00    -0.023 A 
ATOM     16  C   UNL     1       1.248   1.172  -0.729  0.00  0.00    +0.009 A 
ATOM     17  C   UNL     1       2.557   1.593  -0.867  0.00  0.00    +0.050 A 
ATOM     18  C   UNL     1       2.834   2.812  -1.464  0.00  0.00    +0.173 A 
ATOM     19  C   UNL     1       1.792   3.611  -1.925  0.00  0.00    +0.163 A 
ATOM     20  C   UNL     1       0.481   3.183  -1.784  0.00  0.00    +0.055 A 
BRANCH  19  21
ATOM     21  O   UNL     1       2.058   4.808  -2.512  0.00  0.00    -0.491 OA
ATOM     22  C   UNL     1       0.939   5.574  -2.960  0.00  0.00    +0.277 C 
ENDBRANCH  19  21
BRANCH  18  23
ATOM     23  O   UNL     1       4.122   3.228  -1.600  0.00  0.00    -0.422 OA
BRANCH  23  24
ATOM     24  C   UNL     1       4.578   4.106  -0.693  0.00  0.00    +0.309 C 
ATOM     25  O   UNL     1       3.884   4.421   0.245  0.00  0.00    -0.251 OA
ATOM     26  C   UNL     1       5.954   4.700  -0.845  0.00  0.00    +0.136 C 
ENDBRANCH  23  24
ENDBRANCH  18  23
ENDBRANCH  12  15
BRANCH   1  27
ATOM     27  S   UNL     1      -0.369  -5.298  -0.793  0.00  0.00    +0.072 S 
ATOM     28  O   UNL     1      -1.175  -5.977   0.161  0.00  0.00    -0.150 OA
ATOM     29  O   UNL     1      -0.484  -5.530  -2.190  0.00  0.00    -0.150 OA
BRANCH  27  30
ATOM     30  N   UNL     1       1.206  -5.609  -0.390  0.00  0.00    -0.216 N 
ATOM     31  H   UNL     1       1.843  -5.858  -1.078  0.00  0.00    +0.174 HD
BRANCH  30  38
ATOM     32  C   UNL     1       2.753  -3.347   0.376  0.00  0.00    +0.046 C 
ATOM     33  C   UNL     1       2.376  -4.425   1.359  0.00  0.00    -0.028 A 
ATOM     34  C   UNL     1       2.777  -4.331   2.677  0.00  0.00    +0.005 A 
ATOM     35  C   UNL     1       2.436  -5.322   3.578  0.00  0.00    +0.001 A 
ATOM     36  C   UNL     1       1.687  -6.409   3.165  0.00  0.00    +0.005 A 
ATOM     37  C   UNL     1       1.277  -6.507   1.850  0.00  0.00    -0.028 A 
ATOM     38  C   UNL     1       1.618  -5.513   0.941  0.00  0.00    +0.054 A 
ATOM     39  C   UNL     1       0.461  -7.691   1.400  0.00  0.00    +0.046 C 
ENDBRANCH  30  38
ENDBRANCH  27  30
ENDBRANCH   1  27
TORSDOF 7
