REMARK  Name = ZINC03312023
REMARK  13 active torsions:
REMARK  status: ('A' for Active; 'I' for Inactive)
REMARK    1  A    between atoms: C_1  and  C_2
REMARK    2  A    between atoms: C_4  and  C_18
REMARK    3  A    between atoms: C_5  and  C_17
REMARK    4  A    between atoms: N_6  and  C_7
REMARK    5  A    between atoms: C_10  and  O_13
REMARK    6  A    between atoms: O_13  and  C_14
REMARK    7  A    between atoms: C_18  and  C_20
REMARK    8  A    between atoms: C_20  and  C_22
REMARK    9  A    between atoms: C_20  and  S_23
REMARK   10  A    between atoms: S_23  and  C_24
REMARK   11  A    between atoms: C_27  and  C_30
REMARK   12  A    between atoms: N_28  and  N_29
REMARK   13  A    between atoms: C_30  and  C_31
REMARK                            x       y       z     vdW  Elec       q    Type
REMARK                         _______ _______ _______ _____ _____    ______ ____
ROOT
ATOM      1  C   UNL     1      -1.719   5.086   0.162  0.00  0.00    +0.178 C 
ATOM      2  O   UNL     1      -2.856   4.862  -0.199  0.00  0.00    -0.291 OA
ENDROOT
BRANCH   1   6
ATOM      3  C   UNL     1       0.882   8.952   2.224  0.00  0.00    +0.064 C 
ATOM      4  C   UNL     1      -0.208   8.091   1.640  0.00  0.00    +0.022 A 
ATOM      5  C   UNL     1      -0.058   6.825   1.217  0.00  0.00    +0.034 A 
ATOM      6  C   UNL     1      -1.374   6.392   0.728  0.00  0.00    +0.040 A 
ATOM      7  C   UNL     1      -2.221   7.468   0.918  0.00  0.00    +0.031 A 
ATOM      8  N   UNL     1      -1.508   8.472   1.463  0.00  0.00    -0.317 N 
ATOM      9  C   UNL     1      -3.688   7.509   0.574  0.00  0.00    +0.064 C 
BRANCH   8  10
ATOM     10  C   UNL     1      -2.027   9.731   1.800  0.00  0.00    +0.047 A 
ATOM     11  C   UNL     1      -2.494  10.579   0.806  0.00  0.00    +0.030 A 
ATOM     12  C   UNL     1      -3.009  11.816   1.139  0.00  0.00    +0.048 A 
ATOM     13  C   UNL     1      -3.051  12.215   2.467  0.00  0.00    +0.127 A 
ATOM     14  C   UNL     1      -2.580  11.370   3.462  0.00  0.00    +0.048 A 
ATOM     15  C   UNL     1      -2.069  10.130   3.129  0.00  0.00    +0.030 A 
BRANCH  13  16
ATOM     16  O   UNL     1      -3.553  13.435   2.795  0.00  0.00    -0.434 OA
BRANCH  16  17
ATOM     17  C   UNL     1      -4.020  14.254   1.721  0.00  0.00    +0.541 C 
ATOM     18  F   UNL     1      -2.967  14.506   0.835  0.00  0.00    -0.166 F 
ATOM     19  F   UNL     1      -5.051  13.593   1.045  0.00  0.00    -0.166 F 
ENDBRANCH  16  17
ENDBRANCH  13  16
ENDBRANCH   8  10
ENDBRANCH   1   6
BRANCH   1  20
ATOM     20  C   UNL     1      -0.662   4.020   0.027  0.00  0.00    +0.122 C 
ATOM     21  C   UNL     1       0.102   4.223  -1.283  0.00  0.00    +0.028 C 
BRANCH  20  22
ATOM     22  S   UNL     1      -1.447   2.389   0.022  0.00  0.00    -0.073 S 
BRANCH  22  23
ATOM     23  C   UNL     1      -0.016   1.361   0.009  0.00  0.00    +0.209 A 
ATOM     24  N   UNL     1       1.233   1.763  -0.000  0.00  0.00    -0.121 NA
ATOM     25  N   UNL     1       2.019   0.745  -0.013  0.00  0.00    -0.132 NA
ATOM     26  C   UNL     1       1.323  -0.356  -0.013  0.00  0.00    +0.155 A 
ATOM     27  N   UNL     1       0.002  -0.004   0.002  0.00  0.00    -0.228 N 
BRANCH  27  28
ATOM     28  N   UNL     1      -1.075  -0.844   0.008  0.00  0.00    -0.295 N 
ATOM     29  H   UNL     1      -1.369  -1.061  -0.933  0.00  0.00    +0.163 HD
ATOM     30  H   UNL     1      -0.876  -1.685   0.528  0.00  0.00    +0.163 HD
ENDBRANCH  27  28
BRANCH  26  31
ATOM     31  C   UNL     1       1.873  -1.760  -0.025  0.00  0.00    +0.116 C 
BRANCH  31  32
ATOM     32  C   UNL     1       2.043  -2.220  -1.450  0.00  0.00    -0.005 A 
ATOM     33  C   UNL     1       3.290  -2.183  -2.045  0.00  0.00    +0.007 A 
ATOM     34  C   UNL     1       3.446  -2.606  -3.351  0.00  0.00    +0.000 A 
ATOM     35  C   UNL     1       2.355  -3.065  -4.066  0.00  0.00    +0.003 A 
ATOM     36  C   UNL     1       1.107  -3.103  -3.473  0.00  0.00    +0.038 A 
ATOM     37  C   UNL     1       0.951  -2.684  -2.163  0.00  0.00    +0.127 A 
ATOM     38  F   UNL     1      -0.268  -2.725  -1.581  0.00  0.00    -0.205 F 
ENDBRANCH  31  32
ENDBRANCH  26  31
ENDBRANCH  22  23
ENDBRANCH  20  22
ENDBRANCH   1  20
TORSDOF 10
