REMARK  Name = ZINC45830097
REMARK  9 active torsions:
REMARK  status: ('A' for Active; 'I' for Inactive)
REMARK    1  A    between atoms: C_1  and  C_2
REMARK    2  A    between atoms: C_2  and  C_3
REMARK    3  A    between atoms: C_3  and  C_5
REMARK    4  A    between atoms: C_3  and  N_12
REMARK    5  A    between atoms: C_13  and  C_15
REMARK    6  A    between atoms: C_15  and  S_16
REMARK    7  A    between atoms: S_16  and  C_17
REMARK    8  A    between atoms: C_20  and  C_23
REMARK    9  A    between atoms: N_21  and  N_22
REMARK                            x       y       z     vdW  Elec       q    Type
REMARK                         _______ _______ _______ _____ _____    ______ ____
ROOT
ATOM      1  S   UNL     1      -4.240   3.037  -2.379  0.00  0.00    -0.075 S 
ENDROOT
BRANCH   1   2
ATOM      2  C   UNL     1      -4.897   3.406  -3.971  0.00  0.00    +0.209 A 
ATOM      3  N   UNL     1      -4.802   2.657  -5.047  0.00  0.00    -0.121 NA
ATOM      4  N   UNL     1      -5.394   3.227  -6.035  0.00  0.00    -0.127 NA
ATOM      5  C   UNL     1      -5.903   4.374  -5.652  0.00  0.00    +0.183 A 
ATOM      6  N   UNL     1      -5.606   4.522  -4.316  0.00  0.00    -0.224 N 
BRANCH   5   7
ATOM      7  C   UNL     1      -6.658   5.326  -6.494  0.00  0.00    +0.035 A 
ATOM      8  C   UNL     1      -6.340   6.685  -6.473  0.00  0.00    +0.013 A 
ATOM      9  C   UNL     1      -7.049   7.568  -7.262  0.00  0.00    +0.001 A 
ATOM     10  C   UNL     1      -8.072   7.109  -8.072  0.00  0.00    +0.001 A 
ATOM     11  C   UNL     1      -8.393   5.764  -8.098  0.00  0.00    +0.016 A 
ATOM     12  C   UNL     1      -7.688   4.869  -7.318  0.00  0.00    +0.029 A 
ATOM     13 BR   UNL     1      -8.123   3.029  -7.360  0.00  0.00    -0.050 Br
ENDBRANCH   5   7
BRANCH   6  14
ATOM     14  N   UNL     1      -5.945   5.567  -3.506  0.00  0.00    -0.295 N 
ATOM     15  H   UNL     1      -5.276   6.319  -3.585  0.00  0.00    +0.163 HD
ATOM     16  H   UNL     1      -6.879   5.892  -3.707  0.00  0.00    +0.163 HD
ENDBRANCH   6  14
ENDBRANCH   1   2
BRANCH   1  17
ATOM     17  C   UNL     1      -3.426   1.431  -2.602  0.00  0.00    +0.173 C 
BRANCH  17  19
ATOM     18  N   UNL     1      -2.152  -0.179  -1.222  0.00  0.00    -0.308 N 
ATOM     19  C   UNL     1      -2.813   0.993  -1.297  0.00  0.00    +0.224 C 
ATOM     20  O   UNL     1      -2.916   1.694  -0.313  0.00  0.00    -0.275 OA
ATOM     21  H   UNL     1      -2.070  -0.741  -2.009  0.00  0.00    +0.149 HD
BRANCH  18  22
ATOM     22  C   UNL     1      -1.556  -0.605   0.046  0.00  0.00    +0.103 C 
BRANCH  22  23
ATOM     23  C   UNL     1      -1.435  -2.107   0.065  0.00  0.00    -0.027 A 
ATOM     24  C   UNL     1      -1.042  -2.783  -1.075  0.00  0.00    +0.007 A 
ATOM     25  C   UNL     1      -0.931  -4.161  -1.058  0.00  0.00    +0.020 A 
ATOM     26  C   UNL     1      -1.214  -4.863   0.100  0.00  0.00    +0.041 A 
ATOM     27  C   UNL     1      -1.607  -4.186   1.241  0.00  0.00    +0.020 A 
ATOM     28  C   UNL     1      -1.712  -2.808   1.224  0.00  0.00    +0.007 A 
ATOM     29 CL   UNL     1      -1.075  -6.594   0.122  0.00  0.00    -0.084 Cl
ENDBRANCH  22  23
BRANCH  22  31
ATOM     30  C   UNL     1      -0.301   1.540   0.299  0.00  0.00    +0.006 C 
ATOM     31  C   UNL     1      -0.168   0.020   0.193  0.00  0.00    +0.024 C 
ENDBRANCH  22  31
ENDBRANCH  18  22
ENDBRANCH  17  19
ENDBRANCH   1  17
TORSDOF 8
