REMARK  Name = ZINC50017156
REMARK  4 active torsions:
REMARK  status: ('A' for Active; 'I' for Inactive)
REMARK    1  A    between atoms: C_2  and  C_12
REMARK    2  A    between atoms: C_3  and  N_9
REMARK    3  A    between atoms: C_19  and  C_21
REMARK    4  A    between atoms: C_21  and  O_22
REMARK                            x       y       z     vdW  Elec       q    Type
REMARK                         _______ _______ _______ _____ _____    ______ ____
ROOT
ATOM      1  C   UNL     1       0.308   1.752  -0.650  0.00  0.00    +0.056 A 
ATOM      2  C   UNL     1       1.052   2.395   0.342  0.00  0.00    +0.070 A 
ATOM      3  C   UNL     1       1.644   1.645   1.359  0.00  0.00    +0.141 A 
ATOM      4  C   UNL     1       1.492   0.274   1.382  0.00  0.00    +0.074 A 
ATOM      5  C   UNL     1       0.753  -0.360   0.396  0.00  0.00    +0.161 A 
ATOM      6  C   UNL     1       0.161   0.381  -0.619  0.00  0.00    +0.159 A 
ATOM      7  F   UNL     1      -0.559  -0.243  -1.577  0.00  0.00    -0.202 F 
ATOM      8  F   UNL     1       0.608  -1.703   0.422  0.00  0.00    -0.202 F 
ENDROOT
BRANCH   2   9
ATOM      9  C   UNL     1       1.213   3.863   0.314  0.00  0.00    +0.249 C 
ATOM     10  O   UNL     1       2.326   4.352   0.315  0.00  0.00    -0.270 OA
ATOM     11  N   UNL     1       0.127   4.660   0.287  0.00  0.00    -0.292 N 
ATOM     12  C   UNL     1      -1.222   4.090   0.406  0.00  0.00    +0.108 C 
ATOM     13  C   UNL     1      -1.959   4.802   1.546  0.00  0.00    +0.019 C 
ATOM     14  C   UNL     1      -1.934   6.312   1.299  0.00  0.00    +0.003 C 
ATOM     15  C   UNL     1      -0.484   6.804   1.279  0.00  0.00    +0.025 C 
ATOM     16  C   UNL     1       0.269   6.115   0.143  0.00  0.00    +0.102 C 
BRANCH  16  17
ATOM     17  C   UNL     1       1.750   6.495   0.208  0.00  0.00    +0.178 C 
BRANCH  17  18
ATOM     18  O   UNL     1       2.259   6.203   1.510  0.00  0.00    -0.393 OA
ATOM     19  H   UNL     1       3.195   6.419   1.624  0.00  0.00    +0.209 HD
ENDBRANCH  17  18
ENDBRANCH  16  17
ENDBRANCH   2   9
BRANCH   3  20
ATOM     20  N   UNL     1       2.435   2.319   2.413  0.00  0.00    +0.057 N 
ATOM     21  O   UNL     1       3.035   1.663   3.232  0.00  0.00    -0.126 OA
ATOM     22  O   UNL     1       2.481   3.527   2.455  0.00  0.00    -0.126 OA
ENDBRANCH   3  20
TORSDOF 4
