REMARK  Name = ZINC12313110
REMARK  7 active torsions:
REMARK  status: ('A' for Active; 'I' for Inactive)
REMARK    1  A    between atoms: C_1  and  C_2
REMARK    2  A    between atoms: C_5  and  N_12
REMARK    3  A    between atoms: C_8  and  C_10
REMARK    4  A    between atoms: C_8  and  C_11
REMARK    5  A    between atoms: C_13  and  C_15
REMARK    6  A    between atoms: N_17  and  C_18
REMARK    7  A    between atoms: N_22  and  C_23
REMARK                            x       y       z     vdW  Elec       q    Type
REMARK                         _______ _______ _______ _____ _____    ______ ____
ROOT
ATOM      1  C   UNL     1       2.655   3.669  -1.201  0.00  0.00    +0.304 C 
ATOM      2  O   UNL     1       1.668   3.455  -0.527  0.00  0.00    -0.265 OA
ATOM      3  N   UNL     1       3.659   2.770  -1.229  0.00  0.00    -0.262 N 
ATOM      4  H   UNL     1       4.481   2.975  -1.702  0.00  0.00    +0.157 HD
ENDROOT
BRANCH   3   5
ATOM      5  C   UNL     1       3.517   1.547  -0.581  0.00  0.00    +0.133 A 
ATOM      6  C   UNL     1       2.332   0.890  -0.334  0.00  0.00    +0.026 A 
ATOM      7  C   UNL     1       2.631  -0.287   0.330  0.00  0.00    +0.079 A 
ATOM      8  N   UNL     1       3.946  -0.358   0.481  0.00  0.00    -0.168 NA
ATOM      9  N   UNL     1       4.520   0.785  -0.078  0.00  0.00    -0.218 N 
ATOM     10  C   UNL     1       1.451  -1.183   0.706  0.00  0.00    +0.127 C 
ATOM     11  S   UNL     1       0.105  -0.491  -0.340  0.00  0.00    -0.150 S 
ATOM     12  C   UNL     1       0.856   1.165  -0.617  0.00  0.00    +0.110 C 
BRANCH   9  13
ATOM     13  C   UNL     1       5.888   1.088  -0.117  0.00  0.00    +0.068 A 
ATOM     14  C   UNL     1       6.689   0.833   0.988  0.00  0.00    +0.029 A 
ATOM     15  C   UNL     1       8.035   1.138   0.949  0.00  0.00    +0.022 A 
ATOM     16  C   UNL     1       8.588   1.688  -0.194  0.00  0.00    +0.041 A 
ATOM     17  C   UNL     1       7.792   1.942  -1.297  0.00  0.00    +0.022 A 
ATOM     18  C   UNL     1       6.444   1.644  -1.261  0.00  0.00    +0.029 A 
ATOM     19 CL   UNL     1      10.282   2.064  -0.242  0.00  0.00    -0.084 Cl
ENDBRANCH   9  13
ENDBRANCH   3   5
BRANCH   1  21
ATOM     20  N   UNL     1       1.754   5.826  -1.969  0.00  0.00    -0.305 N 
ATOM     21  C   UNL     1       2.757   4.927  -1.997  0.00  0.00    +0.300 C 
ATOM     22  O   UNL     1       3.744   5.141  -2.671  0.00  0.00    -0.265 OA
ATOM     23  H   UNL     1       0.965   5.655  -1.431  0.00  0.00    +0.149 HD
BRANCH  20  27
ATOM     24  C   UNL     1       3.494  10.454  -1.960  0.00  0.00    +0.007 C 
ATOM     25  C   UNL     1       2.726   9.402  -2.763  0.00  0.00    -0.012 C 
ATOM     26  C   UNL     1       2.622   8.113  -1.947  0.00  0.00    +0.025 C 
ATOM     27  C   UNL     1       1.854   7.061  -2.750  0.00  0.00    +0.074 C 
ATOM     28  C   UNL     1       0.449   7.583  -3.062  0.00  0.00    +0.028 C 
ATOM     29  C   UNL     1       0.554   8.873  -3.878  0.00  0.00    -0.033 C 
ATOM     30  C   UNL     1       1.322   9.924  -3.075  0.00  0.00    +0.009 C 
ATOM     31  C   UNL     1      -0.850   9.394  -4.190  0.00  0.00    +0.011 C 
ATOM     32  C   UNL     1       1.295   8.589  -5.187  0.00  0.00    +0.011 C 
ENDBRANCH  20  27
ENDBRANCH   1  21
TORSDOF 4
