REMARK  Name = ZINC65217084
REMARK  8 active torsions:
REMARK  status: ('A' for Active; 'I' for Inactive)
REMARK    1  A    between atoms: C_1  and  C_2
REMARK    2  A    between atoms: C_2  and  C_3
REMARK    3  A    between atoms: C_6  and  C_15
REMARK    4  A    between atoms: C_8  and  C_14
REMARK    5  A    between atoms: C_15  and  N_16
REMARK    6  A    between atoms: C_17  and  C_19
REMARK    7  A    between atoms: C_19  and  C_20
REMARK    8  A    between atoms: C_20  and  C_21
REMARK                            x       y       z     vdW  Elec       q    Type
REMARK                         _______ _______ _______ _____ _____    ______ ____
ROOT
ATOM      1  N   UNL     1       4.073   1.338  -3.838  0.00  0.00    -0.313 N 
ATOM      2  C   UNL     1       5.347   1.762  -3.718  0.00  0.00    +0.213 C 
ATOM      3  O   UNL     1       6.227   1.227  -4.360  0.00  0.00    -0.276 OA
ATOM      4  H   UNL     1       3.370   1.765  -3.326  0.00  0.00    +0.149 HD
ENDROOT
BRANCH   1   5
ATOM      5  C   UNL     1       3.752   0.232  -4.744  0.00  0.00    +0.129 C 
BRANCH   5   9
ATOM      6  C   UNL     1       0.707  -0.490  -1.238  0.00  0.00    +0.095 C 
ATOM      7  N   UNL     1       1.238   0.216  -2.180  0.00  0.00    -0.180 NA
ATOM      8  N   UNL     1       1.822  -0.332  -3.302  0.00  0.00    -0.222 N 
ATOM      9  C   UNL     1       2.248  -0.048  -4.693  0.00  0.00    +0.129 C 
ATOM     10  C   UNL     1       1.911  -1.337  -5.476  0.00  0.00    +0.077 C 
ATOM     11  N   UNL     1       1.415  -2.300  -4.454  0.00  0.00    -0.284 NA
ATOM     12  C   UNL     1       2.041  -1.810  -3.209  0.00  0.00    +0.225 C 
ATOM     13  S   UNL     1       1.010  -2.178  -1.742  0.00  0.00    -0.069 S 
ATOM     14  C   UNL     1       0.823  -1.057  -6.515  0.00  0.00    +0.026 C 
ATOM     15  H   UNL     1       0.409  -2.272  -4.388  0.00  0.00    +0.125 HD
BRANCH   6  17
ATOM     16  C   UNL     1      -0.019   1.526   0.010  0.00  0.00    +0.011 C 
ATOM     17  C   UNL     1       0.002  -0.004   0.002  0.00  0.00    +0.061 C 
ENDBRANCH   6  17
ENDBRANCH   5   9
ENDBRANCH   1   5
BRANCH   2  18
ATOM     18  C   UNL     1       5.678   2.899  -2.787  0.00  0.00    +0.100 C 
BRANCH  18  19
ATOM     19  C   UNL     1       7.182   3.179  -2.838  0.00  0.00    +0.042 C 
BRANCH  19  20
ATOM     20  C   UNL     1       7.513   4.316  -1.906  0.00  0.00    -0.041 C 
ATOM     21  C   UNL     1       7.945   4.221  -0.628  0.00  0.00    -0.001 A 
ATOM     22  C   UNL     1       8.225   3.074   0.244  0.00  0.00    +0.010 A 
ATOM     23  C   UNL     1       8.655   3.300   1.506  0.00  0.00    +0.001 A 
ATOM     24  C   UNL     1       8.840   4.598   2.001  0.00  0.00    +0.002 A 
ATOM     25  C   UNL     1       8.604   5.701   1.260  0.00  0.00    +0.026 A 
ATOM     26  C   UNL     1       8.149   5.582  -0.082  0.00  0.00    +0.043 A 
ATOM     27  N   UNL     1       7.854   6.483  -0.987  0.00  0.00    -0.380 N 
ATOM     28  C   UNL     1       7.435   5.795  -2.213  0.00  0.00    +0.144 C 
ATOM     29  H   UNL     1       7.907   7.444  -0.867  0.00  0.00    +0.160 HD
ENDBRANCH  19  20
ENDBRANCH  18  19
ENDBRANCH   2  18
TORSDOF 6
