REMARK  Name = ZINC10031580
REMARK  17 active torsions:
REMARK  status: ('A' for Active; 'I' for Inactive)
REMARK    1  A    between atoms: C_1  and  C_2
REMARK    2  A    between atoms: C_2  and  C_3
REMARK    3  A    between atoms: C_6  and  C_9
REMARK    4  A    between atoms: C_9  and  C_11
REMARK    5  A    between atoms: C_9  and  N_64
REMARK    6  A    between atoms: C_11  and  C_12
REMARK    7  A    between atoms: C_11  and  C_13
REMARK    8  A    between atoms: C_14  and  C_15
REMARK    9  A    between atoms: C_14  and  N_64
REMARK   10  A    between atoms: N_17  and  C_18
REMARK   11  A    between atoms: C_19  and  C_28
REMARK   12  A    between atoms: C_20  and  C_27
REMARK   13  A    between atoms: C_21  and  C_23
REMARK   14  A    between atoms: N_25  and  C_26
REMARK   15  A    between atoms: C_28  and  O_30
REMARK   16  A    between atoms: O_30  and  C_31
REMARK   17  A    between atoms: C_31  and  C_32
REMARK                            x       y       z     vdW  Elec       q    Type
REMARK                         _______ _______ _______ _____ _____    ______ ____
ROOT
ATOM      1  C   UNL     1      -1.773  -2.688   0.320  0.00  0.00    +0.201 C 
ATOM      2  O   UNL     1      -1.904  -3.138   1.438  0.00  0.00    -0.278 OA
ATOM      3  N   UNL     1      -1.626  -3.521  -0.729  0.00  0.00    -0.281 N 
ATOM      4  H   UNL     1      -1.521  -3.161  -1.624  0.00  0.00    +0.155 HD
ENDROOT
BRANCH   3   5
ATOM      5  C   UNL     1      -1.623  -4.888  -0.530  0.00  0.00    +0.087 A 
ATOM      6  C   UNL     1      -1.485  -5.907  -1.479  0.00  0.00    +0.091 A 
ATOM      7  C   UNL     1      -1.515  -7.218  -1.027  0.00  0.00    -0.015 A 
ATOM      8  C   UNL     1      -1.679  -7.423   0.316  0.00  0.00    +0.079 A 
ATOM      9  S   UNL     1      -1.784  -5.763   0.957  0.00  0.00    -0.068 S 
ATOM     10  C   UNL     1      -1.373  -8.375  -1.981  0.00  0.00    +0.046 C 
BRANCH   8  11
ATOM     11  C   UNL     1      -1.744  -8.691   1.046  0.00  0.00    +0.251 C 
ATOM     12  O   UNL     1      -1.648  -9.745   0.444  0.00  0.00    -0.270 OA
ATOM     13  N   UNL     1      -1.911  -8.691   2.383  0.00  0.00    -0.314 N 
ATOM     14  C   UNL     1      -1.977  -9.960   3.113  0.00  0.00    +0.128 C 
ATOM     15  H   UNL     1      -1.988  -7.851   2.862  0.00  0.00    +0.149 HD
ENDBRANCH   8  11
BRANCH   6  16
ATOM     16  C   UNL     1      -1.313  -5.599  -2.903  0.00  0.00    +0.342 C 
ATOM     17  O   UNL     1      -0.198  -5.451  -3.363  0.00  0.00    -0.245 OA
BRANCH  16  18
ATOM     18  O   UNL     1      -2.393  -5.481  -3.702  0.00  0.00    -0.461 OA
BRANCH  18  19
ATOM     19  C   UNL     1      -2.148  -5.175  -5.100  0.00  0.00    +0.229 C 
ATOM     20  C   UNL     1      -3.483  -5.080  -5.843  0.00  0.00    +0.048 C 
ENDBRANCH  18  19
ENDBRANCH  16  18
ENDBRANCH   6  16
ENDBRANCH   3   5
BRANCH   1  21
ATOM     21  C   UNL     1      -1.776  -1.196   0.102  0.00  0.00    +0.016 C 
BRANCH  21  22
ATOM     22  N   UNL     1      -1.951  -0.519   1.401  0.00  0.00    +0.389 N 
ATOM     23  H   UNL     1      -2.795  -0.880   1.860  0.00  0.00    -0.084 HD
ATOM     24  H   UNL     1      -1.133  -0.706   1.993  0.00  0.00    -0.084 HD
BRANCH  22  25
ATOM     25  C   UNL     1      -2.088   0.936   1.205  0.00  0.00    -0.038 C 
BRANCH  25  29
ATOM     26  C   UNL     1      -4.321   2.584   4.453  0.00  0.00    -0.048 A 
ATOM     27  C   UNL     1      -4.533   3.041   3.165  0.00  0.00    +0.004 A 
ATOM     28  C   UNL     1      -3.810   2.508   2.115  0.00  0.00    +0.002 A 
ATOM     29  C   UNL     1      -2.875   1.518   2.351  0.00  0.00    -0.061 A 
ATOM     30  C   UNL     1      -2.667   1.057   3.638  0.00  0.00    +0.002 A 
ATOM     31  C   UNL     1      -3.386   1.594   4.689  0.00  0.00    +0.004 A 
BRANCH  26  33
ATOM     32  C   UNL     1      -6.393   2.356   5.796  0.00  0.00    +0.009 C 
ATOM     33  C   UNL     1      -5.109   3.165   5.598  0.00  0.00    +0.032 C 
ENDBRANCH  26  33
ENDBRANCH  25  29
BRANCH  25  34
ATOM     34  C   UNL     1      -0.699   1.578   1.163  0.00  0.00    -0.027 C 
ATOM     35  C   UNL     1      -0.024   1.424   2.527  0.00  0.00    +0.006 C 
ATOM     36  C   UNL     1      -0.835   3.065   0.826  0.00  0.00    +0.006 C 
ENDBRANCH  25  34
ENDBRANCH  22  25
ENDBRANCH  21  22
ENDBRANCH   1  21
TORSDOF 11
