REMARK  Name = ZINC14459872
REMARK  6 active torsions:
REMARK  status: ('A' for Active; 'I' for Inactive)
REMARK    1  A    between atoms: C_1  and  N_60
REMARK    2  A    between atoms: C_7  and  C_9
REMARK    3  A    between atoms: C_16  and  C_25
REMARK    4  A    between atoms: C_29  and  O_32
REMARK    5  A    between atoms: C_30  and  O_31
REMARK    6  A    between atoms: O_32  and  C_33
REMARK                            x       y       z     vdW  Elec       q    Type
REMARK                         _______ _______ _______ _____ _____    ______ ____
ROOT
ATOM      1  C   UNL     1      -1.901   2.695  -0.922  0.00  0.00    +0.058 A 
ATOM      2  C   UNL     1      -2.456   3.970  -1.035  0.00  0.00    +0.015 A 
ATOM      3  C   UNL     1      -3.779   4.168  -0.706  0.00  0.00    +0.001 A 
ATOM      4  C   UNL     1      -4.554   3.109  -0.268  0.00  0.00    +0.006 A 
ATOM      5  C   UNL     1      -4.021   1.834  -0.150  0.00  0.00    -0.019 A 
ATOM      6  C   UNL     1      -2.694   1.618  -0.480  0.00  0.00    +0.044 A 
ATOM      7  N   UNL     1      -2.098   0.371  -0.373  0.00  0.00    -0.336 N 
ATOM      8  C   UNL     1      -3.066  -0.718  -0.504  0.00  0.00    +0.109 C 
ATOM      9  C   UNL     1      -4.143  -0.573   0.574  0.00  0.00    +0.029 C 
ATOM     10  C   UNL     1      -4.925   0.735   0.327  0.00  0.00    +0.049 C 
ATOM     11  C   UNL     1      -5.928   0.369  -0.743  0.00  0.00    -0.023 C 
ATOM     12  C   UNL     1      -6.110  -0.927  -0.776  0.00  0.00    -0.030 C 
ATOM     13  C   UNL     1      -5.260  -1.612   0.276  0.00  0.00    +0.033 C 
ATOM     14  H   UNL     1      -1.575   0.289   0.486  0.00  0.00    +0.147 HD
ENDROOT
BRANCH   1  21
ATOM     15  C   UNL     1       3.148   5.377   1.521  0.00  0.00    -0.096 C 
ATOM     16  C   UNL     1       2.638   3.554   0.012  0.00  0.00    -0.060 C 
ATOM     17  C   UNL     1       1.860   3.188  -1.257  0.00  0.00    +0.089 C 
ATOM     18  N   UNL     1       0.429   3.428  -1.014  0.00  0.00    -0.301 N 
ATOM     19  C   UNL     1       0.024   4.740  -0.486  0.00  0.00    +0.089 C 
ATOM     20  C   UNL     1       0.874   5.043   0.758  0.00  0.00    -0.060 C 
ATOM     21  C   UNL     1      -0.486   2.473  -1.272  0.00  0.00    +0.248 C 
ATOM     22  O   UNL     1      -0.146   1.431  -1.799  0.00  0.00    -0.270 OA
ATOM     23  N   UNL     1       2.303   4.945   0.388  0.00  0.00    +0.380 N 
ATOM     24  H   UNL     1       2.482   5.559  -0.414  0.00  0.00    -0.082 HD
ENDBRANCH   1  21
BRANCH   8  25
ATOM     25  C   UNL     1      -3.708  -0.658  -1.866  0.00  0.00    +0.018 A 
ATOM     26  C   UNL     1      -3.913   0.563  -2.481  0.00  0.00    +0.009 A 
ATOM     27  C   UNL     1      -4.501   0.621  -3.731  0.00  0.00    +0.004 A 
ATOM     28  C   UNL     1      -4.887  -0.543  -4.371  0.00  0.00    +0.049 A 
ATOM     29  C   UNL     1      -4.685  -1.769  -3.760  0.00  0.00    +0.162 A 
ATOM     30  C   UNL     1      -4.088  -1.828  -2.504  0.00  0.00    +0.163 A 
BRANCH  30  31
ATOM     31  O   UNL     1      -3.881  -3.030  -1.903  0.00  0.00    -0.503 OA
ATOM     32  H   UNL     1      -4.661  -3.383  -1.452  0.00  0.00    +0.292 HD
ENDBRANCH  30  31
BRANCH  29  33
ATOM     33  O   UNL     1      -5.064  -2.914  -4.388  0.00  0.00    -0.491 OA
ATOM     34  C   UNL     1      -5.665  -2.778  -5.678  0.00  0.00    +0.277 C 
ENDBRANCH  29  33
ENDBRANCH   8  25
TORSDOF 4
