REMARK  Name = ZINC38713560
REMARK  13 active torsions:
REMARK  status: ('A' for Active; 'I' for Inactive)
REMARK    1  A    between atoms: C_1  and  C_2
REMARK    2  A    between atoms: C_2  and  N_3
REMARK    3  A    between atoms: N_3  and  C_4
REMARK    4  A    between atoms: N_3  and  C_6
REMARK    5  A    between atoms: C_4  and  C_5
REMARK    6  A    between atoms: C_6  and  C_7
REMARK    7  A    between atoms: C_7  and  C_8
REMARK    8  A    between atoms: C_8  and  N_9
REMARK    9  A    between atoms: C_10  and  C_29
REMARK   10  A    between atoms: C_32  and  C_35
REMARK   11  A    between atoms: C_35  and  C_36
REMARK   12  A    between atoms: C_35  and  C_37
REMARK   13  A    between atoms: C_35  and  C_38
REMARK                            x       y       z     vdW  Elec       q    Type
REMARK                         _______ _______ _______ _____ _____    ______ ____
ROOT
ATOM      1  N   UNL     1       2.127  -4.497  -3.857  0.00  0.00    -0.284 N 
ATOM      2  C   UNL     1       1.645  -4.630  -5.242  0.00  0.00    +0.144 C 
ATOM      3  C   UNL     1       2.810  -5.130  -6.031  0.00  0.00    +0.072 A 
ATOM      4  C   UNL     1       2.945  -5.465  -7.452  0.00  0.00    +0.199 A 
ATOM      5  O   UNL     1       2.094  -5.199  -8.283  0.00  0.00    -0.287 OA
ATOM      6  C   UNL     1       4.215  -6.156  -7.782  0.00  0.00    +0.065 A 
ATOM      7  C   UNL     1       4.397  -6.721  -9.057  0.00  0.00    +0.016 A 
ATOM      8  C   UNL     1       5.547  -7.362  -9.373  0.00  0.00    +0.009 A 
ATOM      9  C   UNL     1       6.583  -7.469  -8.421  0.00  0.00    -0.014 A 
ATOM     10  C   UNL     1       7.779  -8.136  -8.731  0.00  0.00    +0.008 A 
ATOM     11  C   UNL     1       8.766  -8.225  -7.796  0.00  0.00    +0.001 A 
ATOM     12  C   UNL     1       8.607  -7.664  -6.532  0.00  0.00    +0.001 A 
ATOM     13  C   UNL     1       7.458  -7.012  -6.196  0.00  0.00    +0.012 A 
ATOM     14  C   UNL     1       6.421  -6.903  -7.135  0.00  0.00    +0.025 A 
ATOM     15  C   UNL     1       5.216  -6.233  -6.810  0.00  0.00    +0.147 A 
ATOM     16  O   UNL     1       5.077  -5.694  -5.581  0.00  0.00    -0.449 OA
ATOM     17  C   UNL     1       3.866  -5.265  -5.174  0.00  0.00    +0.199 A 
ATOM     18  C   UNL     1       3.424  -4.864  -3.829  0.00  0.00    +0.283 C 
ATOM     19  O   UNL     1       4.125  -4.867  -2.836  0.00  0.00    -0.267 OA
ENDROOT
BRANCH   2  20
ATOM     20  C   UNL     1       0.510  -5.619  -5.305  0.00  0.00    -0.022 A 
ATOM     21  C   UNL     1       0.555  -6.772  -4.544  0.00  0.00    +0.006 A 
ATOM     22  C   UNL     1      -0.487  -7.679  -4.601  0.00  0.00    +0.004 A 
ATOM     23  C   UNL     1      -1.574  -7.433  -5.419  0.00  0.00    -0.042 A 
ATOM     24  C   UNL     1      -1.619  -6.279  -6.179  0.00  0.00    +0.004 A 
ATOM     25  C   UNL     1      -0.580  -5.370  -6.119  0.00  0.00    +0.006 A 
BRANCH  23  26
ATOM     26  C   UNL     1      -2.709  -8.422  -5.483  0.00  0.00    -0.013 C 
ATOM     27  C   UNL     1      -3.323  -8.583  -4.091  0.00  0.00    +0.015 C 
ATOM     28  C   UNL     1      -3.775  -7.912  -6.455  0.00  0.00    +0.015 C 
ATOM     29  C   UNL     1      -2.181  -9.773  -5.968  0.00  0.00    +0.015 C 
ENDBRANCH  23  26
ENDBRANCH   2  20
BRANCH   1  30
ATOM     30  C   UNL     1       1.336  -4.039  -2.711  0.00  0.00    +0.107 C 
BRANCH  30  31
ATOM     31  C   UNL     1       1.453  -2.519  -2.586  0.00  0.00    +0.000 C 
BRANCH  31  32
ATOM     32  C   UNL     1       0.628  -2.041  -1.389  0.00  0.00    -0.077 C 
BRANCH  32  33
ATOM     33  N   UNL     1       0.826  -0.598  -1.203  0.00  0.00    +0.379 N 
ATOM     34  H   UNL     1       1.813  -0.402  -1.119  0.00  0.00    -0.082 HD
BRANCH  33  36
ATOM     35  C   UNL     1       0.597   1.616  -2.224  0.00  0.00    -0.017 C 
ATOM     36  C   UNL     1       0.280   0.126  -2.359  0.00  0.00    -0.082 C 
ENDBRANCH  33  36
BRANCH  33  37
ATOM     37  C   UNL     1       0.136  -0.162   0.018  0.00  0.00    -0.082 C 
ATOM     38  C   UNL     1       0.810  -0.793   1.238  0.00  0.00    -0.017 C 
ENDBRANCH  33  37
ENDBRANCH  32  33
ENDBRANCH  31  32
ENDBRANCH  30  31
ENDBRANCH   1  30
TORSDOF 8
