REMARK  Name = ZINC39654206
REMARK  10 active torsions:
REMARK  status: ('A' for Active; 'I' for Inactive)
REMARK    1  A    between atoms: C_1  and  C_2
REMARK    2  A    between atoms: C_2  and  C_3
REMARK    3  A    between atoms: C_6  and  C_9
REMARK    4  A    between atoms: C_9  and  C_10
REMARK    5  A    between atoms: C_10  and  N_11
REMARK    6  A    between atoms: C_12  and  C_14
REMARK    7  A    between atoms: C_25  and  C_27
REMARK    8  A    between atoms: C_32  and  O_33
REMARK    9  A    between atoms: O_33  and  C_34
REMARK   10  A    between atoms: C_34  and  C_36
REMARK                            x       y       z     vdW  Elec       q    Type
REMARK                         _______ _______ _______ _____ _____    ______ ____
ROOT
ATOM      1  C   UNL     1       4.829  -0.304  -8.757  0.00  0.00    +0.100 C 
ATOM      2  C   UNL     1       4.027  -1.366  -9.541  0.00  0.00    +0.121 C 
ATOM      3  N   UNL     1       3.460  -0.630 -10.696  0.00  0.00    -0.296 N 
ATOM      4  C   UNL     1       4.545   0.290 -11.115  0.00  0.00    +0.115 C 
ATOM      5  C   UNL     1       5.170   0.779  -9.794  0.00  0.00    -0.004 C 
ATOM      6  C   UNL     1       6.683   0.911  -9.942  0.00  0.00    -0.010 C 
ATOM      7  C   UNL     1       6.998   2.034 -10.935  0.00  0.00    -0.082 C 
ATOM      8  N   UNL     1       6.422   3.294 -10.450  0.00  0.00    +0.379 N 
ATOM      9  C   UNL     1       4.959   3.189 -10.399  0.00  0.00    -0.082 C 
ATOM     10  C   UNL     1       4.557   2.115  -9.384  0.00  0.00    -0.010 C 
ATOM     11  C   UNL     1       2.235  -0.766 -11.242  0.00  0.00    +0.250 C 
ATOM     12  O   UNL     1       1.948  -0.153 -12.252  0.00  0.00    -0.270 OA
ATOM     13  H   UNL     1       6.776   3.491  -9.526  0.00  0.00    -0.086 HD
ATOM     14  H   UNL     1       6.682   4.043 -11.074  0.00  0.00    -0.086 HD
ENDROOT
BRANCH  11  15
ATOM     15  C   UNL     1       1.242  -1.659 -10.614  0.00  0.00    +0.079 A 
ATOM     16  C   UNL     1       1.654  -2.842  -9.995  0.00  0.00    +0.017 A 
ATOM     17  C   UNL     1       0.722  -3.671  -9.410  0.00  0.00    +0.001 A 
ATOM     18  C   UNL     1      -0.623  -3.337  -9.432  0.00  0.00    +0.004 A 
ATOM     19  C   UNL     1      -1.042  -2.171 -10.040  0.00  0.00    +0.047 A 
ATOM     20  C   UNL     1      -0.118  -1.322 -10.629  0.00  0.00    +0.144 A 
BRANCH  20  21
ATOM     21  O   UNL     1      -0.528  -0.172 -11.222  0.00  0.00    -0.425 OA
BRANCH  21  22
ATOM     22  C   UNL     1      -0.521   0.953 -10.489  0.00  0.00    +0.309 C 
ATOM     23  O   UNL     1      -0.073   0.940  -9.367  0.00  0.00    -0.251 OA
ATOM     24  C   UNL     1      -1.073   2.231 -11.065  0.00  0.00    +0.136 C 
ENDBRANCH  21  22
ENDBRANCH  20  21
ENDBRANCH  11  15
BRANCH   1  26
ATOM     25  N   UNL     1       4.574   0.729  -6.523  0.00  0.00    -0.315 N 
ATOM     26  C   UNL     1       3.987   0.277  -7.649  0.00  0.00    +0.218 C 
ATOM     27  O   UNL     1       2.782   0.338  -7.772  0.00  0.00    -0.275 OA
ATOM     28  H   UNL     1       5.537   0.680  -6.425  0.00  0.00    +0.149 HD
BRANCH  25  29
ATOM     29  C   UNL     1       3.756   1.293  -5.447  0.00  0.00    +0.109 C 
BRANCH  29  30
ATOM     30  C   UNL     1       4.661   1.727  -4.292  0.00  0.00    +0.054 C 
BRANCH  30  34
ATOM     31  C   UNL     1       2.277   3.373  -1.152  0.00  0.00    -0.048 A 
ATOM     32  C   UNL     1       2.558   2.019  -1.170  0.00  0.00    +0.004 A 
ATOM     33  C   UNL     1       3.329   1.486  -2.187  0.00  0.00    +0.004 A 
ATOM     34  C   UNL     1       3.819   2.307  -3.185  0.00  0.00    -0.046 A 
ATOM     35  C   UNL     1       3.538   3.660  -3.167  0.00  0.00    +0.004 A 
ATOM     36  C   UNL     1       2.764   4.192  -2.153  0.00  0.00    +0.004 A 
BRANCH  31  38
ATOM     37  C   UNL     1      -0.039   3.908  -0.447  0.00  0.00    +0.009 C 
ATOM     38  C   UNL     1       1.437   3.953  -0.044  0.00  0.00    +0.032 C 
ENDBRANCH  31  38
ENDBRANCH  30  34
ENDBRANCH  29  30
ENDBRANCH  25  29
ENDBRANCH   1  26
TORSDOF 8
