REMARK  Name = ZINC08399385
REMARK  7 active torsions:
REMARK  status: ('A' for Active; 'I' for Inactive)
REMARK    1  A    between atoms: C_1  and  N_2
REMARK    2  A    between atoms: N_11  and  N_12
REMARK    3  A    between atoms: C_13  and  C_14
REMARK    4  A    between atoms: C_15  and  O_34
REMARK    5  A    between atoms: C_16  and  C_21
REMARK    6  A    between atoms: N_22  and  N_23
REMARK    7  A    between atoms: N_25  and  C_33
REMARK                            x       y       z     vdW  Elec       q    Type
REMARK                         _______ _______ _______ _____ _____    ______ ____
ROOT
ATOM      1  C   UNL     1       0.001  -1.835  -5.801  0.00  0.00    +0.038 A 
ATOM      2  C   UNL     1       0.017  -3.208  -5.533  0.00  0.00    +0.134 A 
ATOM      3  C   UNL     1       0.024  -4.119  -6.596  0.00  0.00    +0.038 A 
ATOM      4  C   UNL     1       0.017  -3.651  -7.912  0.00  0.00    +0.028 A 
ATOM      5  C   UNL     1       0.002  -2.293  -8.166  0.00  0.00    +0.019 A 
ATOM      6  C   UNL     1      -0.012  -1.386  -7.124  0.00  0.00    +0.028 A 
ATOM      7 BR   UNL     1      -0.008  -1.672  -9.952  0.00  0.00    -0.050 Br
ENDROOT
BRANCH   1   9
ATOM      8  N   UNL     1       0.004  -1.285  -3.462  0.00  0.00    -0.187 NA
ATOM      9  C   UNL     1      -0.008  -0.865  -4.691  0.00  0.00    +0.142 C 
BRANCH   8  20
ATOM     10  C   UNL     1      -0.018   1.461   0.010  0.00  0.00    +0.152 C 
ATOM     11  N   UNL     1       0.002  -0.004   0.002  0.00  0.00    -0.314 N 
ATOM     12  C   UNL     1       0.009  -0.808  -1.103  0.00  0.00    +0.216 A 
ATOM     13  N   UNL     1       0.028  -2.067  -0.737  0.00  0.00    -0.213 NA
ATOM     14  C   UNL     1       0.035  -2.147   0.619  0.00  0.00    +0.091 A 
ATOM     15  C   UNL     1       0.024  -0.831   1.112  0.00  0.00    +0.070 A 
ATOM     16  C   UNL     1       0.033  -0.605   2.480  0.00  0.00    +0.028 A 
ATOM     17  C   UNL     1       0.056  -1.673   3.353  0.00  0.00    +0.002 A 
ATOM     18  C   UNL     1       0.070  -2.974   2.872  0.00  0.00    +0.002 A 
ATOM     19  C   UNL     1       0.054  -3.218   1.517  0.00  0.00    +0.030 A 
ATOM     20  N   UNL     1      -0.004  -0.363  -2.407  0.00  0.00    -0.206 N 
ATOM     21  H   UNL     1      -0.019   0.589  -2.595  0.00  0.00    +0.177 HD
ENDBRANCH   8  20
ENDBRANCH   1   9
BRANCH   3  22
ATOM     22  C   UNL     1       0.041  -5.569  -6.327  0.00  0.00    +0.142 C 
ATOM     23  N   UNL     1       0.049  -6.002  -5.103  0.00  0.00    -0.187 NA
BRANCH  23  24
ATOM     24  N   UNL     1       0.065  -7.379  -4.848  0.00  0.00    -0.206 N 
ATOM     25  C   UNL     1       0.073  -7.839  -3.548  0.00  0.00    +0.216 A 
ATOM     26  N   UNL     1       0.094  -9.155  -3.181  0.00  0.00    -0.314 N 
ATOM     27  C   UNL     1       0.096  -9.195  -1.796  0.00  0.00    +0.070 A 
ATOM     28  C   UNL     1       0.075  -7.857  -1.367  0.00  0.00    +0.091 A 
ATOM     29  N   UNL     1       0.067  -7.080  -2.480  0.00  0.00    -0.213 NA
ATOM     30  C   UNL     1       0.072  -7.575   0.002  0.00  0.00    +0.030 A 
ATOM     31  C   UNL     1       0.089  -8.607   0.913  0.00  0.00    +0.002 A 
ATOM     32  C   UNL     1       0.110  -9.925   0.483  0.00  0.00    +0.002 A 
ATOM     33  C   UNL     1       0.113 -10.221  -0.864  0.00  0.00    +0.028 A 
ATOM     34  C   UNL     1       0.111 -10.309  -4.083  0.00  0.00    +0.152 C 
ATOM     35  H   UNL     1       0.070  -8.009  -5.585  0.00  0.00    +0.177 HD
ENDBRANCH  23  24
ENDBRANCH   3  22
BRANCH   2  36
ATOM     36  O   UNL     1       0.025  -3.654  -4.251  0.00  0.00    -0.505 OA
ATOM     37  H   UNL     1      -0.857  -3.793  -3.877  0.00  0.00    +0.292 HD
ENDBRANCH   2  36
TORSDOF 5
