REMARK  Name = ZINC15106442
REMARK  8 active torsions:
REMARK  status: ('A' for Active; 'I' for Inactive)
REMARK    1  A    between atoms: C_1  and  C_2
REMARK    2  A    between atoms: C_2  and  C_3
REMARK    3  A    between atoms: C_2  and  C_4
REMARK    4  A    between atoms: C_2  and  C_5
REMARK    5  A    between atoms: C_14  and  C_20
REMARK    6  A    between atoms: C_23  and  O_28
REMARK    7  A    between atoms: C_24  and  O_26
REMARK    8  A    between atoms: O_26  and  C_27
REMARK                            x       y       z     vdW  Elec       q    Type
REMARK                         _______ _______ _______ _____ _____    ______ ____
ROOT
ATOM      1  C   UNL     1      -1.625   5.864  -4.221  0.00  0.00    -0.000 C 
ATOM      2  C   UNL     1      -0.540   4.803  -4.426  0.00  0.00    +0.009 C 
ATOM      3  C   UNL     1      -0.863   3.558  -3.599  0.00  0.00    +0.036 C 
ATOM      4  C   UNL     1      -1.096   3.976  -2.150  0.00  0.00    -0.032 A 
ATOM      5  C   UNL     1      -1.378   5.272  -1.849  0.00  0.00    -0.005 A 
ATOM      6  S   UNL     1      -1.562   5.271  -0.084  0.00  0.00    -0.078 S 
ATOM      7  C   UNL     1      -1.258   3.549   0.177  0.00  0.00    +0.076 A 
ATOM      8  C   UNL     1      -1.032   3.065  -1.085  0.00  0.00    -0.008 A 
ATOM      9  C   UNL     1      -0.727   1.580  -1.249  0.00  0.00    +0.060 C 
ATOM     10  C   UNL     1      -0.013   1.086   0.008  0.00  0.00    +0.109 C 
ATOM     11  C   UNL     1      -0.691   1.558   1.262  0.00  0.00    +0.218 C 
ATOM     12  O   UNL     1      -0.751   0.821   2.224  0.00  0.00    -0.275 OA
ATOM     13  N   UNL     1      -1.236   2.797   1.337  0.00  0.00    -0.280 N 
ATOM     14  C   UNL     1      -1.502   6.422  -2.794  0.00  0.00    +0.046 C 
ATOM     15  H   UNL     1      -1.596   3.142   2.169  0.00  0.00    +0.155 HD
ENDROOT
BRANCH   9  16
ATOM     16  C   UNL     1      -2.013   0.816  -1.433  0.00  0.00    -0.036 A 
ATOM     17  C   UNL     1      -2.987   0.860  -0.452  0.00  0.00    +0.008 A 
ATOM     18  C   UNL     1      -4.171   0.165  -0.618  0.00  0.00    +0.049 A 
ATOM     19  C   UNL     1      -4.379  -0.585  -1.764  0.00  0.00    +0.158 A 
ATOM     20  C   UNL     1      -3.397  -0.633  -2.749  0.00  0.00    +0.162 A 
ATOM     21  C   UNL     1      -2.215   0.070  -2.578  0.00  0.00    +0.053 A 
BRANCH  20  22
ATOM     22  O   UNL     1      -3.596  -1.368  -3.875  0.00  0.00    -0.491 OA
ATOM     23  C   UNL     1      -2.545  -1.371  -4.843  0.00  0.00    +0.277 C 
ENDBRANCH  20  22
BRANCH  19  24
ATOM     24  O   UNL     1      -5.541  -1.272  -1.927  0.00  0.00    -0.503 OA
ATOM     25  H   UNL     1      -5.516  -2.175  -1.579  0.00  0.00    +0.292 HD
ENDBRANCH  19  24
ENDBRANCH   9  16
BRANCH   1  27
ATOM     26  C   UNL     1      -1.536   6.433  -6.652  0.00  0.00    +0.011 C 
ATOM     27  C   UNL     1      -1.434   6.996  -5.232  0.00  0.00    -0.035 C 
ATOM     28  C   UNL     1      -2.518   8.054  -5.024  0.00  0.00    +0.011 C 
ATOM     29  C   UNL     1      -0.056   7.631  -5.033  0.00  0.00    +0.011 C 
ENDBRANCH   1  27
TORSDOF 4
