REMARK  Name = ZINC67428551
REMARK  7 active torsions:
REMARK  status: ('A' for Active; 'I' for Inactive)
REMARK    1  A    between atoms: C_1  and  C_2
REMARK    2  A    between atoms: C_3  and  C_7
REMARK    3  A    between atoms: C_10  and  S_13
REMARK    4  A    between atoms: N_11  and  N_12
REMARK    5  A    between atoms: S_13  and  C_14
REMARK    6  A    between atoms: C_14  and  C_15
REMARK    7  A    between atoms: C_18  and  C_20
REMARK                            x       y       z     vdW  Elec       q    Type
REMARK                         _______ _______ _______ _____ _____    ______ ____
ROOT
ATOM      1  C   UNL     1      -2.510  -0.400   0.013  0.00  0.00    +0.185 A 
ATOM      2  N   UNL     1      -2.963   0.832   0.017  0.00  0.00    -0.127 NA
ATOM      3  N   UNL     1      -4.248   0.828   0.025  0.00  0.00    -0.121 NA
ATOM      4  C   UNL     1      -4.695  -0.406   0.027  0.00  0.00    +0.209 A 
ATOM      5  N   UNL     1      -3.605  -1.232   0.013  0.00  0.00    -0.224 N 
ENDROOT
BRANCH   1   8
ATOM      6  C   UNL     1      -0.018   1.503   0.010  0.00  0.00    +0.087 C 
ATOM      7  C   UNL     1       0.002  -0.004   0.002  0.00  0.00    +0.112 A 
ATOM      8  C   UNL     1      -1.091  -0.815   0.003  0.00  0.00    +0.061 A 
ATOM      9  C   UNL     1      -0.568  -2.187  -0.008  0.00  0.00    +0.053 A 
ATOM     10  C   UNL     1       0.770  -2.074  -0.014  0.00  0.00    +0.196 A 
ATOM     11  O   UNL     1       1.100  -0.773  -0.013  0.00  0.00    -0.467 OA
ENDBRANCH   1   8
BRANCH   5  12
ATOM     12  N   UNL     1      -3.604  -2.598   0.004  0.00  0.00    -0.295 N 
ATOM     13  H   UNL     1      -3.598  -2.966   0.944  0.00  0.00    +0.163 HD
ATOM     14  H   UNL     1      -4.388  -2.957  -0.520  0.00  0.00    +0.163 HD
ENDBRANCH   5  12
BRANCH   4  15
ATOM     15  S   UNL     1      -6.385  -0.906   0.039  0.00  0.00    -0.075 S 
BRANCH  15  16
ATOM     16  C   UNL     1      -7.305   0.657   0.047  0.00  0.00    +0.173 C 
BRANCH  16  17
ATOM     17  C   UNL     1      -8.784   0.369   0.057  0.00  0.00    +0.207 A 
ATOM     18  N   UNL     1      -9.520   0.230   1.124  0.00  0.00    -0.220 NA
ATOM     19  C   UNL     1     -10.784  -0.018   0.752  0.00  0.00    +0.161 A 
ATOM     20  C   UNL     1     -10.815  -0.028  -0.609  0.00  0.00    +0.162 A 
ATOM     21  O   UNL     1      -9.555   0.222  -1.030  0.00  0.00    -0.438 OA
BRANCH  20  22
ATOM     22  C   UNL     1     -11.995  -0.260  -1.458  0.00  0.00    +0.056 A 
ATOM     23  C   UNL     1     -12.083  -0.287  -2.827  0.00  0.00    +0.019 A 
ATOM     24  C   UNL     1     -13.310  -0.527  -3.405  0.00  0.00    +0.008 A 
ATOM     25  C   UNL     1     -14.390  -0.729  -2.608  0.00  0.00    +0.046 A 
ATOM     26  S   UNL     1     -13.682  -0.588  -0.975  0.00  0.00    -0.094 S 
ENDBRANCH  20  22
ENDBRANCH  16  17
ENDBRANCH  15  16
ENDBRANCH   4  15
TORSDOF 6
