REMARK  Name = ZINC01801071
REMARK  10 active torsions:
REMARK  status: ('A' for Active; 'I' for Inactive)
REMARK    1  A    between atoms: C_1  and  C_2
REMARK    2  A    between atoms: C_2  and  O_3
REMARK    3  A    between atoms: O_3  and  C_4
REMARK    4  A    between atoms: C_4  and  C_6
REMARK    5  A    between atoms: C_7  and  N_29
REMARK    6  A    between atoms: C_9  and  C_28
REMARK    7  A    between atoms: C_10  and  C_22
REMARK    8  A    between atoms: C_22  and  O_24
REMARK    9  A    between atoms: O_24  and  C_25
REMARK   10  A    between atoms: C_25  and  C_26
REMARK                            x       y       z     vdW  Elec       q    Type
REMARK                         _______ _______ _______ _____ _____    ______ ____
ROOT
ATOM      1  C   UNL     1      -1.206   1.969  -0.074  0.00  0.00    +0.117 C 
ATOM      2  C   UNL     1      -2.333   1.208  -0.070  0.00  0.00    +0.195 C 
ATOM      3  O   UNL     1      -3.555   1.758   0.027  0.00  0.00    -0.446 OA
ATOM      4  C   UNL     1      -3.687   3.012   0.483  0.00  0.00    +0.116 C 
ATOM      5  C   UNL     1      -2.661   3.874   0.510  0.00  0.00    +0.098 C 
ATOM      6  C   UNL     1      -1.301   3.465   0.024  0.00  0.00    +0.145 C 
ATOM      7  C   UNL     1      -1.004   4.100  -1.311  0.00  0.00    -0.001 A 
ATOM      8  C   UNL     1      -1.607   4.019  -2.546  0.00  0.00    +0.022 A 
ATOM      9  C   UNL     1      -1.096   4.736  -3.614  0.00  0.00    +0.018 A 
ATOM     10  C   UNL     1       0.021   5.533  -3.435  0.00  0.00    +0.017 A 
ATOM     11  C   UNL     1       0.628   5.616  -2.199  0.00  0.00    +0.025 A 
ATOM     12  C   UNL     1       0.119   4.897  -1.119  0.00  0.00    +0.038 A 
ATOM     13  N   UNL     1       0.547   4.817   0.207  0.00  0.00    -0.284 N 
ATOM     14  C   UNL     1      -0.229   4.001   0.943  0.00  0.00    +0.237 C 
ATOM     15  O   UNL     1      -0.093   3.745   2.121  0.00  0.00    -0.274 OA
ATOM     16 BR   UNL     1      -1.921   4.627  -5.311  0.00  0.00    -0.050 Br
ATOM     17  C   UNL     1      -5.034   3.467   0.983  0.00  0.00    +0.087 C 
ATOM     18  H   UNL     1       1.315   5.295   0.558  0.00  0.00    +0.155 HD
ENDROOT
BRANCH   2  19
ATOM     19  N   UNL     1      -2.219  -0.153  -0.162  0.00  0.00    -0.329 N 
ATOM     20  H   UNL     1      -1.350  -0.559  -0.305  0.00  0.00    +0.145 HD
ATOM     21  H   UNL     1      -3.008  -0.712  -0.085  0.00  0.00    +0.145 HD
ENDBRANCH   2  19
BRANCH   1  22
ATOM     22  C   UNL     1       0.051   1.354  -0.175  0.00  0.00    +0.342 C 
ATOM     23  O   UNL     1       0.633   1.331  -1.245  0.00  0.00    -0.245 OA
BRANCH  22  24
ATOM     24  O   UNL     1       0.618   0.793   0.915  0.00  0.00    -0.462 OA
BRANCH  24  26
ATOM     25  C   UNL     1       2.380  -0.388   2.074  0.00  0.00    +0.048 C 
ATOM     26  C   UNL     1       1.902   0.190   0.740  0.00  0.00    +0.229 C 
ENDBRANCH  24  26
ENDBRANCH  22  24
ENDBRANCH   1  22
BRANCH   5  27
ATOM     27  C   UNL     1      -2.863   5.187   1.002  0.00  0.00    +0.340 C 
ATOM     28  O   UNL     1      -3.012   6.112   0.225  0.00  0.00    -0.245 OA
BRANCH  27  29
ATOM     29  O   UNL     1      -2.889   5.413   2.332  0.00  0.00    -0.457 OA
BRANCH  29  30
ATOM     30  C   UNL     1      -3.097   6.761   2.757  0.00  0.00    +0.259 C 
BRANCH  30  31
ATOM     31  C   UNL     1      -3.096   6.819   4.263  0.00  0.00    +0.006 C 
ATOM     32  C   UNL     1      -2.427   7.760   4.882  0.00  0.00    +0.007 C 
ENDBRANCH  30  31
ENDBRANCH  29  30
ENDBRANCH  27  29
ENDBRANCH   5  27
TORSDOF 8
