REMARK  Name = ZINC14475967
REMARK  8 active torsions:
REMARK  status: ('A' for Active; 'I' for Inactive)
REMARK    1  A    between atoms: C_1  and  C_2
REMARK    2  A    between atoms: C_6  and  C_38
REMARK    3  A    between atoms: C_7  and  N_8
REMARK    4  A    between atoms: N_8  and  S_9
REMARK    5  A    between atoms: S_9  and  C_12
REMARK    6  A    between atoms: C_25  and  C_28
REMARK    7  A    between atoms: C_30  and  N_35
REMARK    8  A    between atoms: C_33  and  O_34
REMARK                            x       y       z     vdW  Elec       q    Type
REMARK                         _______ _______ _______ _____ _____    ______ ____
ROOT
ATOM      1  C   UNL     1       1.490   8.539  -1.073  0.00  0.00    +0.109 A 
ATOM      2  C   UNL     1       1.729   8.956   0.224  0.00  0.00    +0.030 A 
ATOM      3  C   UNL     1       2.324   8.101   1.129  0.00  0.00    +0.025 A 
ATOM      4  C   UNL     1       2.687   6.815   0.745  0.00  0.00    +0.031 A 
ATOM      5  C   UNL     1       2.429   6.396  -0.565  0.00  0.00    -0.018 A 
ATOM      6  C   UNL     1       1.840   7.259  -1.463  0.00  0.00    +0.034 A 
ATOM      7  C   UNL     1       2.809   5.013  -0.926  0.00  0.00    +0.049 C 
ATOM      8  C   UNL     1       3.129   4.645  -2.329  0.00  0.00    -0.023 C 
ATOM      9  C   UNL     1       4.036   3.675  -2.317  0.00  0.00    -0.030 C 
ATOM     10  C   UNL     1       4.422   3.339  -0.875  0.00  0.00    +0.033 C 
ATOM     11  C   UNL     1       4.118   4.661  -0.158  0.00  0.00    +0.029 C 
ATOM     12  C   UNL     1       3.720   4.581   1.305  0.00  0.00    +0.108 C 
ATOM     13  N   UNL     1       3.308   5.951   1.682  0.00  0.00    -0.336 N 
ATOM     14  H   UNL     1       3.483   6.316   2.705  0.00  0.00    +0.147 HD
ENDROOT
BRANCH  12  15
ATOM     15  C   UNL     1       2.567   3.626   1.479  0.00  0.00    +0.017 A 
ATOM     16  C   UNL     1       1.269   4.099   1.474  0.00  0.00    +0.041 A 
ATOM     17  C   UNL     1       0.212   3.223   1.633  0.00  0.00    +0.127 A 
ATOM     18  C   UNL     1       0.450   1.870   1.795  0.00  0.00    +0.036 A 
ATOM     19  C   UNL     1       1.746   1.393   1.807  0.00  0.00    +0.048 A 
ATOM     20  C   UNL     1       2.809   2.270   1.646  0.00  0.00    +0.122 A 
BRANCH  17  21
ATOM     21  N   UNL     1      -1.177   3.733   1.626  0.00  0.00    +0.056 N 
ATOM     22  O   UNL     1      -1.389   4.923   1.479  0.00  0.00    -0.126 OA
ATOM     23  O   UNL     1      -2.110   2.962   1.767  0.00  0.00    -0.126 OA
ENDBRANCH  17  21
BRANCH  20  24
ATOM     24  O   UNL     1       4.085   1.801   1.652  0.00  0.00    -0.506 OA
ATOM     25  H   UNL     1       4.275   0.726   1.784  0.00  0.00    +0.292 HD
ENDBRANCH  20  24
ENDBRANCH  12  15
BRANCH   1  26
ATOM     26  S   UNL     1       0.739   9.638  -2.228  0.00  0.00    +0.072 S 
ATOM     27  O   UNL     1       0.030   8.829  -3.156  0.00  0.00    -0.150 OA
ATOM     28  O   UNL     1       0.106  10.657  -1.466  0.00  0.00    -0.150 OA
BRANCH  26  29
ATOM     29  N   UNL     1       1.961  10.369  -3.073  0.00  0.00    -0.216 N 
ATOM     30  H   UNL     1       2.160  11.442  -2.934  0.00  0.00    +0.174 HD
BRANCH  29  37
ATOM     31  C   UNL     1       4.602   9.666  -2.284  0.00  0.00    +0.046 C 
ATOM     32  C   UNL     1       4.033   9.258  -3.619  0.00  0.00    -0.028 A 
ATOM     33  C   UNL     1       4.796   8.517  -4.499  0.00  0.00    +0.005 A 
ATOM     34  C   UNL     1       4.277   8.148  -5.726  0.00  0.00    +0.001 A 
ATOM     35  C   UNL     1       2.990   8.514  -6.074  0.00  0.00    +0.005 A 
ATOM     36  C   UNL     1       2.219   9.251  -5.197  0.00  0.00    -0.028 A 
ATOM     37  C   UNL     1       2.737   9.624  -3.963  0.00  0.00    +0.054 A 
ATOM     38  C   UNL     1       0.816   9.650  -5.577  0.00  0.00    +0.046 C 
ENDBRANCH  29  37
ENDBRANCH  26  29
ENDBRANCH   1  26
TORSDOF 6
