REMARK  Name = ZINC63573167
REMARK  6 active torsions:
REMARK  status: ('A' for Active; 'I' for Inactive)
REMARK    1  A    between atoms: C_1  and  C_2
REMARK    2  A    between atoms: C_4  and  C_35
REMARK    3  A    between atoms: C_6  and  N_8
REMARK    4  A    between atoms: C_17  and  O_33
REMARK    5  A    between atoms: C_24  and  C_26
REMARK    6  A    between atoms: O_33  and  C_34
REMARK                            x       y       z     vdW  Elec       q    Type
REMARK                         _______ _______ _______ _____ _____    ______ ____
ROOT
ATOM      1  N   UNL     1       1.856  -2.540   2.714  0.00  0.00    -0.269 N 
ATOM      2  C   UNL     1       1.329  -1.960   3.811  0.00  0.00    +0.307 C 
ATOM      3  O   UNL     1       1.201  -0.752   3.858  0.00  0.00    -0.252 OA
ATOM      4  N   UNL     1       0.943  -2.720   4.855  0.00  0.00    -0.276 N 
ATOM      5  C   UNL     1       1.216  -4.161   4.844  0.00  0.00    +0.114 C 
ATOM      6  C   UNL     1      -0.108  -4.934   4.992  0.00  0.00    +0.052 C 
ATOM      7  C   UNL     1      -0.878  -4.264   6.103  0.00  0.00    -0.035 C 
ATOM      8  C   UNL     1      -1.445  -4.754   7.198  0.00  0.00    +0.003 A 
ATOM      9  C   UNL     1      -1.627  -6.133   7.677  0.00  0.00    +0.055 A 
ATOM     10  C   UNL     1      -2.248  -6.284   8.879  0.00  0.00    +0.121 A 
ATOM     11  C   UNL     1      -2.711  -5.217   9.662  0.00  0.00    +0.047 A 
ATOM     12  C   UNL     1      -2.604  -3.910   9.313  0.00  0.00    +0.029 A 
ATOM     13  C   UNL     1      -1.955  -3.618   8.027  0.00  0.00    +0.043 A 
ATOM     14  N   UNL     1      -1.735  -2.485   7.432  0.00  0.00    -0.375 N 
ATOM     15  C   UNL     1      -1.120  -2.759   6.133  0.00  0.00    +0.131 C 
ATOM     16  C   UNL     1       0.259  -2.094   5.997  0.00  0.00    +0.134 C 
ATOM     17  H   UNL     1       1.887  -3.507   2.644  0.00  0.00    +0.156 HD
ATOM     18  H   UNL     1      -1.943  -1.607   7.788  0.00  0.00    +0.160 HD
ENDROOT
BRANCH   1  24
ATOM     19  C   UNL     1       1.552   1.527  -0.032  0.00  0.00    +0.044 C 
ATOM     20  C   UNL     1       2.231   0.229   0.324  0.00  0.00    -0.048 A 
ATOM     21  C   UNL     1       3.351  -0.180  -0.377  0.00  0.00    +0.006 A 
ATOM     22  C   UNL     1       3.976  -1.370  -0.053  0.00  0.00    -0.048 A 
ATOM     23  C   UNL     1       3.483  -2.155   0.971  0.00  0.00    +0.026 A 
ATOM     24  C   UNL     1       2.358  -1.747   1.676  0.00  0.00    +0.035 A 
ATOM     25  C   UNL     1       1.736  -0.548   1.353  0.00  0.00    +0.026 A 
ATOM     26  C   UNL     1       5.197  -1.811  -0.819  0.00  0.00    +0.044 C 
ENDBRANCH   1  24
BRANCH  16  27
ATOM     27  C   UNL     1       0.094  -0.617   5.746  0.00  0.00    -0.025 A 
ATOM     28  C   UNL     1      -0.704  -0.178   4.706  0.00  0.00    +0.008 A 
ATOM     29  C   UNL     1      -0.856   1.176   4.475  0.00  0.00    +0.038 A 
ATOM     30  C   UNL     1      -0.209   2.093   5.286  0.00  0.00    +0.123 A 
ATOM     31  C   UNL     1       0.590   1.653   6.327  0.00  0.00    +0.038 A 
ATOM     32  C   UNL     1       0.736   0.298   6.560  0.00  0.00    +0.008 A 
ATOM     33  F   UNL     1      -0.357   3.417   5.061  0.00  0.00    -0.205 F 
ENDBRANCH  16  27
BRANCH  10  34
ATOM     34  O   UNL     1      -2.431  -7.547   9.348  0.00  0.00    -0.495 OA
ATOM     35  C   UNL     1      -3.085  -7.681  10.611  0.00  0.00    +0.277 C 
ENDBRANCH  10  34
TORSDOF 3
