REMARK  Name = ZINC24773054
REMARK  13 active torsions:
REMARK  status: ('A' for Active; 'I' for Inactive)
REMARK    1  A    between atoms: C_1  and  C_2
REMARK    2  A    between atoms: C_2  and  O_3
REMARK    3  A    between atoms: O_3  and  C_4
REMARK    4  A    between atoms: C_9  and  N_10
REMARK    5  A    between atoms: C_12  and  C_17
REMARK    6  A    between atoms: N_19  and  C_20
REMARK    7  A    between atoms: N_19  and  C_24
REMARK    8  A    between atoms: C_20  and  C_21
REMARK    9  A    between atoms: C_21  and  C_22
REMARK   10  A    between atoms: C_21  and  C_23
REMARK   11  A    between atoms: C_25  and  N_40
REMARK   12  A    between atoms: N_26  and  C_33
REMARK   13  A    between atoms: C_33  and  C_34
REMARK                            x       y       z     vdW  Elec       q    Type
REMARK                         _______ _______ _______ _____ _____    ______ ____
ROOT
ATOM      1  C   UNL     1      -3.968  -3.188  -1.503  0.00  0.00    +0.225 C 
ATOM      2  O   UNL     1      -3.388  -3.799  -2.376  0.00  0.00    -0.275 OA
ATOM      3  N   UNL     1      -5.300  -3.338  -1.344  0.00  0.00    -0.264 N 
ENDROOT
BRANCH   3   4
ATOM      4  C   UNL     1      -5.999  -4.288  -2.118  0.00  0.00    +0.140 A 
ATOM      5  C   UNL     1      -6.038  -4.183  -3.493  0.00  0.00    +0.128 A 
ATOM      6  N   UNL     1      -6.725  -5.127  -4.220  0.00  0.00    -0.276 N 
ATOM      7  C   UNL     1      -7.360  -6.136  -3.597  0.00  0.00    +0.331 A 
ATOM      8  O   UNL     1      -7.965  -6.959  -4.257  0.00  0.00    -0.246 OA
ATOM      9  N   UNL     1      -7.337  -6.253  -2.257  0.00  0.00    -0.273 N 
ATOM     10  H   UNL     1      -7.864  -7.086  -1.769  0.00  0.00    +0.173 HD
ATOM     11  C   UNL     1      -6.675  -5.357  -1.499  0.00  0.00    +0.277 A 
ATOM     12  O   UNL     1      -6.661  -5.472  -0.285  0.00  0.00    -0.266 OA
BRANCH   5  13
ATOM     13  N   UNL     1      -5.393  -3.149  -4.129  0.00  0.00    -0.343 N 
ATOM     14  H   UNL     1      -5.428  -3.071  -5.226  0.00  0.00    +0.144 HD
ATOM     15  H   UNL     1      -4.843  -2.399  -3.542  0.00  0.00    +0.144 HD
ENDBRANCH   5  13
BRANCH   6  16
ATOM     16  C   UNL     1      -6.770  -5.030  -5.681  0.00  0.00    +0.163 C 
BRANCH  16  17
ATOM     17  C   UNL     1      -7.960  -4.203  -6.093  0.00  0.00    -0.028 A 
ATOM     18  C   UNL     1      -9.177  -4.814  -6.333  0.00  0.00    +0.005 A 
ATOM     19  C   UNL     1     -10.270  -4.055  -6.706  0.00  0.00    +0.000 A 
ATOM     20  C   UNL     1     -10.144  -2.686  -6.850  0.00  0.00    +0.000 A 
ATOM     21  C   UNL     1      -8.926  -2.075  -6.616  0.00  0.00    +0.000 A 
ATOM     22  C   UNL     1      -7.834  -2.834  -6.237  0.00  0.00    +0.005 A 
ENDBRANCH  16  17
ENDBRANCH   6  16
ENDBRANCH   3   4
BRANCH   1  25
ATOM     23  N   UNL     1      -0.921  -1.954   0.079  0.00  0.00    -0.267 N 
ATOM     24  C   UNL     1      -1.764  -2.039  -1.119  0.00  0.00    +0.127 C 
ATOM     25  C   UNL     1      -3.201  -2.260  -0.597  0.00  0.00    +0.102 C 
ATOM     26  C   UNL     1      -2.939  -2.920   0.777  0.00  0.00    +0.110 C 
ATOM     27  C   UNL     1      -1.552  -2.452   1.157  0.00  0.00    +0.221 C 
ATOM     28  O   UNL     1      -1.078  -2.515   2.272  0.00  0.00    -0.275 OA
BRANCH  23  34
ATOM     29  C   UNL     1       1.472  -2.258  -0.132  0.00  0.00    +0.142 A 
ATOM     30  C   UNL     1       2.753  -1.732  -0.113  0.00  0.00    +0.047 A 
ATOM     31  C   UNL     1       2.944  -0.385   0.131  0.00  0.00    +0.004 A 
ATOM     32  C   UNL     1       1.858   0.441   0.358  0.00  0.00    +0.002 A 
ATOM     33  C   UNL     1       0.577  -0.076   0.341  0.00  0.00    +0.027 A 
ATOM     34  C   UNL     1       0.378  -1.427   0.096  0.00  0.00    +0.078 A 
BRANCH  29  35
ATOM     35  O   UNL     1       1.283  -3.583  -0.372  0.00  0.00    -0.490 OA
BRANCH  35  37
ATOM     36  C   UNL     1       2.042  -5.828  -0.847  0.00  0.00    +0.048 C 
ATOM     37  C   UNL     1       2.451  -4.375  -0.597  0.00  0.00    +0.226 C 
ENDBRANCH  35  37
ENDBRANCH  29  35
ENDBRANCH  23  34
ENDBRANCH   1  25
BRANCH   3  38
ATOM     38  C   UNL     1      -6.019  -2.515  -0.369  0.00  0.00    +0.117 C 
BRANCH  38  39
ATOM     39  C   UNL     1      -6.642  -1.311  -1.078  0.00  0.00    +0.001 C 
ATOM     40  C   UNL     1      -7.500  -0.523  -0.086  0.00  0.00    +0.009 C 
ATOM     41  C   UNL     1      -5.533  -0.409  -1.623  0.00  0.00    +0.009 C 
ENDBRANCH  38  39
ENDBRANCH   3  38
TORSDOF 10
