REMARK  Name = ZINC04222459
REMARK  9 active torsions:
REMARK  status: ('A' for Active; 'I' for Inactive)
REMARK    1  A    between atoms: C_1  and  C_2
REMARK    2  A    between atoms: C_5  and  O_38
REMARK    3  A    between atoms: C_7  and  C_35
REMARK    4  A    between atoms: C_7  and  C_36
REMARK    5  A    between atoms: C_17  and  C_19
REMARK    6  A    between atoms: C_23  and  C_25
REMARK    7  A    between atoms: C_25  and  C_26
REMARK    8  A    between atoms: N_28  and  C_29
REMARK    9  A    between atoms: C_36  and  O_37
REMARK                            x       y       z     vdW  Elec       q    Type
REMARK                         _______ _______ _______ _____ _____    ______ ____
ROOT
ATOM      1  C   UNL     1      -1.079   3.062  -1.254  0.00  0.00    +0.012 C 
ATOM      2  C   UNL     1      -1.018   1.542  -1.419  0.00  0.00    -0.019 C 
ATOM      3  C   UNL     1      -0.219   0.932  -0.263  0.00  0.00    +0.010 C 
ATOM      4  C   UNL     1      -0.924   1.198   1.065  0.00  0.00    +0.032 C 
ATOM      5  C   UNL     1      -2.305   0.562   1.038  0.00  0.00    +0.123 C 
ATOM      6  C   UNL     1      -3.119   1.204  -0.084  0.00  0.00    +0.021 C 
ATOM      7  C   UNL     1      -2.438   0.972  -1.436  0.00  0.00    +0.011 C 
ATOM      8  C   UNL     1      -3.267   1.724  -2.497  0.00  0.00    +0.049 C 
ATOM      9  C   UNL     1      -2.471   1.827  -3.750  0.00  0.00    +0.015 A 
ATOM     10  C   UNL     1      -1.142   1.603  -3.910  0.00  0.00    +0.058 A 
ATOM     11  N   UNL     1      -0.667   1.767  -5.143  0.00  0.00    -0.229 NA
ATOM     12  C   UNL     1      -1.438   2.123  -6.150  0.00  0.00    +0.165 A 
ATOM     13  S   UNL     1      -2.993   2.265  -5.387  0.00  0.00    -0.057 S 
ATOM     14  N   UNL     1      -1.095   2.332  -7.481  0.00  0.00    -0.264 N 
ATOM     15  C   UNL     1      -2.039   2.698  -8.370  0.00  0.00    +0.222 C 
ATOM     16  O   UNL     1      -3.188   2.844  -8.010  0.00  0.00    -0.275 OA
ATOM     17  C   UNL     1      -0.284   1.195  -2.721  0.00  0.00    +0.054 C 
ATOM     18  C   UNL     1      -4.518   0.585  -0.108  0.00  0.00    +0.016 C 
ATOM     19  H   UNL     1      -0.176   2.215  -7.769  0.00  0.00    +0.157 HD
ENDROOT
BRANCH  15  20
ATOM     20  C   UNL     1      -1.668   2.924  -9.813  0.00  0.00    +0.075 C 
ATOM     21  C   UNL     1      -1.083   4.320 -10.087  0.00  0.00    +0.013 C 
ATOM     22  C   UNL     1      -1.899   4.320 -11.390  0.00  0.00    +0.001 C 
ATOM     23  C   UNL     1      -2.857   3.335 -10.698  0.00  0.00    +0.013 C 
ENDBRANCH  15  20
BRANCH   5  24
ATOM     24  O   UNL     1      -2.961   0.779   2.290  0.00  0.00    -0.391 OA
ATOM     25  H   UNL     1      -2.497   0.396   3.047  0.00  0.00    +0.210 HD
ENDBRANCH   5  24
BRANCH  17  26
ATOM     26  C   UNL     1       1.052   1.938  -2.766  0.00  0.00    +0.106 C 
BRANCH  26  27
ATOM     27  C   UNL     1       1.860   1.448  -3.940  0.00  0.00    +0.214 C 
ATOM     28  O   UNL     1       1.411   0.589  -4.669  0.00  0.00    -0.276 OA
ATOM     29  N   UNL     1       3.082   1.964  -4.180  0.00  0.00    -0.312 N 
ATOM     30  H   UNL     1       3.441   2.651  -3.597  0.00  0.00    +0.149 HD
BRANCH  29  31
ATOM     31  C   UNL     1       3.867   1.488  -5.322  0.00  0.00    +0.073 C 
ATOM     32  C   UNL     1       4.639   0.230  -4.920  0.00  0.00    +0.022 C 
ATOM     33  C   UNL     1       5.458  -0.268  -6.112  0.00  0.00    +0.002 C 
ATOM     34  C   UNL     1       6.445   0.820  -6.542  0.00  0.00    +0.000 C 
ATOM     35  C   UNL     1       5.673   2.078  -6.944  0.00  0.00    +0.002 C 
ATOM     36  C   UNL     1       4.853   2.576  -5.752  0.00  0.00    +0.022 C 
ENDBRANCH  29  31
ENDBRANCH  26  27
ENDBRANCH  17  26
BRANCH   6  37
ATOM     37  C   UNL     1      -3.236   2.708   0.173  0.00  0.00    +0.165 C 
BRANCH  37  38
ATOM     38  O   UNL     1      -4.004   2.932   1.356  0.00  0.00    -0.394 OA
ATOM     39  H   UNL     1      -4.119   3.865   1.580  0.00  0.00    +0.209 HD
ENDBRANCH  37  38
ENDBRANCH   6  37
TORSDOF 7
