REMARK  Name = ZINC39634508
REMARK  9 active torsions:
REMARK  status: ('A' for Active; 'I' for Inactive)
REMARK    1  A    between atoms: C_1  and  O_2
REMARK    2  A    between atoms: O_2  and  C_3
REMARK    3  A    between atoms: C_6  and  C_11
REMARK    4  A    between atoms: C_8  and  O_9
REMARK    5  A    between atoms: O_9  and  C_10
REMARK    6  A    between atoms: C_11  and  C_12
REMARK    7  A    between atoms: C_12  and  N_13
REMARK    8  A    between atoms: C_14  and  C_16
REMARK    9  A    between atoms: C_27  and  C_29
REMARK                            x       y       z     vdW  Elec       q    Type
REMARK                         _______ _______ _______ _____ _____    ______ ____
ROOT
ATOM      1  C   UNL     1      -8.690  -4.553  -2.542  0.00  0.00    +0.100 C 
ATOM      2  C   UNL     1      -9.735  -3.716  -1.770  0.00  0.00    +0.121 C 
ATOM      3  N   UNL     1     -10.428  -2.926  -2.815  0.00  0.00    -0.296 N 
ATOM      4  C   UNL     1     -10.569  -3.864  -3.954  0.00  0.00    +0.115 C 
ATOM      5  C   UNL     1      -9.243  -4.651  -3.974  0.00  0.00    -0.004 C 
ATOM      6  C   UNL     1      -9.499  -6.109  -4.343  0.00  0.00    -0.010 C 
ATOM      7  C   UNL     1      -9.993  -6.185  -5.791  0.00  0.00    -0.082 C 
ATOM      8  N   UNL     1      -8.985  -5.604  -6.685  0.00  0.00    +0.379 N 
ATOM      9  C   UNL     1      -8.812  -4.177  -6.384  0.00  0.00    -0.082 C 
ATOM     10  C   UNL     1      -8.268  -4.016  -4.961  0.00  0.00    -0.010 C 
ATOM     11  C   UNL     1     -10.838  -1.644  -2.745  0.00  0.00    +0.249 C 
ATOM     12  O   UNL     1     -10.564  -0.970  -1.771  0.00  0.00    -0.270 OA
ATOM     13  H   UNL     1      -8.106  -6.082  -6.555  0.00  0.00    -0.086 HD
ATOM     14  H   UNL     1      -9.284  -5.710  -7.642  0.00  0.00    -0.086 HD
ENDROOT
BRANCH  11  15
ATOM     15  C   UNL     1     -11.621  -1.059  -3.850  0.00  0.00    +0.072 A 
ATOM     16  C   UNL     1     -12.535  -1.845  -4.556  0.00  0.00    +0.019 A 
ATOM     17  C   UNL     1     -13.264  -1.294  -5.587  0.00  0.00    +0.039 A 
ATOM     18  C   UNL     1     -13.092   0.041  -5.926  0.00  0.00    +0.126 A 
ATOM     19  C   UNL     1     -12.189   0.828  -5.232  0.00  0.00    +0.077 A 
ATOM     20  C   UNL     1     -11.456   0.288  -4.192  0.00  0.00    +0.138 A 
ATOM     21  F   UNL     1     -10.579   1.057  -3.511  0.00  0.00    -0.205 F 
ATOM     22  F   UNL     1     -13.810   0.575  -6.939  0.00  0.00    -0.205 F 
ENDBRANCH  11  15
BRANCH   1  24
ATOM     23  N   UNL     1      -6.217  -4.576  -2.579  0.00  0.00    -0.315 N 
ATOM     24  C   UNL     1      -7.355  -3.855  -2.542  0.00  0.00    +0.218 C 
ATOM     25  O   UNL     1      -7.304  -2.643  -2.509  0.00  0.00    -0.275 OA
ATOM     26  H   UNL     1      -6.258  -5.545  -2.606  0.00  0.00    +0.149 HD
BRANCH  23  27
ATOM     27  C   UNL     1      -4.919  -3.897  -2.579  0.00  0.00    +0.109 C 
BRANCH  27  28
ATOM     28  C   UNL     1      -3.799  -4.939  -2.624  0.00  0.00    +0.054 C 
BRANCH  28  32
ATOM     29  C   UNL     1      -0.009  -2.958  -2.617  0.00  0.00    +0.161 A 
ATOM     30  C   UNL     1      -0.610  -3.315  -1.421  0.00  0.00    +0.049 A 
ATOM     31  C   UNL     1      -1.835  -3.955  -1.426  0.00  0.00    +0.007 A 
ATOM     32  C   UNL     1      -2.463  -4.241  -2.624  0.00  0.00    -0.042 A 
ATOM     33  C   UNL     1      -1.869  -3.888  -3.821  0.00  0.00    +0.053 A 
ATOM     34  C   UNL     1      -0.644  -3.240  -3.822  0.00  0.00    +0.162 A 
BRANCH  29  36
ATOM     35  C   UNL     1       1.790  -2.070  -1.339  0.00  0.00    +0.277 C 
ATOM     36  O   UNL     1       1.196  -2.328  -2.613  0.00  0.00    -0.491 OA
ENDBRANCH  29  36
BRANCH  34  37
ATOM     37  O   UNL     1      -0.061  -2.887  -4.999  0.00  0.00    -0.491 OA
ATOM     38  C   UNL     1      -0.771  -3.209  -6.197  0.00  0.00    +0.277 C 
ENDBRANCH  34  37
ENDBRANCH  28  32
ENDBRANCH  27  28
ENDBRANCH  23  27
ENDBRANCH   1  24
TORSDOF 7
