REMARK  Name = ZINC21471512
REMARK  8 active torsions:
REMARK  status: ('A' for Active; 'I' for Inactive)
REMARK    1  A    between atoms: C_1  and  C_2
REMARK    2  A    between atoms: C_5  and  C_7
REMARK    3  A    between atoms: C_9  and  C_19
REMARK    4  A    between atoms: N_13  and  C_16
REMARK    5  A    between atoms: C_16  and  C_17
REMARK    6  A    between atoms: C_16  and  C_18
REMARK    7  A    between atoms: C_24  and  C_27
REMARK    8  A    between atoms: C_27  and  C_29
REMARK                            x       y       z     vdW  Elec       q    Type
REMARK                         _______ _______ _______ _____ _____    ______ ____
ROOT
ATOM      1  C   UNL     1       1.038  -4.032  -0.025  0.00  0.00    +0.081 A 
ATOM      2  C   UNL     1       2.424  -4.237  -0.027  0.00  0.00    +0.042 A 
ATOM      3  C   UNL     1       2.918  -5.535  -0.035  0.00  0.00    +0.051 A 
ATOM      4  C   UNL     1       1.985  -6.601  -0.042  0.00  0.00    +0.051 A 
ATOM      5  C   UNL     1       2.111  -8.005  -0.051  0.00  0.00    +0.145 A 
ATOM      6  N   UNL     1       0.918  -8.529  -0.054  0.00  0.00    -0.177 NA
ATOM      7  N   UNL     1      -0.045  -7.513  -0.047  0.00  0.00    -0.244 N 
ATOM      8  C   UNL     1       0.607  -6.307  -0.040  0.00  0.00    +0.160 A 
ATOM      9  N   UNL     1       0.190  -5.050  -0.026  0.00  0.00    -0.227 NA
ENDROOT
BRANCH   3  10
ATOM     10  C   UNL     1       4.373  -5.797  -0.038  0.00  0.00    +0.250 C 
ATOM     11  O   UNL     1       4.785  -6.940  -0.045  0.00  0.00    -0.270 OA
ATOM     12  N   UNL     1       5.242  -4.767  -0.032  0.00  0.00    -0.261 N 
ATOM     13  C   UNL     1       6.608  -5.012  -0.035  0.00  0.00    +0.165 A 
ATOM     14  N   UNL     1       7.603  -4.151  -0.024  0.00  0.00    -0.222 NA
ATOM     15  C   UNL     1       8.855  -4.622  -0.029  0.00  0.00    +0.115 A 
ATOM     16  C   UNL     1       9.043  -5.991  -0.045  0.00  0.00    +0.079 A 
ATOM     17  S   UNL     1       7.465  -6.576  -0.044  0.00  0.00    -0.060 S 
ATOM     18  H   UNL     1       4.913  -3.854  -0.026  0.00  0.00    +0.157 HD
BRANCH  15  19
ATOM     19  C   UNL     1       9.998  -3.710  -0.019  0.00  0.00    +0.179 C 
ATOM     20  O   UNL     1      11.128  -4.152  -0.025  0.00  0.00    -0.291 OA
ATOM     21  C   UNL     1       9.773  -2.220  -0.002  0.00  0.00    +0.093 C 
ENDBRANCH  15  19
ENDBRANCH   3  10
BRANCH   1  26
ATOM     22  C   UNL     1      -0.018   1.503   0.010  0.00  0.00    +0.051 C 
ATOM     23  C   UNL     1       0.002  -0.004   0.002  0.00  0.00    -0.013 A 
ATOM     24  C   UNL     1      -1.043  -0.873   0.002  0.00  0.00    +0.011 A 
ATOM     25  C   UNL     1      -0.791  -2.225  -0.007  0.00  0.00    +0.018 A 
ATOM     26  C   UNL     1       0.511  -2.653  -0.015  0.00  0.00    +0.038 A 
ATOM     27  S   UNL     1       1.405  -1.107  -0.018  0.00  0.00    -0.092 S 
ENDBRANCH   1  26
BRANCH   7  28
ATOM     28  C   UNL     1      -1.497  -7.706  -0.048  0.00  0.00    +0.103 C 
ATOM     29  C   UNL     1      -1.908  -8.480  -1.302  0.00  0.00    +0.032 C 
ATOM     30  C   UNL     1      -1.907  -8.495   1.197  0.00  0.00    +0.032 C 
ENDBRANCH   7  28
TORSDOF 4
