REMARK  Name = ZINC34829697
REMARK  8 active torsions:
REMARK  status: ('A' for Active; 'I' for Inactive)
REMARK    1  A    between atoms: C_1  and  C_2
REMARK    2  A    between atoms: C_9  and  C_11
REMARK    3  A    between atoms: C_14  and  C_16
REMARK    4  A    between atoms: C_22  and  C_24
REMARK    5  A    between atoms: C_24  and  N_25
REMARK    6  A    between atoms: C_33  and  C_35
REMARK    7  A    between atoms: C_38  and  O_41
REMARK    8  A    between atoms: O_41  and  C_42
REMARK                            x       y       z     vdW  Elec       q    Type
REMARK                         _______ _______ _______ _____ _____    ______ ____
ROOT
ATOM      1  C   UNL     1       0.001   1.527  -0.002  0.00  0.00    +0.029 C 
ATOM      2  C   UNL     1       0.012  -0.003  -0.005  0.00  0.00    +0.090 C 
ATOM      3  C   UNL     1       0.630  -0.511  -1.313  0.00  0.00    +0.130 C 
ATOM      4  N   UNL     1       0.870  -1.956  -1.190  0.00  0.00    -0.300 N 
ATOM      5  C   UNL     1       1.681  -2.445  -0.067  0.00  0.00    +0.126 C 
ATOM      6  C   UNL     1       1.064  -1.937   1.242  0.00  0.00    +0.127 C 
ATOM      7  N   UNL     1       0.820  -0.492   1.121  0.00  0.00    -0.295 N 
ATOM      8  C   UNL     1       1.333   0.368   2.023  0.00  0.00    +0.220 C 
ATOM      9  O   UNL     1       1.046   1.545   1.968  0.00  0.00    -0.275 OA
ATOM     10  C   UNL     1       0.355  -2.816  -2.091  0.00  0.00    +0.199 C 
ATOM     11  O   UNL     1      -0.312  -2.400  -3.014  0.00  0.00    -0.278 OA
ENDROOT
BRANCH   8  12
ATOM     12  C   UNL     1       2.261  -0.133   3.099  0.00  0.00    +0.083 C 
ATOM     13  C   UNL     1       3.728   0.296   3.022  0.00  0.00    +0.022 C 
ATOM     14  C   UNL     1       2.811   0.894   4.091  0.00  0.00    +0.032 C 
BRANCH  14  15
ATOM     15  C   UNL     1       2.383   2.328   3.918  0.00  0.00    -0.044 A 
ATOM     16  C   UNL     1       2.662   2.995   2.740  0.00  0.00    +0.004 A 
ATOM     17  C   UNL     1       2.269   4.311   2.580  0.00  0.00    +0.000 A 
ATOM     18  C   UNL     1       1.596   4.960   3.599  0.00  0.00    +0.000 A 
ATOM     19  C   UNL     1       1.316   4.292   4.777  0.00  0.00    +0.000 A 
ATOM     20  C   UNL     1       1.706   2.975   4.934  0.00  0.00    +0.004 A 
ENDBRANCH  14  15
ENDBRANCH   8  12
BRANCH  10  21
ATOM     21  C   UNL     1       0.610  -4.295  -1.951  0.00  0.00    +0.020 C 
BRANCH  21  22
ATOM     22  N   UNL     1      -0.053  -5.012  -3.048  0.00  0.00    +0.393 N 
ATOM     23  C   UNL     1       0.547  -4.602  -4.325  0.00  0.00    -0.072 C 
ATOM     24  C   UNL     1      -0.351  -5.088  -5.476  0.00  0.00    +0.024 C 
ATOM     25  C   UNL     1      -0.690  -6.518  -5.209  0.00  0.00    -0.010 A 
ATOM     26  C   UNL     1      -0.504  -7.189  -4.037  0.00  0.00    -0.047 A 
ATOM     27  C   UNL     1      -0.891  -8.526  -4.018  0.00  0.00    +0.010 A 
ATOM     28  C   UNL     1      -1.422  -9.093  -5.127  0.00  0.00    +0.045 A 
ATOM     29  S   UNL     1      -1.403  -7.730  -6.283  0.00  0.00    -0.101 S 
ATOM     30  C   UNL     1       0.098  -6.457  -2.841  0.00  0.00    -0.005 C 
ATOM     31  H   UNL     1      -1.034  -4.777  -3.053  0.00  0.00    -0.080 HD
BRANCH  30  32
ATOM     32  C   UNL     1      -0.625  -6.865  -1.583  0.00  0.00    -0.056 A 
ATOM     33  C   UNL     1      -1.856  -6.310  -1.283  0.00  0.00    +0.006 A 
ATOM     34  C   UNL     1      -2.520  -6.682  -0.131  0.00  0.00    +0.046 A 
ATOM     35  C   UNL     1      -1.951  -7.614   0.726  0.00  0.00    +0.120 A 
ATOM     36  C   UNL     1      -0.717  -8.169   0.423  0.00  0.00    +0.046 A 
ATOM     37  C   UNL     1      -0.059  -7.798  -0.734  0.00  0.00    +0.006 A 
BRANCH  35  38
ATOM     38  O   UNL     1      -2.603  -7.981   1.861  0.00  0.00    -0.495 OA
ATOM     39  C   UNL     1      -1.958  -8.945   2.696  0.00  0.00    +0.277 C 
ENDBRANCH  35  38
ENDBRANCH  30  32
ENDBRANCH  21  22
ENDBRANCH  10  21
TORSDOF 6
