REMARK  Name = ZINC25044386
REMARK  7 active torsions:
REMARK  status: ('A' for Active; 'I' for Inactive)
REMARK    1  A    between atoms: C_3  and  C_9
REMARK    2  A    between atoms: N_11  and  C_12
REMARK    3  A    between atoms: C_12  and  C_13
REMARK    4  A    between atoms: C_13  and  C_14
REMARK    5  A    between atoms: C_14  and  O_16
REMARK    6  A    between atoms: O_16  and  C_17
REMARK    7  A    between atoms: C_17  and  C_18
REMARK                            x       y       z     vdW  Elec       q    Type
REMARK                         _______ _______ _______ _____ _____    ______ ____
ROOT
ATOM      1  C   UNL     1       1.741   2.699   6.261  0.00  0.00    +0.308 C 
ENDROOT
BRANCH   1   2
ATOM      2  C   UNL     1       1.113   2.306   4.949  0.00  0.00    +0.170 A 
ATOM      3  N   UNL     1       1.886   1.892   3.961  0.00  0.00    -0.214 NA
ATOM      4  C   UNL     1       1.396   1.533   2.785  0.00  0.00    +0.128 A 
ATOM      5  C   UNL     1      -0.010   1.594   2.575  0.00  0.00    +0.051 A 
ATOM      6  C   UNL     1      -0.771   1.244   1.367  0.00  0.00    -0.025 A 
ATOM      7  C   UNL     1      -2.105   1.407   1.426  0.00  0.00    -0.004 A 
ATOM      8  S   UNL     1      -2.433   1.997   3.067  0.00  0.00    -0.073 S 
ATOM      9  C   UNL     1      -0.768   2.045   3.672  0.00  0.00    +0.114 A 
ATOM     10  N   UNL     1      -0.197   2.383   4.812  0.00  0.00    -0.221 NA
ATOM     11  C   UNL     1      -3.107   1.150   0.343  0.00  0.00    +0.043 C 
ATOM     12  C   UNL     1      -2.857  -0.237  -0.263  0.00  0.00    +0.005 C 
ATOM     13  C   UNL     1      -1.872  -0.085  -1.417  0.00  0.00    +0.001 C 
ATOM     14  C   UNL     1      -0.888   1.045  -1.120  0.00  0.00    +0.005 C 
ATOM     15  C   UNL     1      -0.064   0.721   0.120  0.00  0.00    +0.037 C 
ATOM     16  N   UNL     1       2.239   1.105   1.775  0.00  0.00    -0.343 N 
ATOM     17  H   UNL     1       1.823   0.808   0.801  0.00  0.00    +0.144 HD
ATOM     18  H   UNL     1       3.324   1.061   1.947  0.00  0.00    +0.144 HD
ENDBRANCH   1   2
BRANCH   1  19
ATOM     19  O   UNL     1       1.820   1.536   7.127  0.00  0.00    -0.457 OA
BRANCH  19  20
ATOM     20  C   UNL     1       2.359   1.717   8.343  0.00  0.00    +0.309 C 
ATOM     21  O   UNL     1       2.752   2.811   8.673  0.00  0.00    -0.251 OA
BRANCH  20  22
ATOM     22  C   UNL     1       2.475   0.556   9.297  0.00  0.00    +0.139 C 
BRANCH  22  23
ATOM     23  C   UNL     1       3.119   1.030  10.601  0.00  0.00    +0.115 C 
BRANCH  23  26
ATOM     24  C   UNL     1       3.772   0.083  12.749  0.00  0.00    +0.247 C 
ATOM     25  O   UNL     1       4.167   1.184  13.081  0.00  0.00    -0.270 OA
ATOM     26  N   UNL     1       3.231  -0.099  11.528  0.00  0.00    -0.311 N 
ATOM     27  H   UNL     1       2.874  -1.095  11.228  0.00  0.00    +0.149 HD
BRANCH  24  30
ATOM     28  C   UNL     1       3.541  -3.378  14.180  0.00  0.00    +0.039 A 
ATOM     29  C   UNL     1       3.433  -2.320  13.305  0.00  0.00    +0.019 A 
ATOM     30  C   UNL     1       3.886  -1.054  13.683  0.00  0.00    +0.072 A 
ATOM     31  C   UNL     1       4.452  -0.870  14.949  0.00  0.00    +0.138 A 
ATOM     32  C   UNL     1       4.551  -1.938  15.820  0.00  0.00    +0.077 A 
ATOM     33  C   UNL     1       4.099  -3.190  15.436  0.00  0.00    +0.126 A 
ATOM     34  F   UNL     1       4.203  -4.233  16.289  0.00  0.00    -0.205 F 
ATOM     35  F   UNL     1       4.898   0.350  15.321  0.00  0.00    -0.205 F 
ENDBRANCH  24  30
ENDBRANCH  23  26
ENDBRANCH  22  23
ENDBRANCH  20  22
ENDBRANCH  19  20
ENDBRANCH   1  19
TORSDOF 7
