REMARK  Name = ZINC02777495
REMARK  10 active torsions:
REMARK  status: ('A' for Active; 'I' for Inactive)
REMARK    1  A    between atoms: C_1  and  C_2
REMARK    2  A    between atoms: C_4  and  C_34
REMARK    3  A    between atoms: C_5  and  C_17
REMARK    4  A    between atoms: C_7  and  C_8
REMARK    5  A    between atoms: C_8  and  O_9
REMARK    6  A    between atoms: O_9  and  C_10
REMARK    7  A    between atoms: C_19  and  C_32
REMARK    8  A    between atoms: C_20  and  N_31
REMARK    9  A    between atoms: C_27  and  C_29
REMARK   10  A    between atoms: C_27  and  C_30
REMARK                            x       y       z     vdW  Elec       q    Type
REMARK                         _______ _______ _______ _____ _____    ______ ____
ROOT
ATOM      1  C   UNL     1       1.678  10.431  -0.403  0.00  0.00    +0.101 C 
ATOM      2  C   UNL     1       2.180   9.863  -1.701  0.00  0.00    +0.098 C 
ATOM      3  C   UNL     1       3.026   8.804  -1.705  0.00  0.00    +0.198 C 
ATOM      4  O   UNL     1       3.435   8.233  -0.561  0.00  0.00    -0.445 OA
ATOM      5  C   UNL     1       3.385   8.928   0.590  0.00  0.00    +0.115 C 
ATOM      6  C   UNL     1       2.563   9.983   0.736  0.00  0.00    +0.046 C 
ATOM      7  C   UNL     1       2.498  10.700   1.946  0.00  0.00    +0.164 C 
ATOM      8  O   UNL     1       1.756  11.657   2.034  0.00  0.00    -0.292 OA
ATOM      9  C   UNL     1       3.333  10.301   3.133  0.00  0.00    +0.086 C 
ATOM     10  C   UNL     1       3.607   8.795   3.062  0.00  0.00    -0.021 C 
ATOM     11  C   UNL     1       4.281   8.488   1.724  0.00  0.00    +0.081 C 
ATOM     12  C   UNL     1       2.287   8.027   3.162  0.00  0.00    +0.012 C 
ATOM     13  C   UNL     1       4.530   8.382   4.210  0.00  0.00    +0.012 C 
ENDROOT
BRANCH   1  18
ATOM     14  C   UNL     1      -3.722   8.594   0.521  0.00  0.00    +0.044 C 
ATOM     15  C   UNL     1      -2.314   9.073   0.283  0.00  0.00    -0.044 A 
ATOM     16  C   UNL     1      -2.063  10.421   0.101  0.00  0.00    +0.007 A 
ATOM     17  C   UNL     1      -0.772  10.860  -0.122  0.00  0.00    -0.046 A 
ATOM     18  C   UNL     1       0.270   9.952  -0.160  0.00  0.00    -0.031 A 
ATOM     19  C   UNL     1       0.021   8.605   0.026  0.00  0.00    +0.012 A 
ATOM     20  C   UNL     1      -1.271   8.166   0.250  0.00  0.00    -0.007 A 
ATOM     21  C   UNL     1      -0.500  12.328  -0.324  0.00  0.00    +0.044 C 
BRANCH  20  22
ATOM     22  C   UNL     1      -1.543   6.698   0.453  0.00  0.00    +0.264 C 
BRANCH  22  23
ATOM     23  O   UNL     1      -0.316   5.970   0.370  0.00  0.00    -0.487 OA
BRANCH  23  24
ATOM     24  C   UNL     1      -0.386   4.622   0.531  0.00  0.00    +0.121 A 
ATOM     25  C   UNL     1       0.767   3.854   0.463  0.00  0.00    +0.047 A 
ATOM     26  C   UNL     1       0.694   2.484   0.628  0.00  0.00    +0.019 A 
ATOM     27  C   UNL     1      -0.528   1.879   0.862  0.00  0.00    +0.018 A 
ATOM     28  C   UNL     1      -1.679   2.643   0.925  0.00  0.00    +0.019 A 
ATOM     29  C   UNL     1      -1.610   4.013   0.766  0.00  0.00    +0.047 A 
ATOM     30 BR   UNL     1      -0.625   0.004   1.088  0.00  0.00    -0.050 Br
ENDBRANCH  23  24
ENDBRANCH  22  23
ENDBRANCH  20  22
ENDBRANCH   1  18
BRANCH   3  31
ATOM     31  N   UNL     1       3.474   8.306  -2.903  0.00  0.00    -0.328 N 
ATOM     32  H   UNL     1       4.079   7.548  -2.917  0.00  0.00    +0.145 HD
ATOM     33  H   UNL     1       3.185   8.711  -3.735  0.00  0.00    +0.145 HD
ENDBRANCH   3  31
BRANCH   2  34
ATOM     34  C   UNL     1       1.762  10.444  -2.941  0.00  0.00    +0.101 C 
ATOM     35  N   UNL     1       1.431  10.906  -3.925  0.00  0.00    -0.191 NA
ENDBRANCH   2  34
TORSDOF 6
