REMARK  Name = ZINC59958651
REMARK  4 active torsions:
REMARK  status: ('A' for Active; 'I' for Inactive)
REMARK    1  A    between atoms: C_3  and  O_24
REMARK    2  A    between atoms: C_4  and  N_21
REMARK    3  A    between atoms: C_6  and  C_7
REMARK    4  A    between atoms: N_11  and  C_15
REMARK                            x       y       z     vdW  Elec       q    Type
REMARK                         _______ _______ _______ _____ _____    ______ ____
ROOT
ATOM      1  C   UNL     1      -1.258  -0.758   0.010  0.00  0.00    +0.028 C 
ATOM      2  C   UNL     1      -2.441  -0.102   0.127  0.00  0.00    +0.077 C 
ATOM      3  C   UNL     1      -2.714   1.348   0.153  0.00  0.00    +0.259 C 
ATOM      4  O   UNL     1      -1.820   2.169   0.064  0.00  0.00    -0.269 OA
ATOM      5  N   UNL     1      -3.979   1.711   0.279  0.00  0.00    -0.252 N 
ATOM      6  C   UNL     1      -4.967   0.798   0.377  0.00  0.00    +0.121 C 
ATOM      7  S   UNL     1      -6.650   1.066   0.544  0.00  0.00    -0.027 S 
ATOM      8  S   UNL     1      -4.096  -0.758   0.285  0.00  0.00    -0.061 S 
ENDROOT
BRANCH   1  14
ATOM      9  C   UNL     1       0.146   1.052   0.976  0.00  0.00    +0.011 A 
ATOM     10  C   UNL     1       1.333   1.748   1.034  0.00  0.00    +0.048 A 
ATOM     11  C   UNL     1       2.389   1.397   0.202  0.00  0.00    +0.147 A 
ATOM     12  C   UNL     1       2.255   0.341  -0.693  0.00  0.00    +0.168 A 
ATOM     13  C   UNL     1       1.073  -0.361  -0.760  0.00  0.00    +0.044 A 
ATOM     14  C   UNL     1       0.005  -0.012   0.077  0.00  0.00    -0.021 A 
BRANCH  12  15
ATOM     15  N   UNL     1       3.384  -0.027  -1.576  0.00  0.00    +0.060 N 
ATOM     16  O   UNL     1       3.268  -0.945  -2.354  0.00  0.00    -0.126 OA
ATOM     17  O   UNL     1       4.422   0.589  -1.518  0.00  0.00    -0.126 OA
ENDBRANCH  12  15
BRANCH  11  18
ATOM     18  O   UNL     1       3.557   2.087   0.264  0.00  0.00    -0.504 OA
ATOM     19  H   UNL     1       4.193   1.727   0.897  0.00  0.00    +0.292 HD
ENDBRANCH  11  18
ENDBRANCH   1  14
BRANCH   5  20
ATOM     20  C   UNL     1      -4.316   3.136   0.311  0.00  0.00    +0.083 C 
ATOM     21  C   UNL     1      -5.008   3.466   1.635  0.00  0.00    +0.023 C 
ATOM     22  C   UNL     1      -5.360   4.955   1.669  0.00  0.00    +0.002 C 
ATOM     23  C   UNL     1      -6.299   5.284   0.507  0.00  0.00    +0.000 C 
ATOM     24  C   UNL     1      -5.606   4.954  -0.817  0.00  0.00    +0.002 C 
ATOM     25  C   UNL     1      -5.255   3.466  -0.851  0.00  0.00    +0.023 C 
ENDBRANCH   5  20
TORSDOF 4
