REMARK  Name = ZINC32419717
REMARK  6 active torsions:
REMARK  status: ('A' for Active; 'I' for Inactive)
REMARK    1  A    between atoms: C_1  and  C_2
REMARK    2  A    between atoms: C_2  and  C_3
REMARK    3  A    between atoms: C_2  and  C_4
REMARK    4  A    between atoms: C_2  and  C_5
REMARK    5  A    between atoms: C_11  and  N_13
REMARK    6  A    between atoms: C_14  and  C_16
REMARK                            x       y       z     vdW  Elec       q    Type
REMARK                         _______ _______ _______ _____ _____    ______ ____
ROOT
ATOM      1  N   UNL     1       3.822   1.650  -0.168  0.00  0.00    -0.308 N 
ATOM      2  C   UNL     1       2.809   0.766  -0.079  0.00  0.00    +0.244 C 
ATOM      3  O   UNL     1       3.045  -0.426  -0.035  0.00  0.00    -0.270 OA
ATOM      4  H   UNL     1       3.609   2.728  -0.208  0.00  0.00    +0.149 HD
ENDROOT
BRANCH   2   5
ATOM      5  C   UNL     1       1.414   1.244  -0.035  0.00  0.00    +0.040 A 
ATOM      6  C   UNL     1       1.142   2.614  -0.085  0.00  0.00    +0.015 A 
ATOM      7  C   UNL     1      -0.160   3.062  -0.044  0.00  0.00    +0.028 A 
ATOM      8  C   UNL     1      -1.205   2.152   0.048  0.00  0.00    +0.076 A 
ATOM      9  C   UNL     1      -0.941   0.781   0.094  0.00  0.00    +0.143 A 
ATOM     10  C   UNL     1       0.362   0.328   0.058  0.00  0.00    +0.060 A 
ATOM     11  O   UNL     1      -1.976  -0.097   0.181  0.00  0.00    -0.481 OA
ATOM     12  C   UNL     1      -3.129   0.341   0.905  0.00  0.00    +0.325 C 
ATOM     13  C   UNL     1      -3.497   1.737   0.473  0.00  0.00    +0.255 C 
ATOM     14  O   UNL     1      -4.657   2.091   0.482  0.00  0.00    -0.272 OA
ATOM     15  N   UNL     1      -2.530   2.594   0.088  0.00  0.00    -0.280 N 
ATOM     16  H   UNL     1      -2.774   3.629  -0.192  0.00  0.00    +0.155 HD
ENDBRANCH   2   5
BRANCH   1  22
ATOM     17  C   UNL     1       6.126   2.222   0.421  0.00  0.00    +0.015 C 
ATOM     18  C   UNL     1       6.013   3.536  -0.355  0.00  0.00    +0.006 C 
ATOM     19  C   UNL     1       6.428   3.306  -1.810  0.00  0.00    +0.000 C 
ATOM     20  C   UNL     1       5.509   2.259  -2.443  0.00  0.00    +0.002 C 
ATOM     21  C   UNL     1       5.622   0.945  -1.667  0.00  0.00    +0.022 C 
ATOM     22  C   UNL     1       5.208   1.175  -0.212  0.00  0.00    +0.077 C 
BRANCH  17  24
ATOM     23  C   UNL     1       5.684   1.112   2.615  0.00  0.00    +0.011 C 
ATOM     24  C   UNL     1       5.712   2.451   1.875  0.00  0.00    -0.033 C 
ATOM     25  C   UNL     1       6.717   3.387   2.551  0.00  0.00    +0.011 C 
ATOM     26  C   UNL     1       4.319   3.084   1.915  0.00  0.00    +0.011 C 
ENDBRANCH  17  24
ENDBRANCH   1  22
TORSDOF 3
