REMARK  Name = ZINC44893183
REMARK  5 active torsions:
REMARK  status: ('A' for Active; 'I' for Inactive)
REMARK    1  A    between atoms: C_1  and  C_2
REMARK    2  A    between atoms: C_9  and  O_26
REMARK    3  A    between atoms: C_12  and  C_14
REMARK    4  A    between atoms: C_18  and  O_20
REMARK    5  A    between atoms: O_20  and  C_21
REMARK                            x       y       z     vdW  Elec       q    Type
REMARK                         _______ _______ _______ _____ _____    ______ ____
ROOT
ATOM      1  C   UNL     1      -0.097   1.562  -0.429  0.00  0.00    +0.068 C 
ATOM      2  C   UNL     1      -0.085   0.056  -0.373  0.00  0.00    +0.066 A 
ATOM      3  C   UNL     1      -0.250  -0.804  -1.473  0.00  0.00    +0.036 A 
ATOM      4  C   UNL     1      -0.180  -2.091  -1.010  0.00  0.00    +0.157 A 
ATOM      5  N   UNL     1       0.033  -2.009   0.350  0.00  0.00    -0.260 N 
ATOM      6  H   UNL     1       0.132  -2.760   0.957  0.00  0.00    +0.191 HD
ATOM      7  N   UNL     1       0.086  -0.660   0.702  0.00  0.00    -0.177 NA
ATOM      8  N   UNL     1      -0.288  -3.277  -1.633  0.00  0.00    -0.197 NA
ATOM      9  C   UNL     1      -0.479  -3.674  -2.805  0.00  0.00    +0.199 C 
ATOM     10  C   UNL     1      -0.612  -2.901  -4.058  0.00  0.00    +0.165 C 
ATOM     11  S   UNL     1      -1.520  -1.363  -3.847  0.00  0.00    -0.138 S 
ATOM     12  C   UNL     1      -0.457  -0.297  -2.868  0.00  0.00    +0.112 C 
ENDROOT
BRANCH  12  13
ATOM     13  C   UNL     1      -1.075   1.076  -2.799  0.00  0.00    -0.026 A 
ATOM     14  C   UNL     1      -2.382   1.224  -2.370  0.00  0.00    +0.005 A 
ATOM     15  C   UNL     1      -2.952   2.482  -2.306  0.00  0.00    +0.004 A 
ATOM     16  C   UNL     1      -2.218   3.594  -2.671  0.00  0.00    +0.045 A 
ATOM     17  C   UNL     1      -0.908   3.448  -3.102  0.00  0.00    +0.121 A 
ATOM     18  C   UNL     1      -0.336   2.185  -3.159  0.00  0.00    +0.050 A 
BRANCH  17  19
ATOM     19  O   UNL     1      -0.184   4.540  -3.461  0.00  0.00    -0.489 OA
BRANCH  19  20
ATOM     20  C   UNL     1      -0.785   5.818  -3.242  0.00  0.00    +0.173 C 
ATOM     21  C   UNL     1      -1.645   6.213  -4.461  0.00  0.00    +0.044 C 
ATOM     22  C   UNL     1      -1.430   7.741  -4.597  0.00  0.00    +0.004 C 
ATOM     23  C   UNL     1       0.068   7.909  -4.243  0.00  0.00    +0.004 C 
ATOM     24  C   UNL     1       0.304   6.896  -3.104  0.00  0.00    +0.044 C 
ENDBRANCH  19  20
ENDBRANCH  17  19
ENDBRANCH  12  13
BRANCH   9  25
ATOM     25  O   UNL     1      -0.576  -5.011  -2.947  0.00  0.00    -0.495 OA
ATOM     26  H   UNL     1      -0.486  -5.502  -2.118  0.00  0.00    +0.293 HD
ENDBRANCH   9  25
TORSDOF 4
