REMARK  Name = ZINC32666484
REMARK  12 active torsions:
REMARK  status: ('A' for Active; 'I' for Inactive)
REMARK    1  A    between atoms: C_1  and  C_2
REMARK    2  A    between atoms: C_2  and  N_3
REMARK    3  A    between atoms: N_3  and  C_4
REMARK    4  A    between atoms: C_5  and  N_20
REMARK    5  A    between atoms: N_6  and  C_13
REMARK    6  A    between atoms: C_13  and  C_14
REMARK    7  A    between atoms: C_21  and  C_23
REMARK    8  A    between atoms: C_23  and  O_24
REMARK    9  A    between atoms: O_24  and  C_25
REMARK   10  A    between atoms: C_25  and  C_27
REMARK   11  A    between atoms: C_32  and  O_33
REMARK   12  A    between atoms: O_33  and  C_34
REMARK                            x       y       z     vdW  Elec       q    Type
REMARK                         _______ _______ _______ _____ _____    ______ ____
ROOT
ATOM      1  N   UNL     1       0.560   0.637   0.591  0.00  0.00    -0.262 N 
ATOM      2  C   UNL     1       0.399  -0.645   0.202  0.00  0.00    +0.258 C 
ATOM      3  O   UNL     1       1.363  -1.306  -0.124  0.00  0.00    -0.272 OA
ENDROOT
BRANCH   1   4
ATOM      4  C   UNL     1       1.857   1.182   0.706  0.00  0.00    +0.140 A 
ATOM      5  C   UNL     1       2.750   0.676   1.628  0.00  0.00    +0.128 A 
ATOM      6  N   UNL     1       4.009   1.224   1.713  0.00  0.00    -0.276 N 
ATOM      7  C   UNL     1       4.361   2.248   0.915  0.00  0.00    +0.331 A 
ATOM      8  O   UNL     1       5.477   2.722   1.009  0.00  0.00    -0.246 OA
ATOM      9  N   UNL     1       3.502   2.757   0.014  0.00  0.00    -0.273 N 
ATOM     10  H   UNL     1       3.811   3.594  -0.629  0.00  0.00    +0.173 HD
ATOM     11  C   UNL     1       2.259   2.253  -0.113  0.00  0.00    +0.277 A 
ATOM     12  O   UNL     1       1.488   2.721  -0.934  0.00  0.00    -0.266 OA
BRANCH   5  13
ATOM     13  N   UNL     1       2.389  -0.365   2.449  0.00  0.00    -0.343 N 
ATOM     14  H   UNL     1       3.106  -0.763   3.182  0.00  0.00    +0.144 HD
ATOM     15  H   UNL     1       1.382  -0.801   2.372  0.00  0.00    +0.144 HD
ENDBRANCH   5  13
BRANCH   6  16
ATOM     16  C   UNL     1       4.970   0.694   2.684  0.00  0.00    +0.163 C 
BRANCH  16  17
ATOM     17  C   UNL     1       4.825   1.434   3.989  0.00  0.00    -0.028 A 
ATOM     18  C   UNL     1       5.574   2.572   4.226  0.00  0.00    +0.005 A 
ATOM     19  C   UNL     1       5.437   3.253   5.421  0.00  0.00    +0.000 A 
ATOM     20  C   UNL     1       4.560   2.790   6.384  0.00  0.00    +0.000 A 
ATOM     21  C   UNL     1       3.816   1.649   6.150  0.00  0.00    +0.000 A 
ATOM     22  C   UNL     1       3.948   0.971   4.952  0.00  0.00    +0.005 A 
ENDBRANCH  16  17
ENDBRANCH   6  16
ENDBRANCH   1   4
BRANCH   1  24
ATOM     23  C   UNL     1      -0.903   1.418   2.388  0.00  0.00    +0.025 C 
ATOM     24  C   UNL     1      -0.611   1.466   0.887  0.00  0.00    +0.110 C 
ENDBRANCH   1  24
BRANCH   2  25
ATOM     25  C   UNL     1      -0.979  -1.256   0.173  0.00  0.00    +0.328 C 
BRANCH  25  26
ATOM     26  O   UNL     1      -0.888  -2.633  -0.276  0.00  0.00    -0.452 OA
BRANCH  26  27
ATOM     27  C   UNL     1      -2.040  -3.327  -0.358  0.00  0.00    +0.343 C 
ATOM     28  O   UNL     1      -3.092  -2.795  -0.063  0.00  0.00    -0.245 OA
BRANCH  27  29
ATOM     29  C   UNL     1      -2.024  -4.731  -0.807  0.00  0.00    +0.101 A 
ATOM     30  C   UNL     1      -0.817  -5.347  -1.148  0.00  0.00    +0.018 A 
ATOM     31  C   UNL     1      -0.809  -6.659  -1.567  0.00  0.00    +0.001 A 
ATOM     32  C   UNL     1      -1.994  -7.373  -1.651  0.00  0.00    +0.004 A 
ATOM     33  C   UNL     1      -3.194  -6.778  -1.318  0.00  0.00    +0.047 A 
ATOM     34  C   UNL     1      -3.220  -5.459  -0.889  0.00  0.00    +0.142 A 
BRANCH  34  35
ATOM     35  O   UNL     1      -4.398  -4.874  -0.555  0.00  0.00    -0.455 OA
BRANCH  35  36
ATOM     36  C   UNL     1      -5.058  -4.176  -1.516  0.00  0.00    +0.128 A 
ATOM     37  C   UNL     1      -4.568  -4.146  -2.814  0.00  0.00    +0.046 A 
ATOM     38  C   UNL     1      -5.244  -3.440  -3.790  0.00  0.00    +0.004 A 
ATOM     39  C   UNL     1      -6.402  -2.755  -3.472  0.00  0.00    +0.000 A 
ATOM     40  C   UNL     1      -6.890  -2.779  -2.179  0.00  0.00    +0.004 A 
ATOM     41  C   UNL     1      -6.221  -3.488  -1.200  0.00  0.00    +0.046 A 
ENDBRANCH  35  36
ENDBRANCH  34  35
ENDBRANCH  27  29
ENDBRANCH  26  27
ENDBRANCH  25  26
ENDBRANCH   2  25
TORSDOF 11
