REMARK  Name = ZINC11617093
REMARK  4 active torsions:
REMARK  status: ('A' for Active; 'I' for Inactive)
REMARK    1  A    between atoms: C_4  and  C_7
REMARK    2  A    between atoms: C_20  and  C_22
REMARK    3  A    between atoms: C_25  and  C_28
REMARK    4  A    between atoms: C_28  and  C_30
REMARK                            x       y       z     vdW  Elec       q    Type
REMARK                         _______ _______ _______ _____ _____    ______ ____
ROOT
ATOM      1  C   UNL     1      -7.510  -3.140  -0.118  0.00  0.00    +0.139 C 
ATOM      2  C   UNL     1      -7.947  -2.909   1.300  0.00  0.00    -0.000 A 
ATOM      3  C   UNL     1      -8.664  -3.947   1.892  0.00  0.00    +0.027 A 
ATOM      4  C   UNL     1      -9.128  -3.852   3.186  0.00  0.00    +0.041 A 
ATOM      5  C   UNL     1      -8.877  -2.702   3.914  0.00  0.00    +0.022 A 
ATOM      6  C   UNL     1      -8.170  -1.674   3.340  0.00  0.00    +0.025 A 
ATOM      7  C   UNL     1      -7.690  -1.761   2.022  0.00  0.00    +0.039 A 
ATOM      8  N   UNL     1      -6.996  -0.659   1.581  0.00  0.00    -0.284 N 
ATOM      9  C   UNL     1      -6.194  -0.375   0.596  0.00  0.00    +0.235 C 
ATOM     10  O   UNL     1      -5.490   0.604   0.731  0.00  0.00    -0.274 OA
ATOM     11  C   UNL     1      -6.053  -1.131  -0.685  0.00  0.00    +0.205 C 
ATOM     12  N   UNL     1      -6.240  -2.552  -0.452  0.00  0.00    -0.278 N 
ATOM     13  C   UNL     1      -5.169  -3.364  -0.558  0.00  0.00    +0.248 C 
ATOM     14  O   UNL     1      -4.085  -2.903  -0.855  0.00  0.00    -0.270 OA
ATOM     15 CL   UNL     1     -10.017  -5.163   3.896  0.00  0.00    -0.084 Cl
ATOM     16  H   UNL     1      -7.143   0.109   2.155  0.00  0.00    +0.155 HD
ENDROOT
BRANCH   1  20
ATOM     17  C   UNL     1     -10.475  -1.525  -2.735  0.00  0.00    +0.000 A 
ATOM     18  C   UNL     1     -10.105  -2.852  -2.845  0.00  0.00    +0.000 A 
ATOM     19  C   UNL     1      -9.146  -3.375  -1.998  0.00  0.00    +0.006 A 
ATOM     20  C   UNL     1      -8.556  -2.570  -1.041  0.00  0.00    -0.023 A 
ATOM     21  C   UNL     1      -8.930  -1.244  -0.928  0.00  0.00    +0.006 A 
ATOM     22  C   UNL     1      -9.886  -0.720  -1.778  0.00  0.00    +0.000 A 
ENDBRANCH   1  20
BRANCH  13  23
ATOM     23  C   UNL     1      -5.314  -4.816  -0.313  0.00  0.00    +0.037 A 
ATOM     24  C   UNL     1      -4.513  -5.724  -1.008  0.00  0.00    +0.014 A 
ATOM     25  C   UNL     1      -4.647  -7.077  -0.780  0.00  0.00    +0.012 A 
ATOM     26  C   UNL     1      -5.585  -7.539   0.146  0.00  0.00    +0.022 A 
ATOM     27  C   UNL     1      -6.391  -6.630   0.837  0.00  0.00    +0.012 A 
ATOM     28  C   UNL     1      -6.252  -5.278   0.612  0.00  0.00    +0.014 A 
BRANCH  26  29
ATOM     29  C   UNL     1      -5.730  -8.991   0.391  0.00  0.00    +0.193 C 
ATOM     30  O   UNL     1      -5.578  -9.779  -0.522  0.00  0.00    -0.287 OA
BRANCH  29  31
ATOM     31  C   UNL     1      -6.061  -9.482   1.744  0.00  0.00    +0.022 A 
ATOM     32  C   UNL     1      -5.578  -8.812   2.871  0.00  0.00    +0.012 A 
ATOM     33  C   UNL     1      -5.895  -9.274   4.131  0.00  0.00    +0.001 A 
ATOM     34  C   UNL     1      -6.680 -10.404   4.281  0.00  0.00    +0.000 A 
ATOM     35  C   UNL     1      -7.156 -11.076   3.169  0.00  0.00    +0.001 A 
ATOM     36  C   UNL     1      -6.852 -10.623   1.902  0.00  0.00    +0.012 A 
ENDBRANCH  29  31
ENDBRANCH  26  29
ENDBRANCH  13  23
TORSDOF 4
