REMARK  Name = ZINC63868080
REMARK  4 active torsions:
REMARK  status: ('A' for Active; 'I' for Inactive)
REMARK    1  A    between atoms: C_1  and  O_2
REMARK    2  A    between atoms: O_2  and  C_3
REMARK    3  A    between atoms: C_8  and  C_9
REMARK    4  A    between atoms: N_18  and  C_19
REMARK                            x       y       z     vdW  Elec       q    Type
REMARK                         _______ _______ _______ _____ _____    ______ ____
ROOT
ATOM      1  C   UNL     1       0.051  -2.828  -0.033  0.00  0.00    +0.209 C 
ATOM      2  N   UNL     1       0.732  -4.151   0.046  0.00  0.00    -0.267 NA
ATOM      3  C   UNL     1       1.832  -3.846   0.970  0.00  0.00    +0.217 C 
ATOM      4  C   UNL     1       1.245  -2.779   1.894  0.00  0.00    +0.094 C 
ATOM      5  N   UNL     1       0.274  -2.196   1.277  0.00  0.00    -0.260 NA
ATOM      6  C   UNL     1       1.989  -3.006   3.134  0.00  0.00    +0.156 C 
ATOM      7  N   UNL     1       2.408  -4.242   3.143  0.00  0.00    -0.184 NA
ATOM      8  N   UNL     1       2.155  -4.917   1.916  0.00  0.00    -0.201 N 
ATOM      9  H   UNL     1       0.118  -4.851   0.434  0.00  0.00    +0.126 HD
ENDROOT
BRANCH   1  15
ATOM     10  C   UNL     1       0.606  -0.607  -1.056  0.00  0.00    +0.127 A 
ATOM     11  C   UNL     1       1.173   0.161  -2.063  0.00  0.00    +0.046 A 
ATOM     12  C   UNL     1       1.786  -0.455  -3.136  0.00  0.00    +0.004 A 
ATOM     13  C   UNL     1       1.836  -1.835  -3.208  0.00  0.00    +0.001 A 
ATOM     14  C   UNL     1       1.271  -2.602  -2.207  0.00  0.00    +0.010 A 
ATOM     15  C   UNL     1       0.661  -1.991  -1.128  0.00  0.00    +0.033 A 
BRANCH  10  17
ATOM     16  C   UNL     1      -0.017   1.425   0.010  0.00  0.00    +0.277 C 
ATOM     17  O   UNL     1       0.002  -0.004   0.002  0.00  0.00    -0.495 OA
ENDBRANCH  10  17
ENDBRANCH   1  15
BRANCH   8  18
ATOM     18  C   UNL     1       2.192  -6.289   1.663  0.00  0.00    +0.054 A 
ATOM     19  C   UNL     1       1.906  -6.771   0.391  0.00  0.00    +0.025 A 
ATOM     20  C   UNL     1       1.943  -8.129   0.145  0.00  0.00    +0.002 A 
ATOM     21  C   UNL     1       2.264  -9.010   1.161  0.00  0.00    +0.000 A 
ATOM     22  C   UNL     1       2.550  -8.534   2.428  0.00  0.00    +0.002 A 
ATOM     23  C   UNL     1       2.520  -7.177   2.681  0.00  0.00    +0.025 A 
ENDBRANCH   8  18
TORSDOF 3
