REMARK  Name = ZINC00047161
REMARK  5 active torsions:
REMARK  status: ('A' for Active; 'I' for Inactive)
REMARK    1  A    between atoms: C_1  and  C_2
REMARK    2  A    between atoms: C_5  and  C_8
REMARK    3  A    between atoms: C_13  and  O_24
REMARK    4  A    between atoms: C_15  and  C_22
REMARK    5  A    between atoms: C_15  and  C_23
REMARK                            x       y       z     vdW  Elec       q    Type
REMARK                         _______ _______ _______ _____ _____    ______ ____
ROOT
ATOM      1  C   UNL     1      -1.310   2.116   0.020  0.00  0.00    +0.182 A 
ATOM      2  N   UNL     1      -2.525   1.548   0.023  0.00  0.00    -0.201 NA
ATOM      3  C   UNL     1      -3.438   2.485   0.049  0.00  0.00    +0.191 A 
ATOM      4  N   UNL     1      -2.846   3.695   0.010  0.00  0.00    -0.206 N 
ATOM      5  N   UNL     1      -1.452   3.419   0.033  0.00  0.00    -0.146 NA
ATOM      6  C   UNL     1      -3.693   4.898  -0.062  0.00  0.00    +0.181 C 
ATOM      7  C   UNL     1      -3.350   5.635  -1.335  0.00  0.00    +0.068 C 
ATOM      8  C   UNL     1      -4.404   6.564  -1.877  0.00  0.00    -0.024 C 
ATOM      9  C   UNL     1      -5.735   5.854  -2.077  0.00  0.00    +0.082 C 
ATOM     10  C   UNL     1      -6.129   5.175  -0.801  0.00  0.00    +0.152 C 
ATOM     11  O   UNL     1      -7.305   5.091  -0.541  0.00  0.00    -0.296 OA
ATOM     12  C   UNL     1      -5.163   4.603   0.156  0.00  0.00    +0.174 C 
ATOM     13  S   UNL     1      -5.190   2.776   0.142  0.00  0.00    -0.070 S 
ATOM     14  C   UNL     1      -4.599   7.721  -0.895  0.00  0.00    +0.011 C 
ATOM     15  C   UNL     1      -3.931   7.124  -3.220  0.00  0.00    +0.011 C 
ENDROOT
BRANCH   1  20
ATOM     16  C   UNL     1       3.710  -0.706  -0.036  0.00  0.00    +0.044 C 
ATOM     17  C   UNL     1       2.396   0.033  -0.020  0.00  0.00    -0.050 A 
ATOM     18  C   UNL     1       1.208  -0.675  -0.013  0.00  0.00    +0.004 A 
ATOM     19  C   UNL     1       0.002  -0.004   0.002  0.00  0.00    +0.012 A 
ATOM     20  C   UNL     1      -0.017   1.389   0.010  0.00  0.00    +0.021 A 
ATOM     21  C   UNL     1       1.183   2.097   0.002  0.00  0.00    +0.012 A 
ATOM     22  C   UNL     1       2.383   1.416  -0.013  0.00  0.00    +0.004 A 
ENDBRANCH   1  20
BRANCH   6  23
ATOM     23  O   UNL     1      -3.291   5.742   1.019  0.00  0.00    -0.367 OA
ATOM     24  H   UNL     1      -3.385   5.336   1.891  0.00  0.00    +0.212 HD
ENDBRANCH   6  23
TORSDOF 2
