REMARK  Name = ZINC34725133
REMARK  9 active torsions:
REMARK  status: ('A' for Active; 'I' for Inactive)
REMARK    1  A    between atoms: C_1  and  C_2
REMARK    2  A    between atoms: C_3  and  C_25
REMARK    3  A    between atoms: N_11  and  C_20
REMARK    4  A    between atoms: N_14  and  C_15
REMARK    5  A    between atoms: C_15  and  C_16
REMARK    6  A    between atoms: C_16  and  C_17
REMARK    7  A    between atoms: C_17  and  C_18
REMARK    8  A    between atoms: C_17  and  C_19
REMARK    9  A    between atoms: C_20  and  C_21
REMARK                            x       y       z     vdW  Elec       q    Type
REMARK                         _______ _______ _______ _____ _____    ______ ____
ROOT
ATOM      1  C   UNL     1      -0.018   1.503   0.010  0.00  0.00    +0.039 C 
ATOM      2  C   UNL     1       0.002  -0.004   0.002  0.00  0.00    -0.064 C 
ATOM      3  C   UNL     1      -1.051  -0.800   0.003  0.00  0.00    -0.042 C 
ATOM      4  C   UNL     1      -0.654  -2.236  -0.007  0.00  0.00    +0.003 A 
ATOM      5  C   UNL     1       0.704  -2.285  -0.014  0.00  0.00    +0.004 A 
ATOM      6  S   UNL     1       1.104  -4.011  -0.025  0.00  0.00    -0.074 S 
ATOM      7  C   UNL     1      -0.542  -4.670  -0.021  0.00  0.00    +0.097 A 
ATOM      8  C   UNL     1      -1.353  -3.540  -0.011  0.00  0.00    +0.078 A 
ATOM      9  C   UNL     1      -2.808  -3.794  -0.005  0.00  0.00    +0.266 A 
ATOM     10  O   UNL     1      -3.597  -2.867   0.003  0.00  0.00    -0.267 OA
ATOM     11  N   UNL     1      -3.251  -5.065  -0.009  0.00  0.00    -0.251 N 
ATOM     12  C   UNL     1      -2.407  -6.110  -0.018  0.00  0.00    +0.333 A 
ATOM     13  O   UNL     1      -2.857  -7.239  -0.021  0.00  0.00    -0.246 OA
ATOM     14  N   UNL     1      -1.071  -5.931  -0.025  0.00  0.00    -0.287 N 
ATOM     15  C   UNL     1       1.233  -0.882  -0.015  0.00  0.00    +0.073 C 
ATOM     16  C   UNL     1      -2.478  -0.316   0.012  0.00  0.00    +0.044 C 
ENDROOT
BRANCH  14  17
ATOM     17  C   UNL     1      -0.181  -7.094  -0.036  0.00  0.00    +0.127 C 
BRANCH  17  18
ATOM     18  C   UNL     1       0.136  -7.507   1.403  0.00  0.00    +0.025 C 
BRANCH  18  19
ATOM     19  C   UNL     1       1.066  -8.722   1.392  0.00  0.00    -0.016 C 
ATOM     20  C   UNL     1       2.411  -8.329   0.779  0.00  0.00    +0.007 C 
ATOM     21  C   UNL     1       1.283  -9.211   2.826  0.00  0.00    +0.007 C 
ENDBRANCH  18  19
ENDBRANCH  17  18
ENDBRANCH  14  17
BRANCH  11  22
ATOM     22  C   UNL     1      -4.694  -5.316  -0.004  0.00  0.00    +0.225 C 
BRANCH  22  23
ATOM     23  C   UNL     1      -5.196  -5.394  -1.423  0.00  0.00    +0.231 C 
ATOM     24  O   UNL     1      -4.424  -5.255  -2.347  0.00  0.00    -0.274 OA
ATOM     25  N   UNL     1      -6.502  -5.620  -1.664  0.00  0.00    -0.328 N 
ATOM     26  H   UNL     1      -7.120  -5.732  -0.924  0.00  0.00    +0.145 HD
ATOM     27  H   UNL     1      -6.825  -5.671  -2.577  0.00  0.00    +0.145 HD
ENDBRANCH  22  23
ENDBRANCH  11  22
TORSDOF 5
