REMARK  Name = ZINC51700215
REMARK  4 active torsions:
REMARK  status: ('A' for Active; 'I' for Inactive)
REMARK    1  A    between atoms: C_1  and  O_2
REMARK    2  A    between atoms: O_2  and  C_3
REMARK    3  A    between atoms: C_3  and  C_4
REMARK    4  A    between atoms: C_10  and  C_12
REMARK                            x       y       z     vdW  Elec       q    Type
REMARK                         _______ _______ _______ _____ _____    ______ ____
ROOT
ATOM      1  C   UNL     1       0.614  -2.074  -1.042  0.00  0.00    +0.074 A 
ATOM      2  C   UNL     1      -0.087  -2.797  -1.965  0.00  0.00    +0.095 A 
ATOM      3  C   UNL     1      -0.110  -4.200  -1.858  0.00  0.00    +0.252 A 
ATOM      4  O   UNL     1      -0.726  -4.875  -2.666  0.00  0.00    -0.268 OA
ATOM      5  N   UNL     1       0.564  -4.785  -0.845  0.00  0.00    -0.304 N 
ATOM      6  H   UNL     1       0.563  -5.750  -0.752  0.00  0.00    +0.170 HD
ATOM      7  C   UNL     1       1.249  -4.009   0.050  0.00  0.00    +0.177 A 
ATOM      8  N   UNL     1       1.267  -2.692  -0.064  0.00  0.00    -0.229 NA
ENDROOT
BRANCH   7   9
ATOM      9  C   UNL     1       1.979  -4.649   1.147  0.00  0.00    +0.171 A 
ATOM     10  C   UNL     1       2.699  -4.005   2.114  0.00  0.00    +0.054 A 
ATOM     11  C   UNL     1       3.225  -4.999   2.954  0.00  0.00    +0.057 A 
ATOM     12  C   UNL     1       2.809  -6.191   2.470  0.00  0.00    +0.171 A 
ATOM     13  O   UNL     1       2.053  -5.975   1.384  0.00  0.00    -0.445 OA
ATOM     14 BR   UNL     1       3.219  -7.884   3.207  0.00  0.00    -0.008 Br
ENDBRANCH   7   9
BRANCH   1  15
ATOM     15  C   UNL     1       0.652  -0.570  -1.138  0.00  0.00    +0.214 C 
BRANCH  15  17
ATOM     16  C   UNL     1      -0.017   1.425   0.010  0.00  0.00    +0.194 C 
ATOM     17  O   UNL     1       0.002  -0.004   0.002  0.00  0.00    -0.377 OA
ENDBRANCH  15  17
ENDBRANCH   1  15
TORSDOF 3
