REMARK  Name = ZINC28059776
REMARK  10 active torsions:
REMARK  status: ('A' for Active; 'I' for Inactive)
REMARK    1  A    between atoms: C_1  and  C_2
REMARK    2  A    between atoms: C_10  and  C_13
REMARK    3  A    between atoms: C_16  and  C_19
REMARK    4  A    between atoms: C_19  and  O_21
REMARK    5  A    between atoms: O_21  and  C_22
REMARK    6  A    between atoms: C_23  and  C_31
REMARK    7  A    between atoms: C_34  and  O_39
REMARK    8  A    between atoms: C_35  and  O_37
REMARK    9  A    between atoms: O_37  and  C_38
REMARK   10  A    between atoms: O_39  and  C_40
REMARK                            x       y       z     vdW  Elec       q    Type
REMARK                         _______ _______ _______ _____ _____    ______ ____
ROOT
ATOM      1  C   UNL     1      -0.136   1.238  -0.988  0.00  0.00    +0.044 C 
ATOM      2  C   UNL     1      -0.081  -0.250  -0.756  0.00  0.00    -0.050 A 
ATOM      3  C   UNL     1      -0.045  -1.115  -1.836  0.00  0.00    +0.007 A 
ATOM      4  C   UNL     1       0.011  -2.483  -1.640  0.00  0.00    +0.046 A 
ATOM      5  C   UNL     1       0.020  -2.992  -0.354  0.00  0.00    +0.131 A 
ATOM      6  C   UNL     1      -0.022  -2.118   0.740  0.00  0.00    +0.038 A 
ATOM      7  C   UNL     1      -0.073  -0.746   0.534  0.00  0.00    +0.016 A 
ATOM      8  C   UNL     1      -0.013  -2.697   2.105  0.00  0.00    +0.050 C 
ATOM      9  C   UNL     1       0.359  -3.970   2.253  0.00  0.00    +0.025 C 
ATOM     10  C   UNL     1       0.789  -4.758   1.036  0.00  0.00    +0.234 C 
ATOM     11  O   UNL     1       0.071  -4.328  -0.120  0.00  0.00    -0.479 OA
ATOM     12  C   UNL     1       0.382  -4.654   3.598  0.00  0.00    +0.174 C 
ATOM     13  N   UNL     1       0.258  -3.668   4.663  0.00  0.00    -0.201 N 
ATOM     14  C   UNL     1      -0.110  -2.376   4.460  0.00  0.00    +0.240 A 
ATOM     15  N   UNL     1      -0.124  -1.789   5.622  0.00  0.00    -0.092 NA
ATOM     16  N   UNL     1       0.215  -2.622   6.546  0.00  0.00    -0.021 NA
ATOM     17  N   UNL     1       0.464  -3.785   6.037  0.00  0.00    -0.042 NA
ATOM     18  N   UNL     1      -0.387  -1.896   3.191  0.00  0.00    -0.282 N 
ATOM     19  H   UNL     1      -0.879  -0.928   3.016  0.00  0.00    +0.155 HD
ENDROOT
BRANCH  10  20
ATOM     20  C   UNL     1       2.265  -4.556   0.808  0.00  0.00    -0.003 A 
ATOM     21  C   UNL     1       3.158  -5.557   1.148  0.00  0.00    +0.008 A 
ATOM     22  C   UNL     1       4.510  -5.380   0.937  0.00  0.00    +0.015 A 
ATOM     23  C   UNL     1       4.977  -4.183   0.390  0.00  0.00    +0.059 A 
ATOM     24  C   UNL     1       4.071  -3.175   0.055  0.00  0.00    +0.015 A 
ATOM     25  C   UNL     1       2.721  -3.367   0.266  0.00  0.00    +0.008 A 
BRANCH  23  26
ATOM     26  C   UNL     1       6.424  -3.985   0.167  0.00  0.00    +0.339 C 
ATOM     27  O   UNL     1       6.828  -2.942  -0.308  0.00  0.00    -0.245 OA
BRANCH  26  28
ATOM     28  O   UNL     1       7.295  -4.959   0.492  0.00  0.00    -0.464 OA
ATOM     29  C   UNL     1       8.702  -4.695   0.245  0.00  0.00    +0.280 C 
ENDBRANCH  26  28
ENDBRANCH  23  26
ENDBRANCH  10  20
BRANCH  12  30
ATOM     30  C   UNL     1      -0.766  -5.627   3.682  0.00  0.00    -0.015 A 
ATOM     31  C   UNL     1      -2.066  -5.174   3.557  0.00  0.00    +0.010 A 
ATOM     32  C   UNL     1      -3.122  -6.063   3.633  0.00  0.00    +0.050 A 
ATOM     33  C   UNL     1      -2.878  -7.412   3.836  0.00  0.00    +0.162 A 
ATOM     34  C   UNL     1      -1.570  -7.868   3.963  0.00  0.00    +0.162 A 
ATOM     35  C   UNL     1      -0.516  -6.972   3.880  0.00  0.00    +0.055 A 
BRANCH  34  36
ATOM     36  O   UNL     1      -1.326  -9.191   4.162  0.00  0.00    -0.491 OA
ATOM     37  C   UNL     1       0.042  -9.587   4.283  0.00  0.00    +0.277 C 
ENDBRANCH  34  36
BRANCH  33  38
ATOM     38  O   UNL     1      -3.916  -8.287   3.911  0.00  0.00    -0.491 OA
ATOM     39  C   UNL     1      -5.232  -7.748   3.772  0.00  0.00    +0.277 C 
ENDBRANCH  33  38
ENDBRANCH  12  30
TORSDOF 6
