REMARK  Name = ZINC63537989
REMARK  8 active torsions:
REMARK  status: ('A' for Active; 'I' for Inactive)
REMARK    1  A    between atoms: C_1  and  O_2
REMARK    2  A    between atoms: O_2  and  C_3
REMARK    3  A    between atoms: C_6  and  N_9
REMARK    4  A    between atoms: N_11  and  C_28
REMARK    5  A    between atoms: C_15  and  C_16
REMARK    6  A    between atoms: C_19  and  N_21
REMARK    7  A    between atoms: C_28  and  C_29
REMARK    8  A    between atoms: C_29  and  C_30
REMARK                            x       y       z     vdW  Elec       q    Type
REMARK                         _______ _______ _______ _____ _____    ______ ____
ROOT
ATOM      1  N   UNL     1       2.497  -2.409  -4.286  0.00  0.00    -0.225 NA
ATOM      2  C   UNL     1       3.257  -3.462  -4.084  0.00  0.00    +0.168 C 
ATOM      3  N   UNL     1       3.714  -4.390  -4.999  0.00  0.00    -0.246 N 
ATOM      4  C   UNL     1       4.478  -5.393  -4.600  0.00  0.00    +0.259 C 
ATOM      5  O   UNL     1       4.888  -6.219  -5.396  0.00  0.00    -0.269 OA
ATOM      6  C   UNL     1       4.810  -5.485  -3.220  0.00  0.00    +0.081 C 
ATOM      7  C   UNL     1       5.580  -6.424  -2.570  0.00  0.00    +0.066 C 
ATOM      8  S   UNL     1       3.970  -4.054  -2.557  0.00  0.00    -0.049 S 
ENDROOT
BRANCH   1  12
ATOM      9  C   UNL     1       1.462   0.040  -1.111  0.00  0.00    +0.120 A 
ATOM     10  C   UNL     1       1.883   0.600  -2.309  0.00  0.00    +0.048 A 
ATOM     11  C   UNL     1       2.228  -0.211  -3.369  0.00  0.00    +0.031 A 
ATOM     12  C   UNL     1       2.155  -1.599  -3.236  0.00  0.00    +0.067 A 
ATOM     13  C   UNL     1       1.731  -2.159  -2.029  0.00  0.00    +0.031 A 
ATOM     14  C   UNL     1       1.393  -1.340  -0.973  0.00  0.00    +0.048 A 
BRANCH   9  16
ATOM     15  C   UNL     1       1.217   2.254  -0.279  0.00  0.00    +0.277 C 
ATOM     16  O   UNL     1       1.123   0.844  -0.069  0.00  0.00    -0.495 OA
ENDBRANCH   9  16
ENDBRANCH   1  12
BRANCH   7  17
ATOM     17  C   UNL     1       6.308  -7.373  -3.312  0.00  0.00    +0.131 A 
ATOM     18  C   UNL     1       7.006  -8.450  -2.793  0.00  0.00    +0.051 A 
ATOM     19  C   UNL     1       7.574  -9.120  -3.881  0.00  0.00    +0.066 A 
ATOM     20  C   UNL     1       7.210  -8.443  -5.007  0.00  0.00    +0.189 A 
ATOM     21  O   UNL     1       6.444  -7.398  -4.657  0.00  0.00    -0.442 OA
BRANCH  20  22
ATOM     22  N   UNL     1       7.566  -8.781  -6.298  0.00  0.00    -0.301 N 
ATOM     23  C   UNL     1       8.402  -9.961  -6.560  0.00  0.00    +0.108 C 
ATOM     24  C   UNL     1       7.692 -10.851  -7.584  0.00  0.00    +0.019 C 
ATOM     25  C   UNL     1       7.361 -10.027  -8.830  0.00  0.00    +0.003 C 
ATOM     26  C   UNL     1       6.420  -8.881  -8.450  0.00  0.00    +0.019 C 
ATOM     27  C   UNL     1       7.111  -7.971  -7.437  0.00  0.00    +0.108 C 
ENDBRANCH  20  22
ENDBRANCH   7  17
BRANCH   3  28
ATOM     28  C   UNL     1       3.352  -4.264  -6.412  0.00  0.00    +0.120 C 
BRANCH  28  29
ATOM     29  C   UNL     1       4.401  -3.416  -7.134  0.00  0.00    +0.052 C 
BRANCH  29  30
ATOM     30  C   UNL     1       4.028  -3.286  -8.588  0.00  0.00    -0.040 C 
ATOM     31  C   UNL     1       3.343  -2.272  -9.165  0.00  0.00    -0.001 A 
ATOM     32  C   UNL     1       2.762  -1.034  -8.631  0.00  0.00    +0.010 A 
ATOM     33  C   UNL     1       2.119  -0.194  -9.474  0.00  0.00    +0.001 A 
ATOM     34  C   UNL     1       1.994  -0.475 -10.841  0.00  0.00    +0.002 A 
ATOM     35  C   UNL     1       2.501  -1.592 -11.405  0.00  0.00    +0.026 A 
ATOM     36  C   UNL     1       3.198  -2.545 -10.612  0.00  0.00    +0.043 A 
ATOM     37  N   UNL     1       3.770  -3.684 -10.919  0.00  0.00    -0.380 N 
ATOM     38  C   UNL     1       4.349  -4.260  -9.700  0.00  0.00    +0.144 C 
ATOM     39  H   UNL     1       3.807  -4.079 -11.804  0.00  0.00    +0.160 HD
ENDBRANCH  29  30
ENDBRANCH  28  29
ENDBRANCH   3  28
TORSDOF 7
