REMARK  Name = ZINC38492559
REMARK  7 active torsions:
REMARK  status: ('A' for Active; 'I' for Inactive)
REMARK    1  A    between atoms: C_1  and  C_2
REMARK    2  A    between atoms: C_2  and  C_3
REMARK    3  A    between atoms: C_2  and  C_4
REMARK    4  A    between atoms: C_2  and  C_5
REMARK    5  A    between atoms: N_7  and  C_8
REMARK    6  A    between atoms: C_10  and  C_16
REMARK    7  A    between atoms: N_12  and  C_15
REMARK                            x       y       z     vdW  Elec       q    Type
REMARK                         _______ _______ _______ _____ _____    ______ ____
ROOT
ATOM      1  C   UNL     1       1.405  -2.168  -2.712  0.00  0.00    +0.099 A 
ATOM      2  C   UNL     1       1.506  -3.486  -3.050  0.00  0.00    +0.043 A 
ATOM      3  C   UNL     1       2.192  -3.839  -4.238  0.00  0.00    +0.055 A 
ATOM      4  C   UNL     1       2.741  -2.849  -5.026  0.00  0.00    +0.102 A 
ATOM      5  N   UNL     1       2.631  -1.553  -4.676  0.00  0.00    -0.316 N 
ATOM      6  C   UNL     1       1.980  -1.190  -3.555  0.00  0.00    +0.272 A 
ATOM      7  O   UNL     1       1.890  -0.009  -3.263  0.00  0.00    -0.266 OA
ATOM      8  C   UNL     1       3.224  -0.522  -5.531  0.00  0.00    +0.152 C 
ENDROOT
BRANCH   3   9
ATOM      9  C   UNL     1       2.318  -5.255  -4.630  0.00  0.00    +0.248 C 
ATOM     10  O   UNL     1       1.399  -5.813  -5.199  0.00  0.00    -0.270 OA
ATOM     11  N   UNL     1       3.451  -5.931  -4.356  0.00  0.00    -0.297 N 
ATOM     12  C   UNL     1       4.605  -5.247  -3.756  0.00  0.00    +0.108 C 
ATOM     13  C   UNL     1       5.027  -6.007  -2.494  0.00  0.00    +0.019 C 
ATOM     14  C   UNL     1       5.280  -7.474  -2.848  0.00  0.00    +0.003 C 
ATOM     15  C   UNL     1       3.990  -8.102  -3.381  0.00  0.00    +0.019 C 
ATOM     16  C   UNL     1       3.554  -7.368  -4.647  0.00  0.00    +0.108 C 
ENDBRANCH   3   9
BRANCH   1  19
ATOM     17  C   UNL     1       1.376  -1.078  -0.595  0.00  0.00    +0.223 C 
ATOM     18  O   UNL     1       2.561  -0.846  -0.712  0.00  0.00    -0.275 OA
ATOM     19  N   UNL     1       0.732  -1.787  -1.543  0.00  0.00    -0.281 N 
ATOM     20  H   UNL     1      -0.198  -2.034  -1.416  0.00  0.00    +0.155 HD
BRANCH  17  22
ATOM     21  C   UNL     1       1.582   0.196   1.522  0.00  0.00    +0.020 C 
ATOM     22  C   UNL     1       0.624  -0.573   0.609  0.00  0.00    +0.039 C 
ATOM     23  C   UNL     1       0.031  -1.758   1.374  0.00  0.00    +0.020 C 
ATOM     24  C   UNL     1      -0.503   0.357   0.154  0.00  0.00    +0.020 C 
ENDBRANCH  17  22
ENDBRANCH   1  19
TORSDOF 3
