REMARK  Name = ZINC38671600
REMARK  12 active torsions:
REMARK  status: ('A' for Active; 'I' for Inactive)
REMARK    1  A    between atoms: C_1  and  C_2
REMARK    2  A    between atoms: C_2  and  N_3
REMARK    3  A    between atoms: N_3  and  C_4
REMARK    4  A    between atoms: N_3  and  S_6
REMARK    5  A    between atoms: C_4  and  C_5
REMARK    6  A    between atoms: S_6  and  C_9
REMARK    7  A    between atoms: C_12  and  C_15
REMARK    8  A    between atoms: N_17  and  C_18
REMARK    9  A    between atoms: C_18  and  C_19
REMARK   10  A    between atoms: C_19  and  C_21
REMARK   11  A    between atoms: C_19  and  N_31
REMARK   12  A    between atoms: N_29  and  C_30
REMARK                            x       y       z     vdW  Elec       q    Type
REMARK                         _______ _______ _______ _____ _____    ______ ____
ROOT
ATOM      1  C   UNL     1       0.097   5.528  -7.630  0.00  0.00    +0.094 C 
ENDROOT
BRANCH   1   4
ATOM      2  C   UNL     1      -2.337   5.534  -7.744  0.00  0.00    +0.244 C 
ATOM      3  O   UNL     1      -2.365   5.356  -6.542  0.00  0.00    -0.270 OA
ATOM      4  N   UNL     1      -1.155   5.634  -8.384  0.00  0.00    -0.313 N 
ATOM      5  H   UNL     1      -1.133   5.775  -9.343  0.00  0.00    +0.149 HD
BRANCH   2   9
ATOM      6  C   UNL     1      -5.967   5.840  -9.930  0.00  0.00    +0.106 A 
ATOM      7  C   UNL     1      -6.002   5.637  -8.561  0.00  0.00    +0.029 A 
ATOM      8  C   UNL     1      -4.827   5.537  -7.846  0.00  0.00    +0.015 A 
ATOM      9  C   UNL     1      -3.601   5.640  -8.505  0.00  0.00    +0.037 A 
ATOM     10  C   UNL     1      -3.573   5.844  -9.885  0.00  0.00    +0.015 A 
ATOM     11  C   UNL     1      -4.755   5.937 -10.590  0.00  0.00    +0.029 A 
BRANCH   6  12
ATOM     12  S   UNL     1      -7.473   5.967 -10.836  0.00  0.00    +0.061 S 
ATOM     13  O   UNL     1      -7.174   6.694 -12.020  0.00  0.00    -0.153 OA
ATOM     14  O   UNL     1      -8.468   6.389  -9.914  0.00  0.00    -0.153 OA
BRANCH  12  15
ATOM     15  N   UNL     1      -7.888   4.436 -11.313  0.00  0.00    -0.177 NA
BRANCH  15  17
ATOM     16  C   UNL     1      -7.845   2.701  -9.590  0.00  0.00    +0.022 C 
ATOM     17  C   UNL     1      -8.730   3.604 -10.451  0.00  0.00    +0.106 C 
ENDBRANCH  15  17
BRANCH  15  18
ATOM     18  C   UNL     1      -7.412   3.915 -12.597  0.00  0.00    +0.106 C 
ATOM     19  C   UNL     1      -8.480   4.145 -13.668  0.00  0.00    +0.022 C 
ENDBRANCH  15  18
ENDBRANCH  12  15
ENDBRANCH   6  12
ENDBRANCH   2   9
ENDBRANCH   1   4
BRANCH   1  20
ATOM     20  C   UNL     1       1.280   5.560  -8.599  0.00  0.00    -0.020 C 
BRANCH  20  21
ATOM     21  C   UNL     1       1.321   6.895  -9.298  0.00  0.00    -0.059 A 
ATOM     22  C   UNL     1       1.866   7.994  -8.660  0.00  0.00    +0.004 A 
ATOM     23  C   UNL     1       1.905   9.217  -9.296  0.00  0.00    +0.023 A 
ATOM     24  C   UNL     1       1.395   9.355 -10.589  0.00  0.00    +0.033 A 
ATOM     25  C   UNL     1       0.852   8.246 -11.219  0.00  0.00    -0.025 A 
ATOM     26  C   UNL     1       0.820   7.022 -10.580  0.00  0.00    +0.007 A 
ATOM     27  C   UNL     1       0.377   8.660 -12.594  0.00  0.00    +0.056 C 
ATOM     28  C   UNL     1       0.715  10.157 -12.685  0.00  0.00    +0.109 C 
ATOM     29  N   UNL     1       1.339  10.488 -11.401  0.00  0.00    -0.332 N 
ATOM     30  C   UNL     1       1.830  11.816 -11.025  0.00  0.00    +0.129 C 
ENDBRANCH  20  21
BRANCH  20  31
ATOM     31  N   UNL     1       2.529   5.359  -7.854  0.00  0.00    +0.385 N 
ATOM     32  C   UNL     1       3.667   5.446  -8.776  0.00  0.00    -0.078 C 
ATOM     33  C   UNL     1       4.975   5.317  -7.992  0.00  0.00    -0.019 C 
ATOM     34  C   UNL     1       5.002   3.966  -7.272  0.00  0.00    -0.004 C 
ATOM     35  C   UNL     1       3.771   3.856  -6.369  0.00  0.00    -0.019 C 
ATOM     36  C   UNL     1       2.507   4.039  -7.213  0.00  0.00    -0.078 C 
ATOM     37  H   UNL     1       2.617   6.073  -7.147  0.00  0.00    -0.081 HD
ENDBRANCH  20  31
ENDBRANCH   1  20
TORSDOF 9
