REMARK  Name = ZINC39843088
REMARK  3 active torsions:
REMARK  status: ('A' for Active; 'I' for Inactive)
REMARK    1  A    between atoms: C_6  and  C_7
REMARK    2  A    between atoms: C_12  and  C_23
REMARK    3  A    between atoms: N_14  and  C_15
REMARK                            x       y       z     vdW  Elec       q    Type
REMARK                         _______ _______ _______ _____ _____    ______ ____
ROOT
ATOM      1  C   UNL     1      -1.026  -0.760   0.004  0.00  0.00    +0.197 C 
ATOM      2  N   UNL     1      -2.079   0.130  -0.489  0.00  0.00    -0.288 N 
ATOM      3  C   UNL     1      -2.521   0.032  -1.759  0.00  0.00    +0.258 C 
ATOM      4  O   UNL     1      -3.366   0.804  -2.174  0.00  0.00    -0.269 OA
ATOM      5  C   UNL     1      -1.978  -1.008  -2.636  0.00  0.00    +0.142 C 
ATOM      6  C   UNL     1      -1.260  -2.065  -2.050  0.00  0.00    +0.103 C 
ATOM      7  N   UNL     1      -1.105  -2.051  -0.687  0.00  0.00    -0.270 N 
ATOM      8  S   UNL     1      -0.584  -3.362  -3.032  0.00  0.00    -0.033 SA
ATOM      9  H   UNL     1      -2.462   0.796   0.103  0.00  0.00    +0.151 HD
ENDROOT
BRANCH   1  15
ATOM     10  C   UNL     1       0.451   1.241  -0.273  0.00  0.00    +0.008 A 
ATOM     11  C   UNL     1       1.686   1.815  -0.510  0.00  0.00    +0.020 A 
ATOM     12  C   UNL     1       2.792   1.012  -0.726  0.00  0.00    +0.041 A 
ATOM     13  C   UNL     1       2.660  -0.365  -0.706  0.00  0.00    +0.020 A 
ATOM     14  C   UNL     1       1.425  -0.938  -0.470  0.00  0.00    +0.008 A 
ATOM     15  C   UNL     1       0.321  -0.135  -0.254  0.00  0.00    -0.009 A 
ATOM     16 CL   UNL     1       4.343   1.732  -1.024  0.00  0.00    -0.084 Cl
ENDBRANCH   1  15
BRANCH   7  17
ATOM     17  C   UNL     1      -1.023  -3.250   0.030  0.00  0.00    +0.037 A 
ATOM     18  C   UNL     1      -2.040  -3.607   0.906  0.00  0.00    +0.026 A 
ATOM     19  C   UNL     1      -1.957  -4.791   1.613  0.00  0.00    +0.040 A 
ATOM     20  C   UNL     1      -0.861  -5.620   1.450  0.00  0.00    +0.124 A 
ATOM     21  C   UNL     1       0.155  -5.266   0.577  0.00  0.00    +0.040 A 
ATOM     22  C   UNL     1       0.073  -4.086  -0.137  0.00  0.00    +0.026 A 
ATOM     23  F   UNL     1      -0.781  -6.777   2.143  0.00  0.00    -0.205 F 
ENDBRANCH   7  17
BRANCH   5  24
ATOM     24  C   UNL     1      -2.174  -0.950  -4.053  0.00  0.00    +0.107 C 
ATOM     25  N   UNL     1      -2.330  -0.904  -5.178  0.00  0.00    -0.191 NA
ENDBRANCH   5  24
TORSDOF 3
