REMARK  Name = ZINC49488681
REMARK  11 active torsions:
REMARK  status: ('A' for Active; 'I' for Inactive)
REMARK    1  A    between atoms: C_1  and  C_2
REMARK    2  A    between atoms: C_5  and  C_8
REMARK    3  A    between atoms: C_8  and  C_10
REMARK    4  A    between atoms: C_8  and  N_31
REMARK    5  A    between atoms: C_10  and  N_11
REMARK    6  A    between atoms: C_12  and  C_14
REMARK    7  A    between atoms: N_16  and  C_17
REMARK    8  A    between atoms: N_23  and  S_27
REMARK    9  A    between atoms: S_27  and  C_30
REMARK   10  A    between atoms: N_31  and  C_32
REMARK   11  A    between atoms: N_31  and  C_33
REMARK                            x       y       z     vdW  Elec       q    Type
REMARK                         _______ _______ _______ _____ _____    ______ ____
ROOT
ATOM      1  C   UNL     1       2.152  -8.630   2.251  0.00  0.00    +0.303 C 
ATOM      2  O   UNL     1       1.091  -9.217   2.196  0.00  0.00    -0.265 OA
ATOM      3  N   UNL     1       3.306  -9.325   2.286  0.00  0.00    -0.278 N 
ATOM      4  H   UNL     1       4.155  -8.856   2.260  0.00  0.00    +0.155 HD
ENDROOT
BRANCH   3   5
ATOM      5  C   UNL     1       3.280 -10.720   2.360  0.00  0.00    +0.036 A 
ATOM      6  C   UNL     1       2.287 -11.435   1.700  0.00  0.00    +0.024 A 
ATOM      7  C   UNL     1       2.261 -12.812   1.776  0.00  0.00    +0.007 A 
ATOM      8  C   UNL     1       3.221 -13.493   2.506  0.00  0.00    -0.025 A 
ATOM      9  C   UNL     1       4.216 -12.784   3.163  0.00  0.00    +0.056 A 
ATOM     10  C   UNL     1       4.247 -11.397   3.088  0.00  0.00    +0.048 A 
ATOM     11  N   UNL     1       5.203 -13.447   3.900  0.00  0.00    -0.207 N 
ATOM     12  C   UNL     1       5.013 -14.868   4.225  0.00  0.00    +0.131 C 
ATOM     13  C   UNL     1       4.516 -15.576   2.958  0.00  0.00    +0.025 C 
ATOM     14  C   UNL     1       3.156 -14.997   2.569  0.00  0.00    +0.038 C 
BRANCH  11  15
ATOM     15  S   UNL     1       6.563 -12.645   4.397  0.00  0.00    +0.043 S 
ATOM     16  O   UNL     1       7.497 -13.671   4.707  0.00  0.00    -0.155 OA
ATOM     17  O   UNL     1       6.832 -11.710   3.362  0.00  0.00    -0.155 OA
ATOM     18  C   UNL     1       6.066 -11.776   5.910  0.00  0.00    +0.218 C 
ENDBRANCH  11  15
ENDBRANCH   3   5
BRANCH   1  20
ATOM     19  N   UNL     1       1.024  -6.442   2.244  0.00  0.00    -0.309 N 
ATOM     20  C   UNL     1       2.178  -7.137   2.279  0.00  0.00    +0.299 C 
ATOM     21  O   UNL     1       3.238  -6.549   2.334  0.00  0.00    -0.265 OA
ATOM     22  H   UNL     1       0.176  -6.912   2.200  0.00  0.00    +0.149 HD
BRANCH  19  23
ATOM     23  C   UNL     1       1.049  -4.978   2.272  0.00  0.00    +0.094 C 
BRANCH  23  24
ATOM     24  C   UNL     1      -0.383  -4.444   2.345  0.00  0.00    -0.021 C 
BRANCH  24  29
ATOM     25  C   UNL     1      -3.285  -6.053  -2.386  0.00  0.00    +0.044 C 
ATOM     26  C   UNL     1      -2.529  -5.634  -1.152  0.00  0.00    -0.050 A 
ATOM     27  C   UNL     1      -2.691  -6.332   0.029  0.00  0.00    +0.003 A 
ATOM     28  C   UNL     1      -1.996  -5.948   1.161  0.00  0.00    +0.002 A 
ATOM     29  C   UNL     1      -1.139  -4.864   1.111  0.00  0.00    -0.059 A 
ATOM     30  C   UNL     1      -0.977  -4.166  -0.071  0.00  0.00    +0.002 A 
ATOM     31  C   UNL     1      -1.668  -4.553  -1.204  0.00  0.00    +0.003 A 
ENDBRANCH  24  29
BRANCH  24  32
ATOM     32  N   UNL     1      -0.355  -2.977   2.426  0.00  0.00    +0.382 N 
ATOM     33  C   UNL     1      -1.725  -2.470   2.584  0.00  0.00    -0.096 C 
ATOM     34  C   UNL     1       0.455  -2.566   3.581  0.00  0.00    -0.096 C 
ATOM     35  H   UNL     1       0.048  -2.601   1.582  0.00  0.00    -0.082 HD
ENDBRANCH  24  32
ENDBRANCH  23  24
ENDBRANCH  19  23
ENDBRANCH   1  20
TORSDOF 7
