REMARK  Name = ZINC64979635
REMARK  5 active torsions:
REMARK  status: ('A' for Active; 'I' for Inactive)
REMARK    1  A    between atoms: C_1  and  C_2
REMARK    2  A    between atoms: C_4  and  C_20
REMARK    3  A    between atoms: C_7  and  S_8
REMARK    4  A    between atoms: S_8  and  N_11
REMARK    5  A    between atoms: C_22  and  C_25
REMARK                            x       y       z     vdW  Elec       q    Type
REMARK                         _______ _______ _______ _____ _____    ______ ____
ROOT
ATOM      1  C   UNL     1      -0.109   1.643   0.095  0.00  0.00    +0.046 C 
ATOM      2  C   UNL     1       0.247   0.183  -0.017  0.00  0.00    -0.023 A 
ATOM      3  C   UNL     1       0.387  -0.398  -1.260  0.00  0.00    +0.017 A 
ATOM      4  C   UNL     1       0.717  -1.751  -1.362  0.00  0.00    +0.020 A 
ATOM      5  C   UNL     1       0.902  -2.506  -0.203  0.00  0.00    +0.013 A 
ATOM      6  C   UNL     1       0.758  -1.913   1.034  0.00  0.00    +0.030 A 
ATOM      7  C   UNL     1       0.437  -0.571   1.128  0.00  0.00    +0.112 A 
ENDROOT
BRANCH   4   8
ATOM      8  C   UNL     1       0.869  -2.380  -2.691  0.00  0.00    +0.167 A 
ATOM      9  C   UNL     1       1.180  -3.683  -2.931  0.00  0.00    +0.075 A 
ATOM     10  C   UNL     1       1.226  -3.868  -4.321  0.00  0.00    +0.081 A 
ATOM     11  N   UNL     1       0.954  -2.729  -4.894  0.00  0.00    -0.083 NA
ATOM     12  O   UNL     1       0.718  -1.769  -3.881  0.00  0.00    -0.354 OA
ATOM     13  C   UNL     1       1.536  -5.161  -5.029  0.00  0.00    +0.069 C 
ENDBRANCH   4   8
BRANCH   7  14
ATOM     14  S   UNL     1       0.263   0.181   2.712  0.00  0.00    +0.075 S 
ATOM     15  O   UNL     1       1.084   1.341   2.703  0.00  0.00    -0.150 OA
ATOM     16  O   UNL     1      -1.131   0.236   2.985  0.00  0.00    -0.150 OA
BRANCH  14  17
ATOM     17  N   UNL     1       0.922  -0.856   3.821  0.00  0.00    -0.202 N 
ATOM     18  C   UNL     1       0.165  -1.827   4.616  0.00  0.00    +0.136 C 
ATOM     19  C   UNL     1       1.214  -2.541   5.485  0.00  0.00    +0.058 C 
ATOM     20  C   UNL     1       2.527  -1.897   5.101  0.00  0.00    -0.023 A 
ATOM     21  C   UNL     1       2.281  -0.938   4.131  0.00  0.00    +0.054 A 
ATOM     22  C   UNL     1       3.352  -0.208   3.613  0.00  0.00    +0.025 A 
ATOM     23  C   UNL     1       4.635  -0.445   4.059  0.00  0.00    +0.002 A 
ATOM     24  C   UNL     1       4.870  -1.407   5.023  0.00  0.00    +0.000 A 
ATOM     25  C   UNL     1       3.814  -2.128   5.548  0.00  0.00    +0.005 A 
ENDBRANCH  14  17
ENDBRANCH   7  14
TORSDOF 3
