REMARK  Name = ZINC39675843
REMARK  8 active torsions:
REMARK  status: ('A' for Active; 'I' for Inactive)
REMARK    1  A    between atoms: C_1  and  N_2
REMARK    2  A    between atoms: N_2  and  C_3
REMARK    3  A    between atoms: N_2  and  C_4
REMARK    4  A    between atoms: C_4  and  C_6
REMARK    5  A    between atoms: C_4  and  C_34
REMARK    6  A    between atoms: C_6  and  N_7
REMARK    7  A    between atoms: C_8  and  C_10
REMARK    8  A    between atoms: C_21  and  C_23
REMARK                            x       y       z     vdW  Elec       q    Type
REMARK                         _______ _______ _______ _____ _____    ______ ____
ROOT
ATOM      1  C   UNL     1       0.341  -2.926   3.202  0.00  0.00    +0.100 C 
ATOM      2  C   UNL     1       1.631  -2.077   3.250  0.00  0.00    +0.121 C 
ATOM      3  N   UNL     1       2.646  -2.971   3.854  0.00  0.00    -0.297 N 
ATOM      4  C   UNL     1       2.366  -4.301   3.261  0.00  0.00    +0.115 C 
ATOM      5  C   UNL     1       0.828  -4.385   3.209  0.00  0.00    -0.004 C 
ATOM      6  C   UNL     1       0.381  -5.096   1.935  0.00  0.00    -0.010 C 
ATOM      7  C   UNL     1       0.827  -6.561   1.992  0.00  0.00    -0.082 C 
ATOM      8  N   UNL     1       0.238  -7.208   3.170  0.00  0.00    +0.379 N 
ATOM      9  C   UNL     1       0.745  -6.577   4.394  0.00  0.00    -0.082 C 
ATOM     10  C   UNL     1       0.296  -5.114   4.440  0.00  0.00    -0.010 C 
ATOM     11  C   UNL     1       3.606  -2.649   4.744  0.00  0.00    +0.260 C 
ATOM     12  O   UNL     1       4.368  -3.501   5.149  0.00  0.00    -0.271 OA
ATOM     13  H   UNL     1      -0.766  -7.115   3.136  0.00  0.00    -0.086 HD
ATOM     14  H   UNL     1       0.483  -8.187   3.171  0.00  0.00    -0.086 HD
ENDROOT
BRANCH  11  15
ATOM     15  C   UNL     1       3.732  -1.230   5.235  0.00  0.00    +0.296 C 
ATOM     16  C   UNL     1       4.139  -0.314   4.073  0.00  0.00    +0.283 C 
ATOM     17  O   UNL     1       4.263   1.020   4.576  0.00  0.00    -0.484 OA
ATOM     18  C   UNL     1       4.954   1.173   5.739  0.00  0.00    +0.162 A 
ATOM     19  C   UNL     1       5.423   2.430   6.093  0.00  0.00    +0.049 A 
ATOM     20  C   UNL     1       6.122   2.601   7.272  0.00  0.00    +0.004 A 
ATOM     21  C   UNL     1       6.356   1.521   8.103  0.00  0.00    +0.004 A 
ATOM     22  C   UNL     1       5.893   0.266   7.756  0.00  0.00    +0.049 A 
ATOM     23  C   UNL     1       5.191   0.087   6.573  0.00  0.00    +0.163 A 
ATOM     24  O   UNL     1       4.748  -1.157   6.242  0.00  0.00    -0.473 OA
ENDBRANCH  11  15
BRANCH   1  26
ATOM     25  N   UNL     1      -1.773  -2.774   1.926  0.00  0.00    -0.316 N 
ATOM     26  C   UNL     1      -0.432  -2.636   1.941  0.00  0.00    +0.218 C 
ATOM     27  O   UNL     1       0.152  -2.279   0.941  0.00  0.00    -0.275 OA
ATOM     28  H   UNL     1      -2.240  -3.060   2.727  0.00  0.00    +0.149 HD
BRANCH  25  29
ATOM     29  C   UNL     1      -2.524  -2.493   0.700  0.00  0.00    +0.093 C 
BRANCH  29  30
ATOM     30  C   UNL     1      -3.997  -2.847   0.912  0.00  0.00    -0.021 C 
BRANCH  30  31
ATOM     31  C   UNL     1      -4.131  -4.333   1.126  0.00  0.00    -0.059 A 
ATOM     32  C   UNL     1      -4.110  -5.191   0.042  0.00  0.00    +0.002 A 
ATOM     33  C   UNL     1      -4.233  -6.554   0.238  0.00  0.00    +0.000 A 
ATOM     34  C   UNL     1      -4.375  -7.059   1.517  0.00  0.00    +0.000 A 
ATOM     35  C   UNL     1      -4.395  -6.200   2.601  0.00  0.00    +0.000 A 
ATOM     36  C   UNL     1      -4.268  -4.838   2.405  0.00  0.00    +0.002 A 
ENDBRANCH  30  31
BRANCH  30  38
ATOM     37  C   UNL     1      -6.177  -2.836  -0.089  0.00  0.00    -0.096 C 
ATOM     38  N   UNL     1      -4.771  -2.451  -0.272  0.00  0.00    +0.382 N 
ATOM     39  C   UNL     1      -4.682  -0.996  -0.451  0.00  0.00    -0.096 C 
ATOM     40  H   UNL     1      -4.399  -2.914  -1.087  0.00  0.00    -0.082 HD
ENDBRANCH  30  38
ENDBRANCH  29  30
ENDBRANCH  25  29
ENDBRANCH   1  26
TORSDOF 6
