REMARK  Name = ZINC36571014
REMARK  15 active torsions:
REMARK  status: ('A' for Active; 'I' for Inactive)
REMARK    1  A    between atoms: C_1  and  C_2
REMARK    2  A    between atoms: C_2  and  C_3
REMARK    3  A    between atoms: C_3  and  N_4
REMARK    4  A    between atoms: N_4  and  C_5
REMARK    5  A    between atoms: C_5  and  C_7
REMARK    6  A    between atoms: C_5  and  C_16
REMARK    7  A    between atoms: C_7  and  C_9
REMARK    8  A    between atoms: C_7  and  C_10
REMARK    9  A    between atoms: N_18  and  C_19
REMARK   10  A    between atoms: C_19  and  S_20
REMARK   11  A    between atoms: S_20  and  C_23
REMARK   12  A    between atoms: C_26  and  C_29
REMARK   13  A    between atoms: C_30  and  C_32
REMARK   14  A    between atoms: C_33  and  O_39
REMARK   15  A    between atoms: C_37  and  O_38
REMARK                            x       y       z     vdW  Elec       q    Type
REMARK                         _______ _______ _______ _____ _____    ______ ____
ROOT
ATOM      1  C   UNL     1      -0.976  -3.077   1.194  0.00  0.00    +0.169 C 
ENDROOT
BRANCH   1   2
ATOM      2  C   UNL     1      -2.385  -2.747   1.615  0.00  0.00    +0.235 C 
ATOM      3  O   UNL     1      -3.099  -2.095   0.883  0.00  0.00    -0.274 OA
ATOM      4  N   UNL     1      -2.851  -3.176   2.804  0.00  0.00    -0.295 N 
ATOM      5  H   UNL     1      -2.259  -3.636   3.420  0.00  0.00    +0.150 HD
BRANCH   4   6
ATOM      6  C   UNL     1      -4.252  -2.948   3.168  0.00  0.00    +0.278 C 
BRANCH   6   7
ATOM      7  S   UNL     1      -5.232  -4.414   2.743  0.00  0.00    +0.013 S 
ATOM      8  O   UNL     1      -6.583  -4.233   3.147  0.00  0.00    -0.168 OA
ATOM      9  O   UNL     1      -4.922  -4.845   1.425  0.00  0.00    -0.168 OA
BRANCH   7  10
ATOM     10  C   UNL     1      -4.617  -5.690   3.791  0.00  0.00    +0.090 A 
ATOM     11  C   UNL     1      -3.567  -6.484   3.369  0.00  0.00    +0.027 A 
ATOM     12  C   UNL     1      -3.083  -7.484   4.191  0.00  0.00    +0.005 A 
ATOM     13  C   UNL     1      -3.650  -7.691   5.435  0.00  0.00    -0.050 A 
ATOM     14  C   UNL     1      -4.700  -6.897   5.857  0.00  0.00    +0.005 A 
ATOM     15  C   UNL     1      -5.180  -5.893   5.037  0.00  0.00    +0.027 A 
ATOM     16  C   UNL     1      -3.124  -8.783   6.331  0.00  0.00    +0.044 C 
ENDBRANCH   7  10
ENDBRANCH   6   7
ENDBRANCH   4   6
ENDBRANCH   1   2
BRANCH   1  17
ATOM     17  N   UNL     1      -0.790  -2.720  -0.214  0.00  0.00    -0.285 N 
ATOM     18  C   UNL     1      -0.428  -3.662  -1.107  0.00  0.00    +0.254 C 
ATOM     19  O   UNL     1      -0.255  -4.810  -0.743  0.00  0.00    -0.270 OA
BRANCH  18  20
ATOM     20  C   UNL     1      -0.241  -3.303  -2.522  0.00  0.00    +0.119 A 
ATOM     21  C   UNL     1       1.017  -2.892  -2.987  0.00  0.00    +0.133 A 
ATOM     22  C   UNL     1       1.181  -2.556  -4.321  0.00  0.00    +0.046 A 
ATOM     23  C   UNL     1       0.111  -2.626  -5.193  0.00  0.00    +0.007 A 
ATOM     24  C   UNL     1      -1.133  -3.030  -4.746  0.00  0.00    +0.046 A 
ATOM     25  C   UNL     1      -1.319  -3.375  -3.417  0.00  0.00    +0.133 A 
BRANCH  25  26
ATOM     26  O   UNL     1      -2.539  -3.777  -2.982  0.00  0.00    -0.506 OA
ATOM     27  H   UNL     1      -3.103  -3.055  -2.671  0.00  0.00    +0.292 HD
ENDBRANCH  25  26
BRANCH  21  28
ATOM     28  O   UNL     1       2.068  -2.822  -2.133  0.00  0.00    -0.506 OA
ATOM     29  H   UNL     1       2.579  -3.641  -2.070  0.00  0.00    +0.292 HD
ENDBRANCH  21  28
ENDBRANCH  18  20
BRANCH  17  30
ATOM     30  C   UNL     1      -0.999  -1.337  -0.653  0.00  0.00    +0.108 C 
BRANCH  30  32
ATOM     31  C   UNL     1       0.146   0.800  -1.255  0.00  0.00    +0.005 C 
ATOM     32  C   UNL     1       0.342  -0.601  -0.672  0.00  0.00    +0.016 C 
ENDBRANCH  30  32
ENDBRANCH  17  30
ENDBRANCH   1  17
BRANCH   1  33
ATOM     33  C   UNL     1       0.012  -2.287   2.055  0.00  0.00    +0.045 C 
ATOM     34  C   UNL     1      -0.269  -2.559   3.534  0.00  0.00    +0.015 C 
BRANCH  33  35
ATOM     35  C   UNL     1       1.419  -2.713   1.725  0.00  0.00    -0.042 A 
ATOM     36  C   UNL     1       1.751  -4.055   1.718  0.00  0.00    +0.004 A 
ATOM     37  C   UNL     1       3.042  -4.446   1.415  0.00  0.00    +0.000 A 
ATOM     38  C   UNL     1       4.001  -3.495   1.118  0.00  0.00    +0.000 A 
ATOM     39  C   UNL     1       3.668  -2.153   1.124  0.00  0.00    +0.000 A 
ATOM     40  C   UNL     1       2.377  -1.763   1.423  0.00  0.00    +0.004 A 
ENDBRANCH  33  35
ENDBRANCH   1  33
TORSDOF 12
