REMARK  Name = ZINC63282155
REMARK  7 active torsions:
REMARK  status: ('A' for Active; 'I' for Inactive)
REMARK    1  A    between atoms: C_6  and  C_11
REMARK    2  A    between atoms: C_11  and  C_12
REMARK    3  A    between atoms: C_12  and  N_13
REMARK    4  A    between atoms: C_14  and  C_16
REMARK    5  A    between atoms: C_20  and  N_23
REMARK    6  A    between atoms: N_23  and  S_24
REMARK    7  A    between atoms: S_24  and  C_27
REMARK                            x       y       z     vdW  Elec       q    Type
REMARK                         _______ _______ _______ _____ _____    ______ ____
ROOT
ATOM      1  C   UNL     1       7.496  -4.380   3.665  0.00  0.00    +0.086 C 
ATOM      2  C   UNL     1       8.812  -4.648   3.788  0.00  0.00    +0.021 C 
ATOM      3  C   UNL     1       9.353  -5.461   4.954  0.00  0.00    +0.122 C 
ATOM      4  S   UNL     1      11.167  -5.384   4.636  0.00  0.00    -0.116 S 
ATOM      5  C   UNL     1      11.110  -4.070   3.342  0.00  0.00    +0.220 C 
ATOM      6  N   UNL     1       9.710  -4.213   2.880  0.00  0.00    -0.322 N 
ATOM      7  H   UNL     1       9.449  -4.002   1.969  0.00  0.00    +0.148 HD
ENDROOT
BRANCH   1   9
ATOM      8  N   UNL     1       5.723  -3.327   2.452  0.00  0.00    -0.312 N 
ATOM      9  C   UNL     1       7.045  -3.503   2.651  0.00  0.00    +0.238 C 
ATOM     10  O   UNL     1       7.850  -2.908   1.958  0.00  0.00    -0.271 OA
ATOM     11  H   UNL     1       5.082  -3.801   3.003  0.00  0.00    +0.149 HD
BRANCH   8  12
ATOM     12  C   UNL     1       5.256  -2.418   1.402  0.00  0.00    +0.107 C 
BRANCH  12  13
ATOM     13  C   UNL     1       3.726  -2.400   1.387  0.00  0.00    +0.047 C 
BRANCH  13  19
ATOM     14  C   UNL     1      -0.038   1.786   0.868  0.00  0.00    +0.001 A 
ATOM     15  C   UNL     1       1.115   2.554   1.076  0.00  0.00    +0.002 A 
ATOM     16  C   UNL     1       2.359   2.034   1.010  0.00  0.00    +0.026 A 
ATOM     17  C   UNL     1       2.547   0.654   0.719  0.00  0.00    +0.043 A 
ATOM     18  N   UNL     1       3.631  -0.073   0.602  0.00  0.00    -0.378 N 
ATOM     19  C   UNL     1       3.238  -1.452   0.290  0.00  0.00    +0.104 C 
ATOM     20  C   UNL     1       1.727  -1.450   0.235  0.00  0.00    +0.007 C 
ATOM     21  C   UNL     1       1.344  -0.179   0.495  0.00  0.00    -0.004 A 
ATOM     22  C   UNL     1       0.028   0.465   0.586  0.00  0.00    +0.010 A 
ATOM     23  H   UNL     1       4.542   0.246   0.704  0.00  0.00    +0.160 HD
ENDBRANCH  13  19
ENDBRANCH  12  13
ENDBRANCH   8  12
ENDBRANCH   1   9
BRANCH   5  24
ATOM     24  N   UNL     1      11.351  -2.746   3.920  0.00  0.00    -0.161 NA
ATOM     25  H   UNL     1      10.609  -2.223   4.262  0.00  0.00    +0.151 HD
BRANCH  24  26
ATOM     26  S   UNL     1      12.891  -2.141   3.991  0.00  0.00    +0.061 S 
ATOM     27  O   UNL     1      12.793  -0.847   4.571  0.00  0.00    -0.153 OA
ATOM     28  O   UNL     1      13.705  -3.165   4.546  0.00  0.00    -0.153 OA
BRANCH  26  29
ATOM     29  C   UNL     1      13.436  -1.909   2.331  0.00  0.00    +0.105 A 
ATOM     30  C   UNL     1      14.083  -2.934   1.667  0.00  0.00    +0.030 A 
ATOM     31  C   UNL     1      14.511  -2.752   0.365  0.00  0.00    +0.022 A 
ATOM     32  C   UNL     1      14.291  -1.544  -0.273  0.00  0.00    +0.041 A 
ATOM     33  C   UNL     1      13.644  -0.519   0.393  0.00  0.00    +0.022 A 
ATOM     34  C   UNL     1      13.211  -0.703   1.693  0.00  0.00    +0.030 A 
ATOM     35 CL   UNL     1      14.829  -1.315  -1.908  0.00  0.00    -0.084 Cl
ENDBRANCH  26  29
ENDBRANCH  24  26
ENDBRANCH   5  24
TORSDOF 7
