REMARK  Name = ZINC39635728
REMARK  8 active torsions:
REMARK  status: ('A' for Active; 'I' for Inactive)
REMARK    1  A    between atoms: C_1  and  C_2
REMARK    2  A    between atoms: C_8  and  N_10
REMARK    3  A    between atoms: C_11  and  C_13
REMARK    4  A    between atoms: C_24  and  C_26
REMARK    5  A    between atoms: C_28  and  O_34
REMARK    6  A    between atoms: C_30  and  O_32
REMARK    7  A    between atoms: O_32  and  C_33
REMARK    8  A    between atoms: O_34  and  C_35
REMARK                            x       y       z     vdW  Elec       q    Type
REMARK                         _______ _______ _______ _____ _____    ______ ____
ROOT
ATOM      1  C   UNL     1       0.431   0.975   4.522  0.00  0.00    +0.100 C 
ATOM      2  C   UNL     1      -0.273   2.351   4.522  0.00  0.00    +0.121 C 
ATOM      3  N   UNL     1      -0.069   2.876   5.892  0.00  0.00    -0.296 N 
ATOM      4  C   UNL     1       1.319   2.483   6.235  0.00  0.00    +0.115 C 
ATOM      5  C   UNL     1       1.475   1.066   5.648  0.00  0.00    -0.004 C 
ATOM      6  C   UNL     1       1.191   0.017   6.718  0.00  0.00    -0.010 C 
ATOM      7  C   UNL     1       2.275   0.089   7.798  0.00  0.00    -0.082 C 
ATOM      8  N   UNL     1       3.590  -0.146   7.190  0.00  0.00    +0.379 N 
ATOM      9  C   UNL     1       3.896   0.920   6.228  0.00  0.00    -0.082 C 
ATOM     10  C   UNL     1       2.880   0.883   5.082  0.00  0.00    -0.010 C 
ATOM     11  C   UNL     1      -0.947   3.557   6.655  0.00  0.00    +0.247 C 
ATOM     12  O   UNL     1      -2.092   3.709   6.276  0.00  0.00    -0.270 OA
ATOM     13  H   UNL     1       4.295  -0.158   7.911  0.00  0.00    -0.086 HD
ATOM     14  H   UNL     1       3.585  -1.036   6.713  0.00  0.00    -0.086 HD
ENDROOT
BRANCH  11  15
ATOM     15  C   UNL     1      -0.517   4.120   7.953  0.00  0.00    +0.044 A 
ATOM     16  C   UNL     1       0.835   4.356   8.200  0.00  0.00    +0.059 A 
ATOM     17  C   UNL     1       1.233   4.884   9.418  0.00  0.00    +0.124 A 
ATOM     18  C   UNL     1       0.289   5.177  10.391  0.00  0.00    +0.091 A 
ATOM     19  C   UNL     1      -1.057   4.944  10.149  0.00  0.00    +0.124 A 
ATOM     20  C   UNL     1      -1.464   4.421   8.932  0.00  0.00    +0.059 A 
BRANCH  19  21
ATOM     21  O   UNL     1      -1.978   5.232  11.106  0.00  0.00    -0.495 OA
ATOM     22  C   UNL     1      -1.490   5.774  12.335  0.00  0.00    +0.277 C 
ENDBRANCH  19  21
BRANCH  17  23
ATOM     23  O   UNL     1       2.550   5.115   9.659  0.00  0.00    -0.495 OA
ATOM     24  C   UNL     1       2.890   5.660  10.935  0.00  0.00    +0.277 C 
ENDBRANCH  17  23
ENDBRANCH  11  15
BRANCH   1  26
ATOM     25  N   UNL     1       1.270  -0.528   2.746  0.00  0.00    -0.312 N 
ATOM     26  C   UNL     1       1.107   0.731   3.198  0.00  0.00    +0.218 C 
ATOM     27  O   UNL     1       1.505   1.668   2.538  0.00  0.00    -0.275 OA
ATOM     28  H   UNL     1       0.953  -1.277   3.273  0.00  0.00    +0.149 HD
BRANCH  25  35
ATOM     29  C   UNL     1      -0.056  -2.073   0.686  0.00  0.00    +0.009 C 
ATOM     30  C   UNL     1       1.461  -2.105   0.886  0.00  0.00    +0.006 C 
ATOM     31  C   UNL     1       2.147  -2.352  -0.459  0.00  0.00    +0.005 C 
ATOM     32  C   UNL     1       3.664  -2.384  -0.259  0.00  0.00    +0.000 C 
ATOM     33  C   UNL     1       4.131  -1.044   0.314  0.00  0.00    +0.002 C 
ATOM     34  C   UNL     1       3.444  -0.797   1.658  0.00  0.00    +0.022 C 
ATOM     35  C   UNL     1       1.928  -0.765   1.458  0.00  0.00    +0.076 C 
ENDBRANCH  25  35
ENDBRANCH   1  26
TORSDOF 5
