REMARK  Name = ZINC63589331
REMARK  6 active torsions:
REMARK  status: ('A' for Active; 'I' for Inactive)
REMARK    1  A    between atoms: C_7  and  C_10
REMARK    2  A    between atoms: C_10  and  C_11
REMARK    3  A    between atoms: C_11  and  N_12
REMARK    4  A    between atoms: N_14  and  C_15
REMARK    5  A    between atoms: N_22  and  C_23
REMARK    6  A    between atoms: C_23  and  C_25
REMARK                            x       y       z     vdW  Elec       q    Type
REMARK                         _______ _______ _______ _____ _____    ______ ____
ROOT
ATOM      1  N   UNL     1      -2.013  -3.425  -2.674  0.00  0.00    -0.357 N 
ATOM      2  C   UNL     1      -1.397  -4.599  -2.996  0.00  0.00    +0.194 C 
ATOM      3  N   UNL     1      -0.428  -4.620  -3.957  0.00  0.00    -0.326 N 
ATOM      4  N   UNL     1      -1.740  -5.719  -2.377  0.00  0.00    -0.143 NA
ATOM      5  H   UNL     1      -2.651  -3.397  -1.944  0.00  0.00    +0.162 HD
ATOM      6  H   UNL     1      -0.451  -5.294  -4.655  0.00  0.00    +0.169 HD
ENDROOT
BRANCH   3   7
ATOM      7  C   UNL     1       0.599  -3.669  -3.936  0.00  0.00    +0.077 A 
ATOM      8  C   UNL     1       1.219  -3.341  -2.738  0.00  0.00    +0.028 A 
ATOM      9  C   UNL     1       2.233  -2.403  -2.720  0.00  0.00    +0.002 A 
ATOM     10  C   UNL     1       2.631  -1.789  -3.893  0.00  0.00    +0.003 A 
ATOM     11  C   UNL     1       2.016  -2.112  -5.089  0.00  0.00    +0.040 A 
ATOM     12  C   UNL     1       1.004  -3.054  -5.116  0.00  0.00    +0.147 A 
ATOM     13  F   UNL     1       0.407  -3.374  -6.285  0.00  0.00    -0.203 F 
ENDBRANCH   3   7
BRANCH   4  14
ATOM     14  C   UNL     1      -1.048  -6.844  -2.596  0.00  0.00    +0.270 C 
ATOM     15  O   UNL     1      -0.061  -6.823  -3.310  0.00  0.00    -0.268 OA
BRANCH  14  16
ATOM     16  C   UNL     1      -1.482  -8.114  -1.971  0.00  0.00    +0.039 A 
ATOM     17  C   UNL     1      -2.672  -8.166  -1.245  0.00  0.00    +0.014 A 
ATOM     18  C   UNL     1      -3.072  -9.352  -0.665  0.00  0.00    +0.016 A 
ATOM     19  C   UNL     1      -2.294 -10.489  -0.801  0.00  0.00    +0.018 A 
ATOM     20  C   UNL     1      -1.111 -10.444  -1.520  0.00  0.00    +0.016 A 
ATOM     21  C   UNL     1      -0.705  -9.265  -2.110  0.00  0.00    +0.014 A 
ATOM     22 BR   UNL     1      -2.848 -12.111  -0.002  0.00  0.00    -0.050 Br
ENDBRANCH  14  16
ENDBRANCH   4  14
BRANCH   1  23
ATOM     23  C   UNL     1      -1.710  -2.208  -3.429  0.00  0.00    +0.120 C 
BRANCH  23  24
ATOM     24  C   UNL     1      -2.474  -1.028  -2.824  0.00  0.00    +0.054 C 
BRANCH  24  31
ATOM     25  C   UNL     1      -4.878   0.817  -6.269  0.00  0.00    +0.001 A 
ATOM     26  C   UNL     1      -4.308   1.987  -6.789  0.00  0.00    +0.002 A 
ATOM     27  C   UNL     1      -3.159   2.512  -6.313  0.00  0.00    +0.026 A 
ATOM     28  C   UNL     1      -2.471   1.881  -5.240  0.00  0.00    +0.043 A 
ATOM     29  N   UNL     1      -1.361   2.189  -4.614  0.00  0.00    -0.380 N 
ATOM     30  C   UNL     1      -1.113   1.180  -3.578  0.00  0.00    +0.144 C 
ATOM     31  C   UNL     1      -2.259   0.198  -3.672  0.00  0.00    -0.040 C 
ATOM     32  C   UNL     1      -3.053   0.644  -4.673  0.00  0.00    -0.001 A 
ATOM     33  C   UNL     1      -4.305   0.139  -5.249  0.00  0.00    +0.010 A 
ATOM     34  H   UNL     1      -0.797   2.955  -4.805  0.00  0.00    +0.160 HD
ENDBRANCH  24  31
ENDBRANCH  23  24
ENDBRANCH   1  23
TORSDOF 6
