REMARK  Name = ZINC65456415
REMARK  6 active torsions:
REMARK  status: ('A' for Active; 'I' for Inactive)
REMARK    1  A    between atoms: C_1  and  C_2
REMARK    2  A    between atoms: C_3  and  C_22
REMARK    3  A    between atoms: C_7  and  N_8
REMARK    4  A    between atoms: C_16  and  O_18
REMARK    5  A    between atoms: N_19  and  C_20
REMARK    6  A    between atoms: N_19  and  C_21
REMARK                            x       y       z     vdW  Elec       q    Type
REMARK                         _______ _______ _______ _____ _____    ______ ____
ROOT
ATOM      1  C   UNL     1      -0.072   1.502   0.016  0.00  0.00    +0.049 C 
ATOM      2  C   UNL     1      -0.024  -0.005   0.005  0.00  0.00    +0.011 A 
ATOM      3  C   UNL     1      -0.122  -0.706  -1.181  0.00  0.00    +0.048 A 
ATOM      4  N   UNL     1      -0.075  -2.030  -1.158  0.00  0.00    -0.219 NA
ATOM      5  C   UNL     1       0.064  -2.686  -0.015  0.00  0.00    +0.219 A 
ATOM      6  N   UNL     1       0.161  -2.051   1.143  0.00  0.00    -0.199 NA
ATOM      7  C   UNL     1       0.128  -0.723   1.192  0.00  0.00    +0.130 A 
ATOM      8  N   UNL     1       0.108  -4.069  -0.032  0.00  0.00    -0.306 N 
ATOM      9  C   UNL     1       0.002  -4.789  -1.303  0.00  0.00    +0.132 C 
ATOM     10  C   UNL     1       0.262  -4.812   1.221  0.00  0.00    +0.132 C 
ATOM     11  C   UNL     1      -0.281   0.027  -2.488  0.00  0.00    +0.066 C 
ENDROOT
BRANCH   7  12
ATOM     12  N   UNL     1       0.236  -0.062   2.405  0.00  0.00    -0.309 N 
ATOM     13  C   UNL     1      -0.841   0.265   3.371  0.00  0.00    +0.078 C 
ATOM     14  C   UNL     1      -0.516   1.704   3.831  0.00  0.00    +0.024 C 
ATOM     15  C   UNL     1       1.004   1.852   3.615  0.00  0.00    +0.024 C 
ATOM     16  C   UNL     1       1.456   0.482   3.048  0.00  0.00    +0.078 C 
ATOM     17  C   UNL     1       1.794  -0.434   4.235  0.00  0.00    +0.053 C 
ATOM     18  C   UNL     1       0.660  -0.354   5.261  0.00  0.00    +0.118 C 
ATOM     19  C   UNL     1      -0.676  -0.678   4.574  0.00  0.00    +0.053 C 
BRANCH  18  20
ATOM     20  O   UNL     1       0.617   0.960   5.820  0.00  0.00    -0.392 OA
ATOM     21  H   UNL     1      -0.079   1.084   6.480  0.00  0.00    +0.210 HD
ENDBRANCH  18  20
ENDBRANCH   7  12
TORSDOF 2
