REMARK  Name = ZINC64220764
REMARK  9 active torsions:
REMARK  status: ('A' for Active; 'I' for Inactive)
REMARK    1  A    between atoms: C_1  and  C_2
REMARK    2  A    between atoms: C_5  and  N_9
REMARK    3  A    between atoms: C_6  and  C_8
REMARK    4  A    between atoms: N_9  and  S_10
REMARK    5  A    between atoms: S_10  and  C_13
REMARK    6  A    between atoms: C_16  and  N_22
REMARK    7  A    between atoms: C_17  and  N_19
REMARK    8  A    between atoms: N_22  and  N_23
REMARK    9  A    between atoms: C_24  and  C_25
REMARK                            x       y       z     vdW  Elec       q    Type
REMARK                         _______ _______ _______ _____ _____    ______ ____
ROOT
ATOM      1  C   UNL     1       2.511  -4.625  -0.849  0.00  0.00    +0.111 A 
ATOM      2  C   UNL     1       3.026  -3.694  -1.736  0.00  0.00    +0.031 A 
ATOM      3  C   UNL     1       4.390  -3.580  -1.905  0.00  0.00    +0.029 A 
ATOM      4  C   UNL     1       5.251  -4.404  -1.182  0.00  0.00    +0.079 A 
ATOM      5  C   UNL     1       4.728  -5.339  -0.290  0.00  0.00    +0.150 A 
ATOM      6  C   UNL     1       3.362  -5.441  -0.124  0.00  0.00    +0.063 A 
ENDROOT
BRANCH   1   7
ATOM      7  S   UNL     1       0.768  -4.764  -0.637  0.00  0.00    +0.072 S 
ATOM      8  O   UNL     1       0.521  -6.077  -0.152  0.00  0.00    -0.150 OA
ATOM      9  O   UNL     1       0.172  -4.269  -1.828  0.00  0.00    -0.150 OA
BRANCH   7  10
ATOM     10  N   UNL     1       0.337  -3.723   0.577  0.00  0.00    -0.216 N 
ATOM     11  H   UNL     1      -0.090  -4.063   1.378  0.00  0.00    +0.174 HD
BRANCH  10  16
ATOM     12  C   UNL     1       1.358   1.830   0.043  0.00  0.00    +0.044 C 
ATOM     13  C   UNL     1       1.087   0.354   0.185  0.00  0.00    -0.050 A 
ATOM     14  C   UNL     1       0.729  -0.392  -0.924  0.00  0.00    +0.005 A 
ATOM     15  C   UNL     1       0.480  -1.744  -0.798  0.00  0.00    +0.025 A 
ATOM     16  C   UNL     1       0.589  -2.355   0.445  0.00  0.00    +0.051 A 
ATOM     17  C   UNL     1       0.948  -1.604   1.557  0.00  0.00    -0.028 A 
ATOM     18  C   UNL     1       1.201  -0.253   1.422  0.00  0.00    +0.008 A 
ATOM     19  C   UNL     1       1.066  -2.263   2.907  0.00  0.00    +0.046 C 
ENDBRANCH  10  16
ENDBRANCH   7  10
ENDBRANCH   1   7
BRANCH   5  20
ATOM     20  N   UNL     1       5.636  -6.217   0.481  0.00  0.00    +0.058 N 
ATOM     21  O   UNL     1       5.301  -7.469   0.714  0.00  0.00    -0.126 OA
ATOM     22  O   UNL     1       6.779  -5.746   0.935  0.00  0.00    -0.126 OA
ENDBRANCH   5  20
BRANCH   4  23
ATOM     23  N   UNL     1       6.622  -4.294  -1.349  0.00  0.00    -0.236 N 
ATOM     24  H   UNL     1       7.217  -4.917  -0.901  0.00  0.00    +0.174 HD
BRANCH  23  25
ATOM     25  N   UNL     1       7.108  -3.364  -2.099  0.00  0.00    -0.190 NA
ATOM     26  C   UNL     1       8.425  -3.258  -2.259  0.00  0.00    +0.136 C 
BRANCH  26  27
ATOM     27  C   UNL     1       8.944  -2.264  -3.061  0.00  0.00    +0.000 C 
ATOM     28  C   UNL     1      10.351  -1.996  -3.360  0.00  0.00    +0.004 A 
ATOM     29  C   UNL     1      11.538  -2.598  -2.973  0.00  0.00    +0.010 A 
ATOM     30  C   UNL     1      12.756  -2.108  -3.432  0.00  0.00    +0.001 A 
ATOM     31  C   UNL     1      12.835  -1.012  -4.283  0.00  0.00    +0.002 A 
ATOM     32  C   UNL     1      11.720  -0.357  -4.714  0.00  0.00    +0.026 A 
ATOM     33  C   UNL     1      10.395  -0.825  -4.266  0.00  0.00    +0.043 A 
ATOM     34  N   UNL     1       9.194  -0.394  -4.521  0.00  0.00    -0.380 N 
ATOM     35  C   UNL     1       8.187  -1.206  -3.836  0.00  0.00    +0.150 C 
ATOM     36  H   UNL     1       8.993   0.364  -5.092  0.00  0.00    +0.160 HD
ENDBRANCH  26  27
ENDBRANCH  23  25
ENDBRANCH   4  23
TORSDOF 7
