REMARK  Name = ZINC01769345
REMARK  4 active torsions:
REMARK  status: ('A' for Active; 'I' for Inactive)
REMARK    1  A    between atoms: C_1  and  C_2
REMARK    2  A    between atoms: C_10  and  C_11
REMARK    3  A    between atoms: N_13  and  C_20
REMARK    4  A    between atoms: C_20  and  C_21
REMARK                            x       y       z     vdW  Elec       q    Type
REMARK                         _______ _______ _______ _____ _____    ______ ____
ROOT
ATOM      1  C   UNL     1       2.850  -2.275  -7.566  0.00  0.00    +0.001 A 
ATOM      2  C   UNL     1       2.774  -3.648  -7.431  0.00  0.00    +0.095 A 
ATOM      3  N   UNL     1       2.930  -4.229  -8.637  0.00  0.00    -0.342 N 
ATOM      4  C   UNL     1       3.115  -3.276  -9.618  0.00  0.00    +0.050 A 
ATOM      5  C   UNL     1       3.069  -2.015  -9.004  0.00  0.00    +0.007 A 
ATOM      6  C   UNL     1       3.222  -0.860  -9.764  0.00  0.00    +0.010 A 
ATOM      7  C   UNL     1       3.416  -0.960 -11.125  0.00  0.00    +0.001 A 
ATOM      8  C   UNL     1       3.459  -2.204 -11.736  0.00  0.00    +0.002 A 
ATOM      9  C   UNL     1       3.317  -3.357 -10.992  0.00  0.00    +0.026 A 
ENDROOT
BRANCH   1  19
ATOM     10  C   UNL     1       0.979  -0.093   0.798  0.00  0.00    +0.038 C 
ATOM     11  C   UNL     1       1.818  -1.331   0.612  0.00  0.00    +0.004 C 
ATOM     12  C   UNL     1       2.327  -1.615  -0.584  0.00  0.00    +0.092 A 
ATOM     13  N   UNL     1       2.210  -0.905  -1.781  0.00  0.00    -0.283 N 
ATOM     14  H   UNL     1       1.668  -0.102  -1.829  0.00  0.00    +0.188 HD
ATOM     15  N   UNL     1       2.882  -1.369  -2.893  0.00  0.00    -0.212 N 
ATOM     16  C   UNL     1       2.986  -0.683  -4.121  0.00  0.00    +0.160 A 
ATOM     17  N   UNL     1       2.870   0.615  -4.231  0.00  0.00    -0.281 NA
ATOM     18  C   UNL     1       3.241  -1.583  -5.279  0.00  0.00    +0.085 A 
ATOM     19  C   UNL     1       2.736  -1.313  -6.537  0.00  0.00    +0.027 C 
ATOM     20  C   UNL     1       4.064  -2.784  -5.010  0.00  0.00    +0.283 A 
ATOM     21  O   UNL     1       4.690  -3.328  -5.904  0.00  0.00    -0.265 OA
ATOM     22  N   UNL     1       4.103  -3.261  -3.746  0.00  0.00    -0.182 NA
ATOM     23  C   UNL     1       3.519  -2.591  -2.789  0.00  0.00    +0.199 A 
ATOM     24  S   UNL     1       3.343  -3.001  -1.073  0.00  0.00    -0.031 S 
ATOM     25  H   UNL     1       2.950   1.037  -5.101  0.00  0.00    +0.188 HD
ENDBRANCH   1  19
BRANCH   3  26
ATOM     26  C   UNL     1       2.906  -5.675  -8.873  0.00  0.00    +0.157 C 
BRANCH  26  27
ATOM     27  C   UNL     1       4.316  -6.208  -8.866  0.00  0.00    -0.028 A 
ATOM     28  C   UNL     1       5.043  -6.256 -10.041  0.00  0.00    +0.008 A 
ATOM     29  C   UNL     1       6.335  -6.744 -10.036  0.00  0.00    +0.038 A 
ATOM     30  C   UNL     1       6.902  -7.186  -8.852  0.00  0.00    +0.123 A 
ATOM     31  C   UNL     1       6.174  -7.138  -7.676  0.00  0.00    +0.038 A 
ATOM     32  C   UNL     1       4.883  -6.645  -7.683  0.00  0.00    +0.008 A 
ATOM     33  F   UNL     1       8.166  -7.665  -8.846  0.00  0.00    -0.205 F 
ENDBRANCH  26  27
ENDBRANCH   3  26
TORSDOF 3
