REMARK  Name = ZINC20832729
REMARK  9 active torsions:
REMARK  status: ('A' for Active; 'I' for Inactive)
REMARK    1  A    between atoms: C_1  and  N_2
REMARK    2  A    between atoms: N_2  and  C_3
REMARK    3  A    between atoms: N_2  and  C_4
REMARK    4  A    between atoms: C_7  and  C_10
REMARK    5  A    between atoms: N_11  and  N_12
REMARK    6  A    between atoms: C_15  and  S_18
REMARK    7  A    between atoms: S_18  and  C_19
REMARK    8  A    between atoms: C_19  and  C_20
REMARK    9  A    between atoms: N_22  and  C_23
REMARK                            x       y       z     vdW  Elec       q    Type
REMARK                         _______ _______ _______ _____ _____    ______ ____
ROOT
ATOM      1  N   UNL     1      -0.067  13.276  -2.952  0.00  0.00    -0.205 N 
ATOM      2  C   UNL     1      -0.486  11.976  -2.710  0.00  0.00    +0.232 A 
ATOM      3  N   UNL     1      -0.345  11.291  -1.536  0.00  0.00    -0.186 NA
ATOM      4  C   UNL     1      -0.882  10.046  -1.706  0.00  0.00    +0.211 A 
ATOM      5  N   UNL     1      -1.343   9.968  -2.931  0.00  0.00    -0.144 NA
ATOM      6  N   UNL     1      -1.092  11.190  -3.567  0.00  0.00    -0.245 N 
ATOM      7  H   UNL     1       0.434  13.849  -2.157  0.00  0.00    +0.177 HD
ATOM      8  H   UNL     1      -1.310  11.549  -4.584  0.00  0.00    +0.192 HD
ENDROOT
BRANCH   1  10
ATOM      9  C   UNL     1       0.112  15.077  -4.433  0.00  0.00    +0.138 C 
ATOM     10  N   UNL     1      -0.281  13.860  -4.207  0.00  0.00    -0.188 NA
BRANCH   9  14
ATOM     11  C   UNL     1      -0.536  16.845  -8.238  0.00  0.00    +0.029 A 
ATOM     12  C   UNL     1       0.097  17.571  -7.235  0.00  0.00    +0.024 A 
ATOM     13  C   UNL     1       0.309  17.000  -5.999  0.00  0.00    +0.011 A 
ATOM     14  C   UNL     1      -0.113  15.691  -5.754  0.00  0.00    -0.005 A 
ATOM     15  C   UNL     1      -0.744  14.963  -6.767  0.00  0.00    +0.011 A 
ATOM     16  C   UNL     1      -0.957  15.542  -7.998  0.00  0.00    +0.024 A 
BRANCH  11  18
ATOM     17  C   UNL     1      -0.421  18.838  -9.706  0.00  0.00    +0.129 C 
ATOM     18  N   UNL     1      -0.749  17.427  -9.489  0.00  0.00    -0.336 N 
ATOM     19  C   UNL     1      -1.301  16.626 -10.585  0.00  0.00    +0.129 C 
ENDBRANCH  11  18
ENDBRANCH   9  14
ENDBRANCH   1  10
BRANCH   4  20
ATOM     20  S   UNL     1      -0.950   8.773  -0.490  0.00  0.00    -0.075 S 
BRANCH  20  21
ATOM     21  C   UNL     1      -1.780   7.401  -1.337  0.00  0.00    +0.173 C 
BRANCH  21  22
ATOM     22  C   UNL     1      -1.905   6.231  -0.396  0.00  0.00    +0.224 C 
ATOM     23  O   UNL     1      -1.476   6.314   0.735  0.00  0.00    -0.275 OA
ATOM     24  N   UNL     1      -2.493   5.091  -0.811  0.00  0.00    -0.308 N 
ATOM     25  H   UNL     1      -2.882   5.015  -1.837  0.00  0.00    +0.149 HD
BRANCH  24  26
ATOM     26  C   UNL     1      -2.614   3.953   0.104  0.00  0.00    +0.103 C 
ATOM     27  C   UNL     1      -3.806   3.097  -0.331  0.00  0.00    +0.027 C 
ATOM     28  C   UNL     1      -3.792   1.807   0.496  0.00  0.00    +0.007 C 
ATOM     29  C   UNL     1      -2.608   0.956   0.042  0.00  0.00    +0.035 C 
ATOM     30  C   UNL     1      -1.340   1.769   0.045  0.00  0.00    -0.042 A 
ATOM     31  C   UNL     1      -1.343   3.146   0.062  0.00  0.00    -0.024 A 
ATOM     32  C   UNL     1      -0.138   3.836   0.043  0.00  0.00    +0.006 A 
ATOM     33  C   UNL     1       1.061   3.153   0.019  0.00  0.00    +0.000 A 
ATOM     34  C   UNL     1       1.064   1.771   0.014  0.00  0.00    +0.000 A 
ATOM     35  C   UNL     1      -0.132   1.083   0.030  0.00  0.00    +0.004 A 
ENDBRANCH  24  26
ENDBRANCH  21  22
ENDBRANCH  20  21
ENDBRANCH   4  20
TORSDOF 7
