REMARK  Name = ZINC60482999
REMARK  8 active torsions:
REMARK  status: ('A' for Active; 'I' for Inactive)
REMARK    1  A    between atoms: C_1  and  C_2
REMARK    2  A    between atoms: C_2  and  C_3
REMARK    3  A    between atoms: C_2  and  N_4
REMARK    4  A    between atoms: C_8  and  C_10
REMARK    5  A    between atoms: C_10  and  C_11
REMARK    6  A    between atoms: C_10  and  N_12
REMARK    7  A    between atoms: C_15  and  C_18
REMARK    8  A    between atoms: C_18  and  C_20
REMARK                            x       y       z     vdW  Elec       q    Type
REMARK                         _______ _______ _______ _____ _____    ______ ____
ROOT
ATOM      1  N   UNL     1      -5.963  -1.699  -3.640  0.00  0.00    +0.387 N 
ATOM      2  C   UNL     1      -5.213  -2.606  -4.517  0.00  0.00    -0.077 C 
ATOM      3  C   UNL     1      -5.734  -2.483  -5.950  0.00  0.00    -0.007 C 
ATOM      4  C   UNL     1      -7.220  -2.855  -5.980  0.00  0.00    +0.057 C 
ATOM      5  C   UNL     1      -7.982  -1.952  -5.006  0.00  0.00    -0.007 C 
ATOM      6  C   UNL     1      -7.377  -2.094  -3.608  0.00  0.00    -0.077 C 
ATOM      7  H   UNL     1      -5.886  -0.756  -3.990  0.00  0.00    -0.081 HD
ENDROOT
BRANCH   1   8
ATOM      8  C   UNL     1      -5.408  -1.762  -2.281  0.00  0.00    +0.017 C 
ATOM      9  C   UNL     1      -6.221  -0.856  -1.355  0.00  0.00    -0.004 C 
BRANCH   8  14
ATOM     10  N   UNL     1      -0.953  -1.799  -0.473  0.00  0.00    -0.297 N 
ATOM     11  C   UNL     1      -1.822  -1.344  -1.398  0.00  0.00    +0.306 C 
ATOM     12  O   UNL     1      -1.448  -0.562  -2.250  0.00  0.00    -0.252 OA
ATOM     13  N   UNL     1      -3.105  -1.756  -1.379  0.00  0.00    -0.242 N 
ATOM     14  C   UNL     1      -3.973  -1.301  -2.303  0.00  0.00    +0.207 C 
ATOM     15  O   UNL     1      -3.600  -0.521  -3.153  0.00  0.00    -0.277 OA
ATOM     16  H   UNL     1      -1.252  -2.423   0.206  0.00  0.00    +0.151 HD
ATOM     17  H   UNL     1      -3.403  -2.381  -0.699  0.00  0.00    +0.159 HD
BRANCH  10  19
ATOM     18  C   UNL     1       0.562  -0.024   0.257  0.00  0.00    +0.027 C 
ATOM     19  C   UNL     1       0.441  -1.351  -0.495  0.00  0.00    +0.068 C 
ATOM     20  C   UNL     1       1.325  -2.402   0.180  0.00  0.00    +0.027 C 
ENDBRANCH  10  19
ENDBRANCH   8  14
ENDBRANCH   1   8
BRANCH   4  21
ATOM     21  C   UNL     1      -7.759  -2.662  -7.374  0.00  0.00    +0.166 C 
ATOM     22  O   UNL     1      -7.225  -1.876  -8.127  0.00  0.00    -0.292 OA
BRANCH  21  23
ATOM     23  C   UNL     1      -8.935  -3.425  -7.820  0.00  0.00    +0.018 A 
ATOM     24  C   UNL     1      -9.557  -4.328  -6.951  0.00  0.00    +0.013 A 
ATOM     25  C   UNL     1     -10.658  -5.040  -7.376  0.00  0.00    +0.020 A 
ATOM     26  C   UNL     1     -11.148  -4.864  -8.660  0.00  0.00    +0.041 A 
ATOM     27  C   UNL     1     -10.537  -3.972  -9.526  0.00  0.00    +0.020 A 
ATOM     28  C   UNL     1      -9.438  -3.248  -9.113  0.00  0.00    +0.013 A 
ATOM     29 CL   UNL     1     -12.535  -5.766  -9.187  0.00  0.00    -0.084 Cl
ENDBRANCH  21  23
ENDBRANCH   4  21
TORSDOF 5
