REMARK  Name = ZINC28055036
REMARK  6 active torsions:
REMARK  status: ('A' for Active; 'I' for Inactive)
REMARK    1  A    between atoms: C_1  and  O_2
REMARK    2  A    between atoms: O_2  and  C_3
REMARK    3  A    between atoms: C_6  and  C_11
REMARK    4  A    between atoms: C_8  and  O_9
REMARK    5  A    between atoms: O_9  and  C_10
REMARK    6  A    between atoms: C_29  and  C_31
REMARK                            x       y       z     vdW  Elec       q    Type
REMARK                         _______ _______ _______ _____ _____    ______ ____
ROOT
ATOM      1  C   UNL     1      -0.272   5.952   2.614  0.00  0.00    +0.234 C 
ATOM      2  C   UNL     1      -0.897   6.133   1.250  0.00  0.00    +0.025 C 
ATOM      3  C   UNL     1      -2.103   6.698   1.158  0.00  0.00    +0.050 C 
ATOM      4  C   UNL     1      -2.766   7.154   2.403  0.00  0.00    +0.039 A 
ATOM      5  C   UNL     1      -4.126   7.434   2.442  0.00  0.00    +0.033 A 
ATOM      6  C   UNL     1      -4.701   7.858   3.625  0.00  0.00    +0.042 A 
ATOM      7  C   UNL     1      -3.927   8.003   4.765  0.00  0.00    +0.023 A 
ATOM      8  C   UNL     1      -2.573   7.726   4.734  0.00  0.00    +0.048 A 
ATOM      9  C   UNL     1      -1.986   7.299   3.558  0.00  0.00    +0.131 A 
ATOM     10  O   UNL     1      -0.661   7.011   3.489  0.00  0.00    -0.479 OA
ATOM     11 CL   UNL     1      -6.400   8.210   3.684  0.00  0.00    -0.084 Cl
ATOM     12  N   UNL     1      -2.750   6.884  -0.070  0.00  0.00    -0.282 N 
ATOM     13  C   UNL     1      -1.990   6.729  -1.218  0.00  0.00    +0.240 A 
ATOM     14  N   UNL     1      -2.228   7.052  -2.456  0.00  0.00    -0.092 NA
ATOM     15  N   UNL     1      -1.226   6.733  -3.201  0.00  0.00    -0.021 NA
ATOM     16  N   UNL     1      -0.292   6.187  -2.491  0.00  0.00    -0.042 NA
ATOM     17  N   UNL     1      -0.756   6.161  -1.177  0.00  0.00    -0.201 N 
ATOM     18  C   UNL     1      -0.134   5.657   0.039  0.00  0.00    +0.174 C 
ATOM     19  H   UNL     1      -3.819   7.142  -0.095  0.00  0.00    +0.155 HD
ENDROOT
BRANCH  18  20
ATOM     20  C   UNL     1      -0.133   4.150   0.011  0.00  0.00    -0.019 A 
ATOM     21  C   UNL     1       1.065   3.461  -0.029  0.00  0.00    +0.009 A 
ATOM     22  C   UNL     1       1.068   2.079  -0.054  0.00  0.00    +0.039 A 
ATOM     23  C   UNL     1      -0.130   1.385  -0.041  0.00  0.00    +0.123 A 
ATOM     24  C   UNL     1      -1.329   2.076  -0.007  0.00  0.00    +0.039 A 
ATOM     25  C   UNL     1      -1.329   3.458   0.024  0.00  0.00    +0.009 A 
ATOM     26  F   UNL     1      -0.129   0.034  -0.067  0.00  0.00    -0.205 F 
ENDBRANCH  18  20
BRANCH   1  30
ATOM     27  C   UNL     1      -1.544   2.217   4.264  0.00  0.00    +0.162 A 
ATOM     28  C   UNL     1      -0.256   2.358   3.773  0.00  0.00    +0.050 A 
ATOM     29  C   UNL     1       0.152   3.567   3.241  0.00  0.00    +0.011 A 
ATOM     30  C   UNL     1      -0.722   4.636   3.196  0.00  0.00    +0.001 A 
ATOM     31  C   UNL     1      -2.007   4.504   3.689  0.00  0.00    +0.057 A 
ATOM     32  C   UNL     1      -2.424   3.294   4.220  0.00  0.00    +0.162 A 
BRANCH  27  34
ATOM     33  C   UNL     1      -0.990  -0.032   4.802  0.00  0.00    +0.277 C 
ATOM     34  O   UNL     1      -1.947   1.029   4.789  0.00  0.00    -0.491 OA
ENDBRANCH  27  34
BRANCH  32  35
ATOM     35  O   UNL     1      -3.689   3.160   4.700  0.00  0.00    -0.491 OA
ATOM     36  C   UNL     1      -4.573   4.268   4.517  0.00  0.00    +0.277 C 
ENDBRANCH  32  35
ENDBRANCH   1  30
TORSDOF 4
