REMARK  Name = ZINC50006718
REMARK  8 active torsions:
REMARK  status: ('A' for Active; 'I' for Inactive)
REMARK    1  A    between atoms: C_1  and  C_2
REMARK    2  A    between atoms: C_5  and  C_10
REMARK    3  A    between atoms: C_7  and  O_8
REMARK    4  A    between atoms: O_8  and  C_9
REMARK    5  A    between atoms: C_10  and  C_11
REMARK    6  A    between atoms: C_11  and  N_13
REMARK    7  A    between atoms: C_17  and  C_20
REMARK    8  A    between atoms: C_23  and  C_25
REMARK                            x       y       z     vdW  Elec       q    Type
REMARK                         _______ _______ _______ _____ _____    ______ ____
ROOT
ATOM      1  N   UNL     1       1.745  -6.064  -0.051  0.00  0.00    -0.145 NA
ATOM      2  C   UNL     1       3.008  -6.493  -0.061  0.00  0.00    +0.216 A 
ATOM      3  N   UNL     1       4.122  -5.713  -0.054  0.00  0.00    -0.309 N 
ATOM      4  H   UNL     1       4.138  -4.743  -0.042  0.00  0.00    +0.170 HD
ATOM      5  C   UNL     1       5.226  -6.540  -0.069  0.00  0.00    +0.167 A 
ATOM      6  N   UNL     1       4.816  -7.781  -0.084  0.00  0.00    -0.152 NA
ATOM      7  N   UNL     1       3.415  -7.780  -0.073  0.00  0.00    -0.246 N 
ATOM      8  H   UNL     1       2.841  -8.562  -0.076  0.00  0.00    +0.192 HD
ENDROOT
BRANCH   5   9
ATOM      9  C   UNL     1       6.631  -6.099  -0.069  0.00  0.00    +0.056 A 
ATOM     10  C   UNL     1       7.775  -6.857  -0.089  0.00  0.00    +0.019 A 
ATOM     11  C   UNL     1       8.992  -6.215  -0.085  0.00  0.00    +0.011 A 
ATOM     12  C   UNL     1       9.025  -4.857  -0.061  0.00  0.00    -0.013 A 
ATOM     13  S   UNL     1       7.290  -4.440  -0.051  0.00  0.00    -0.090 S 
ATOM     14  C   UNL     1      10.220  -3.939  -0.052  0.00  0.00    +0.051 C 
ENDBRANCH   5   9
BRANCH   1  15
ATOM     15  C   UNL     1       1.486  -4.763  -0.038  0.00  0.00    +0.243 C 
ATOM     16  O   UNL     1       2.400  -3.961  -0.036  0.00  0.00    -0.273 OA
BRANCH  15  17
ATOM     17  C   UNL     1       0.058  -4.279  -0.027  0.00  0.00    +0.133 C 
BRANCH  17  22
ATOM     18  C   UNL     1      -0.018   1.503   0.010  0.00  0.00    +0.047 C 
ATOM     19  C   UNL     1       0.002  -0.004   0.002  0.00  0.00    -0.009 A 
ATOM     20  C   UNL     1       0.006  -0.689  -1.198  0.00  0.00    +0.007 A 
ATOM     21  C   UNL     1       0.024  -2.071  -1.206  0.00  0.00    +0.004 A 
ATOM     22  C   UNL     1       0.039  -2.772  -0.014  0.00  0.00    -0.035 A 
ATOM     23  C   UNL     1       0.036  -2.092   1.188  0.00  0.00    +0.050 A 
ATOM     24  C   UNL     1       0.023  -0.705   1.199  0.00  0.00    +0.123 A 
BRANCH  24  25
ATOM     25  O   UNL     1       0.025  -0.033   2.381  0.00  0.00    -0.495 OA
ATOM     26  C   UNL     1       0.048  -0.820   3.574  0.00  0.00    +0.277 C 
ENDBRANCH  24  25
ENDBRANCH  17  22
ENDBRANCH  15  17
ENDBRANCH   1  15
TORSDOF 5
