REMARK  Name = ZINC48832331
REMARK  7 active torsions:
REMARK  status: ('A' for Active; 'I' for Inactive)
REMARK    1  A    between atoms: C_1  and  C_2
REMARK    2  A    between atoms: C_3  and  N_11
REMARK    3  A    between atoms: C_7  and  N_8
REMARK    4  A    between atoms: C_12  and  C_14
REMARK    5  A    between atoms: N_16  and  C_17
REMARK    6  A    between atoms: C_17  and  C_19
REMARK    7  A    between atoms: C_17  and  C_20
REMARK                            x       y       z     vdW  Elec       q    Type
REMARK                         _______ _______ _______ _____ _____    ______ ____
ROOT
ATOM      1  N   UNL     1      -0.993   0.030  -2.269  0.00  0.00    -0.277 N 
ATOM      2  C   UNL     1      -0.972  -0.806  -3.326  0.00  0.00    +0.303 C 
ATOM      3  O   UNL     1      -0.990  -2.007  -3.151  0.00  0.00    -0.265 OA
ATOM      4  H   UNL     1      -0.906   0.986  -2.405  0.00  0.00    +0.155 HD
ENDROOT
BRANCH   1   7
ATOM      5  C   UNL     1      -2.433   1.579  -0.365  0.00  0.00    +0.048 C 
ATOM      6  C   UNL     1      -1.834   0.241  -0.016  0.00  0.00    +0.001 A 
ATOM      7  C   UNL     1      -1.139  -0.482  -0.977  0.00  0.00    +0.039 A 
ATOM      8  C   UNL     1      -0.589  -1.715  -0.650  0.00  0.00    +0.024 A 
ATOM      9  C   UNL     1      -0.735  -2.218   0.628  0.00  0.00    +0.004 A 
ATOM     10  C   UNL     1      -1.428  -1.496   1.582  0.00  0.00    +0.033 A 
ATOM     11  C   UNL     1      -1.972  -0.265   1.262  0.00  0.00    +0.131 A 
BRANCH  11  12
ATOM     12  N   UNL     1      -2.708   0.508   2.288  0.00  0.00    +0.057 N 
ATOM     13  O   UNL     1      -2.740   1.715   2.227  0.00  0.00    -0.126 OA
ATOM     14  O   UNL     1      -3.276  -0.068   3.186  0.00  0.00    -0.126 OA
ENDBRANCH  11  12
ENDBRANCH   1   7
BRANCH   2  15
ATOM     15  C   UNL     1      -0.926  -0.254  -4.713  0.00  0.00    +0.300 C 
ATOM     16  O   UNL     1      -0.908   0.947  -4.888  0.00  0.00    -0.265 OA
ATOM     17  N   UNL     1      -0.905  -1.089  -5.770  0.00  0.00    -0.301 N 
ATOM     18  H   UNL     1      -0.920  -2.049  -5.630  0.00  0.00    +0.150 HD
BRANCH  17  19
ATOM     19  C   UNL     1      -0.861  -0.548  -7.131  0.00  0.00    +0.103 C 
ATOM     20  C   UNL     1       0.597  -0.379  -7.565  0.00  0.00    +0.033 C 
BRANCH  19  21
ATOM     21  C   UNL     1      -1.558  -1.496  -8.072  0.00  0.00    +0.008 A 
ATOM     22  C   UNL     1      -1.605  -2.847  -7.783  0.00  0.00    +0.011 A 
ATOM     23  C   UNL     1      -2.245  -3.717  -8.644  0.00  0.00    +0.039 A 
ATOM     24  C   UNL     1      -2.839  -3.237  -9.800  0.00  0.00    +0.126 A 
ATOM     25  C   UNL     1      -2.793  -1.885 -10.090  0.00  0.00    +0.077 A 
ATOM     26  C   UNL     1      -2.156  -1.013  -9.223  0.00  0.00    +0.131 A 
ATOM     27  F   UNL     1      -2.115   0.308  -9.503  0.00  0.00    -0.205 F 
ATOM     28  F   UNL     1      -3.464  -4.088 -10.642  0.00  0.00    -0.205 F 
ENDBRANCH  19  21
ENDBRANCH  17  19
ENDBRANCH   2  15
TORSDOF 5
