REMARK  Name = ZINC41663994
REMARK  6 active torsions:
REMARK  status: ('A' for Active; 'I' for Inactive)
REMARK    1  A    between atoms: C_1  and  O_2
REMARK    2  A    between atoms: O_2  and  C_3
REMARK    3  A    between atoms: C_12  and  C_14
REMARK    4  A    between atoms: N_26  and  C_29
REMARK    5  A    between atoms: C_29  and  C_30
REMARK    6  A    between atoms: C_30  and  C_31
REMARK                            x       y       z     vdW  Elec       q    Type
REMARK                         _______ _______ _______ _____ _____    ______ ____
ROOT
ATOM      1  C   UNL     1       0.536  -6.231  -1.463  0.00  0.00    +0.006 A 
ATOM      2  C   UNL     1       1.704  -6.951  -1.274  0.00  0.00    +0.101 A 
ATOM      3  C   UNL     1       1.663  -8.353  -1.301  0.00  0.00    +0.338 A 
ATOM      4  O   UNL     1       2.696  -8.979  -1.136  0.00  0.00    -0.245 OA
ATOM      5  O   UNL     1       0.518  -9.025  -1.504  0.00  0.00    -0.422 OA
ATOM      6  C   UNL     1      -0.658  -8.390  -1.698  0.00  0.00    +0.148 A 
ATOM      7  C   UNL     1      -0.710  -6.987  -1.680  0.00  0.00    +0.026 A 
ATOM      8  C   UNL     1      -1.926  -6.329  -1.871  0.00  0.00    +0.016 A 
ATOM      9  C   UNL     1      -3.065  -7.054  -2.071  0.00  0.00    +0.047 A 
ATOM     10  C   UNL     1      -3.024  -8.449  -2.087  0.00  0.00    +0.130 A 
ATOM     11  C   UNL     1      -1.823  -9.114  -1.911  0.00  0.00    +0.051 A 
ATOM     12  C   UNL     1      -1.763 -10.620  -1.933  0.00  0.00    +0.130 C 
ATOM     13  N   UNL     1      -3.115 -11.171  -1.758  0.00  0.00    -0.266 NA
ATOM     14  C   UNL     1      -4.053 -10.513  -2.683  0.00  0.00    +0.318 C 
ATOM     15  O   UNL     1      -4.178  -9.139  -2.287  0.00  0.00    -0.476 OA
ENDROOT
BRANCH   1  25
ATOM     16  C   UNL     1       0.606  -0.607  -1.056  0.00  0.00    +0.163 A 
ATOM     17  C   UNL     1       1.173   0.157  -2.061  0.00  0.00    +0.049 A 
ATOM     18  C   UNL     1       1.797  -0.450  -3.142  0.00  0.00    +0.004 A 
ATOM     19  C   UNL     1       1.852  -1.811  -3.239  0.00  0.00    +0.012 A 
ATOM     20  C   UNL     1       1.264  -2.607  -2.246  0.00  0.00    +0.022 A 
ATOM     21  C   UNL     1       0.662  -1.997  -1.130  0.00  0.00    +0.180 A 
ATOM     22  O   UNL     1       0.157  -2.758  -0.129  0.00  0.00    -0.418 OA
ATOM     23  C   UNL     1      -0.260  -4.002  -0.456  0.00  0.00    +0.345 A 
ATOM     24  O   UNL     1      -1.259  -4.483   0.044  0.00  0.00    -0.245 OA
ATOM     25  C   UNL     1       0.539  -4.756  -1.441  0.00  0.00    +0.068 A 
ATOM     26  C   UNL     1       1.283  -4.023  -2.351  0.00  0.00    +0.027 A 
BRANCH  16  28
ATOM     27  C   UNL     1      -0.017   1.425   0.010  0.00  0.00    +0.277 C 
ATOM     28  O   UNL     1       0.002  -0.004   0.002  0.00  0.00    -0.491 OA
ENDBRANCH  16  28
ENDBRANCH   1  25
BRANCH  13  29
ATOM     29  C   UNL     1      -3.119 -12.627  -1.951  0.00  0.00    +0.092 C 
BRANCH  29  30
ATOM     30  C   UNL     1      -4.473 -13.194  -1.521  0.00  0.00    +0.050 C 
BRANCH  30  31
ATOM     31  C   UNL     1      -4.478 -14.688  -1.718  0.00  0.00    -0.046 A 
ATOM     32  C   UNL     1      -4.890 -15.224  -2.924  0.00  0.00    +0.005 A 
ATOM     33  C   UNL     1      -4.895 -16.594  -3.106  0.00  0.00    +0.020 A 
ATOM     34  C   UNL     1      -4.487 -17.429  -2.081  0.00  0.00    +0.041 A 
ATOM     35  C   UNL     1      -4.074 -16.892  -0.874  0.00  0.00    +0.020 A 
ATOM     36  C   UNL     1      -4.065 -15.521  -0.696  0.00  0.00    +0.005 A 
ATOM     37 CL   UNL     1      -4.492 -19.150  -2.308  0.00  0.00    -0.084 Cl
ENDBRANCH  30  31
ENDBRANCH  29  30
ENDBRANCH  13  29
TORSDOF 5
