REMARK  Name = ZINC63270865
REMARK  3 active torsions:
REMARK  status: ('A' for Active; 'I' for Inactive)
REMARK    1  A    between atoms: N_17  and  C_18
REMARK    2  A    between atoms: C_18  and  C_19
REMARK    3  A    between atoms: N_21  and  C_22
REMARK                            x       y       z     vdW  Elec       q    Type
REMARK                         _______ _______ _______ _____ _____    ______ ____
ROOT
ATOM      1  C   UNL     1      -0.021   1.343  -0.030  0.00  0.00    +0.001 A 
ATOM      2  C   UNL     1       1.160   2.096  -0.045  0.00  0.00    +0.002 A 
ATOM      3  C   UNL     1       2.385   1.529  -0.066  0.00  0.00    +0.026 A 
ATOM      4  C   UNL     1       2.524   0.114  -0.074  0.00  0.00    +0.043 A 
ATOM      5  N   UNL     1       3.586  -0.659  -0.073  0.00  0.00    -0.376 N 
ATOM      6  C   UNL     1       3.148  -2.050  -0.160  0.00  0.00    +0.124 C 
ATOM      7  C   UNL     1       3.671  -2.888   1.012  0.00  0.00    +0.138 C 
ATOM      8  N   UNL     1       2.877  -4.125   1.073  0.00  0.00    -0.283 N 
ATOM      9  C   UNL     1       1.424  -4.071   1.267  0.00  0.00    +0.114 C 
ATOM     10  C   UNL     1       0.789  -3.243   0.135  0.00  0.00    +0.052 C 
ATOM     11  C   UNL     1       1.633  -2.003  -0.051  0.00  0.00    -0.036 C 
ATOM     12  C   UNL     1       1.288  -0.707  -0.051  0.00  0.00    -0.001 A 
ATOM     13  C   UNL     1      -0.004  -0.009  -0.033  0.00  0.00    +0.010 A 
ATOM     14  C   UNL     1       3.490  -5.319   0.947  0.00  0.00    +0.303 C 
ATOM     15  O   UNL     1       4.678  -5.368   0.692  0.00  0.00    -0.253 OA
ATOM     16  N   UNL     1       2.786  -6.457   1.105  0.00  0.00    -0.291 N 
ATOM     17  H   UNL     1       1.826  -6.420   1.237  0.00  0.00    +0.151 HD
ATOM     18  H   UNL     1       4.506  -0.357  -0.023  0.00  0.00    +0.160 HD
ENDROOT
BRANCH  16  19
ATOM     19  C   UNL     1       3.472  -7.752   1.078  0.00  0.00    +0.202 C 
BRANCH  19  20
ATOM     20  C   UNL     1       2.466  -8.857   1.276  0.00  0.00    +0.234 C 
ATOM     21  O   UNL     1       1.293  -8.589   1.425  0.00  0.00    -0.274 OA
ATOM     22  N   UNL     1       2.872 -10.142   1.288  0.00  0.00    -0.282 N 
ATOM     23  H   UNL     1       3.818 -10.353   1.249  0.00  0.00    +0.155 HD
BRANCH  22  24
ATOM     24  C   UNL     1       1.927 -11.174   1.355  0.00  0.00    +0.069 A 
ATOM     25  C   UNL     1       0.631 -10.961   0.905  0.00  0.00    +0.026 A 
ATOM     26  C   UNL     1      -0.299 -11.980   0.972  0.00  0.00    +0.002 A 
ATOM     27  C   UNL     1       0.059 -13.212   1.488  0.00  0.00    +0.003 A 
ATOM     28  C   UNL     1       1.348 -13.429   1.938  0.00  0.00    +0.040 A 
ATOM     29  C   UNL     1       2.286 -12.415   1.868  0.00  0.00    +0.144 A 
ATOM     30  F   UNL     1       3.547 -12.629   2.303  0.00  0.00    -0.204 F 
ENDBRANCH  22  24
ENDBRANCH  19  20
ENDBRANCH  16  19
TORSDOF 3
