REMARK  Name = ZINC01368237
REMARK  6 active torsions:
REMARK  status: ('A' for Active; 'I' for Inactive)
REMARK    1  A    between atoms: C_1  and  C_2
REMARK    2  A    between atoms: C_7  and  C_23
REMARK    3  A    between atoms: N_9  and  S_10
REMARK    4  A    between atoms: S_10  and  C_13
REMARK    5  A    between atoms: C_16  and  S_19
REMARK    6  A    between atoms: S_19  and  N_22
REMARK                            x       y       z     vdW  Elec       q    Type
REMARK                         _______ _______ _______ _____ _____    ______ ____
ROOT
ATOM      1  C   UNL     1       2.718   1.834   3.040  0.00  0.00    +0.106 A 
ATOM      2  C   UNL     1       3.293   2.696   2.126  0.00  0.00    +0.030 A 
ATOM      3  C   UNL     1       4.167   3.677   2.555  0.00  0.00    +0.030 A 
ATOM      4  C   UNL     1       4.474   3.789   3.898  0.00  0.00    +0.105 A 
ATOM      5  C   UNL     1       3.904   2.924   4.812  0.00  0.00    +0.030 A 
ATOM      6  C   UNL     1       3.025   1.946   4.383  0.00  0.00    +0.030 A 
ENDROOT
BRANCH   1   7
ATOM      7  S   UNL     1       1.598   0.588   2.494  0.00  0.00    +0.061 S 
ATOM      8  O   UNL     1       1.624  -0.440   3.474  0.00  0.00    -0.153 OA
ATOM      9  O   UNL     1       1.898   0.344   1.126  0.00  0.00    -0.153 OA
BRANCH   7  16
ATOM     10  C   UNL     1       0.480   1.763   0.174  0.00  0.00    +0.026 C 
ATOM     11  C   UNL     1      -0.474   1.930   1.359  0.00  0.00    +0.077 C 
ATOM     12  C   UNL     1      -1.831   1.307   1.016  0.00  0.00    +0.020 C 
ATOM     13  C   UNL     1      -2.734   1.352   2.251  0.00  0.00    +0.003 C 
ATOM     14  C   UNL     1      -2.099   0.536   3.380  0.00  0.00    +0.020 C 
ATOM     15  C   UNL     1      -0.745   1.150   3.748  0.00  0.00    +0.077 C 
ATOM     16  N   UNL     1       0.078   1.244   2.535  0.00  0.00    -0.171 NA
ATOM     17  C   UNL     1      -0.043   0.261   4.777  0.00  0.00    +0.026 C 
ENDBRANCH   7  16
ENDBRANCH   1   7
BRANCH   4  18
ATOM     18  S   UNL     1       5.594   5.035   4.445  0.00  0.00    +0.056 S 
ATOM     19  O   UNL     1       5.568   6.063   3.464  0.00  0.00    -0.153 OA
ATOM     20  O   UNL     1       5.294   5.279   5.812  0.00  0.00    -0.153 OA
BRANCH  18  21
ATOM     21  N   UNL     1       7.114   4.380   4.404  0.00  0.00    -0.204 NA
ATOM     22  H   UNL     1       7.239   3.463   4.112  0.00  0.00    +0.144 HD
ATOM     23  H   UNL     1       7.879   4.913   4.671  0.00  0.00    +0.144 HD
ENDBRANCH  18  21
ENDBRANCH   4  18
TORSDOF 4
