REMARK  Name = ZINC20765126
REMARK  10 active torsions:
REMARK  status: ('A' for Active; 'I' for Inactive)
REMARK    1  A    between atoms: C_1  and  C_2
REMARK    2  A    between atoms: C_2  and  O_3
REMARK    3  A    between atoms: O_3  and  C_4
REMARK    4  A    between atoms: C_9  and  C_10
REMARK    5  A    between atoms: C_13  and  C_25
REMARK    6  A    between atoms: C_16  and  C_18
REMARK    7  A    between atoms: C_29  and  O_32
REMARK    8  A    between atoms: C_30  and  O_31
REMARK    9  A    between atoms: O_32  and  C_33
REMARK   10  A    between atoms: C_33  and  C_34
REMARK                            x       y       z     vdW  Elec       q    Type
REMARK                         _______ _______ _______ _____ _____    ______ ____
ROOT
ATOM      1  C   UNL     1      -0.774   1.527  -1.133  0.00  0.00    +0.084 C 
ATOM      2  N   UNL     1      -0.012   1.005   0.008  0.00  0.00    +0.401 N 
ATOM      3  C   UNL     1       1.356   1.551  -0.003  0.00  0.00    -0.028 C 
ATOM      4  C   UNL     1       1.273   3.054   0.281  0.00  0.00    +0.044 C 
ATOM      5  C   UNL     1       0.207   3.669  -0.583  0.00  0.00    +0.040 C 
ATOM      6  N   UNL     1      -0.684   2.980  -1.190  0.00  0.00    -0.298 NA
ATOM      7  H   UNL     1      -0.508   1.295   0.945  0.00  0.00    -0.081 HD
ATOM      8  H   UNL     1       0.038  -0.092  -0.056  0.00  0.00    -0.081 HD
ENDROOT
BRANCH   5   9
ATOM      9  C   UNL     1       0.188   5.137  -0.739  0.00  0.00    -0.004 A 
ATOM     10  C   UNL     1       1.141   5.923  -0.087  0.00  0.00    +0.011 A 
ATOM     11  C   UNL     1       1.121   7.294  -0.241  0.00  0.00    +0.016 A 
ATOM     12  C   UNL     1       0.153   7.891  -1.030  0.00  0.00    +0.018 A 
ATOM     13  C   UNL     1      -0.798   7.117  -1.674  0.00  0.00    +0.016 A 
ATOM     14  C   UNL     1      -0.786   5.745  -1.533  0.00  0.00    +0.011 A 
ATOM     15 BR   UNL     1       0.129   9.771  -1.230  0.00  0.00    -0.050 Br
ENDBRANCH   5   9
BRANCH   1  21
ATOM     16  C   UNL     1      -3.213   1.878  -1.597  0.00  0.00    +0.124 A 
ATOM     17  C   UNL     1      -4.543   1.505  -1.463  0.00  0.00    +0.046 A 
ATOM     18  C   UNL     1      -4.874   0.385  -0.725  0.00  0.00    +0.004 A 
ATOM     19  C   UNL     1      -3.881  -0.365  -0.121  0.00  0.00    +0.000 A 
ATOM     20  C   UNL     1      -2.555   0.002  -0.257  0.00  0.00    +0.007 A 
ATOM     21  C   UNL     1      -2.220   1.125  -0.989  0.00  0.00    +0.001 A 
BRANCH  16  22
ATOM     22  O   UNL     1      -2.885   2.980  -2.321  0.00  0.00    -0.492 OA
BRANCH  22  24
ATOM     23  C   UNL     1      -3.400   4.905  -3.688  0.00  0.00    +0.048 C 
ATOM     24  C   UNL     1      -3.960   3.707  -2.919  0.00  0.00    +0.225 C 
ENDBRANCH  22  24
ENDBRANCH  16  22
ENDBRANCH   1  21
BRANCH   3  25
ATOM     25  C   UNL     1       2.181   0.878   1.064  0.00  0.00    -0.016 A 
ATOM     26  C   UNL     1       1.557   0.237   2.119  0.00  0.00    +0.006 A 
ATOM     27  C   UNL     1       2.310  -0.386   3.096  0.00  0.00    +0.004 A 
ATOM     28  C   UNL     1       3.691  -0.362   3.028  0.00  0.00    +0.049 A 
ATOM     29  C   UNL     1       4.323   0.282   1.977  0.00  0.00    +0.162 A 
ATOM     30  C   UNL     1       3.564   0.905   0.990  0.00  0.00    +0.160 A 
BRANCH  30  31
ATOM     31  O   UNL     1       4.179   1.539  -0.043  0.00  0.00    -0.503 OA
ATOM     32  H   UNL     1       5.277   1.560  -0.101  0.00  0.00    +0.292 HD
ENDBRANCH  30  31
BRANCH  29  33
ATOM     33  O   UNL     1       5.681   0.306   1.909  0.00  0.00    -0.489 OA
BRANCH  33  34
ATOM     34  C   UNL     1       6.394  -0.354   2.957  0.00  0.00    +0.226 C 
ATOM     35  C   UNL     1       7.899  -0.222   2.711  0.00  0.00    +0.048 C 
ENDBRANCH  33  34
ENDBRANCH  29  33
ENDBRANCH   3  25
TORSDOF 8
