REMARK  Name = ZINC15135370
REMARK  3 active torsions:
REMARK  status: ('A' for Active; 'I' for Inactive)
REMARK    1  A    between atoms: C_12  and  C_24
REMARK    2  A    between atoms: N_14  and  C_15
REMARK    3  A    between atoms: C_19  and  N_21
REMARK                            x       y       z     vdW  Elec       q    Type
REMARK                         _______ _______ _______ _____ _____    ______ ____
ROOT
ATOM      1  C   UNL     1       6.822  10.860  -0.663  0.00  0.00    +0.001 A 
ATOM      2  C   UNL     1       6.670   9.476  -0.678  0.00  0.00    +0.001 A 
ATOM      3  C   UNL     1       5.451   8.904  -0.455  0.00  0.00    +0.009 A 
ATOM      4  C   UNL     1       4.341   9.716  -0.208  0.00  0.00    -0.007 A 
ATOM      5  C   UNL     1       4.491  11.123  -0.192  0.00  0.00    -0.017 A 
ATOM      6  C   UNL     1       5.760  11.679  -0.426  0.00  0.00    +0.008 A 
ATOM      7  C   UNL     1       3.371  11.939   0.056  0.00  0.00    +0.012 A 
ATOM      8  C   UNL     1       2.148  11.397   0.290  0.00  0.00    +0.047 A 
ATOM      9  C   UNL     1       1.945  10.015   0.293  0.00  0.00    +0.138 A 
ATOM     10  C   UNL     1       3.014   9.148   0.036  0.00  0.00    +0.026 A 
ATOM     11  C   UNL     1       2.810   7.750   0.011  0.00  0.00    +0.028 A 
ATOM     12  C   UNL     1       1.504   7.280   0.028  0.00  0.00    +0.070 A 
ATOM     13  C   UNL     1       0.427   8.288   0.030  0.00  0.00    +0.231 A 
ATOM     14  N   UNL     1      -0.767   8.011  -0.451  0.00  0.00    -0.213 NA
ATOM     15  O   UNL     1       0.713   9.510   0.552  0.00  0.00    -0.437 OA
ENDROOT
BRANCH  12  16
ATOM     16  C   UNL     1       1.206   5.836   0.036  0.00  0.00    +0.115 A 
ATOM     17  N   UNL     1       0.035   5.234   0.051  0.00  0.00    -0.239 NA
ATOM     18  C   UNL     1      -0.088   3.892   0.057  0.00  0.00    +0.079 A 
ATOM     19  C   UNL     1      -1.277   3.124   0.073  0.00  0.00    +0.029 A 
ATOM     20  C   UNL     1      -1.229   1.765   0.072  0.00  0.00    +0.002 A 
ATOM     21  C   UNL     1      -0.022   1.079   0.066  0.00  0.00    +0.001 A 
ATOM     22  C   UNL     1       1.162   1.791   0.049  0.00  0.00    +0.017 A 
ATOM     23  C   UNL     1       1.125   3.164   0.045  0.00  0.00    +0.040 A 
ATOM     24  S   UNL     1       2.343   4.457   0.027  0.00  0.00    -0.067 S 
ENDBRANCH  12  16
BRANCH  14  25
ATOM     25  C   UNL     1      -1.778   8.925  -0.339  0.00  0.00    +0.070 A 
ATOM     26  C   UNL     1      -2.043   9.811  -1.387  0.00  0.00    +0.029 A 
ATOM     27  C   UNL     1      -3.064  10.732  -1.271  0.00  0.00    +0.024 A 
ATOM     28  C   UNL     1      -3.829  10.782  -0.119  0.00  0.00    +0.062 A 
ATOM     29  C   UNL     1      -3.574   9.904   0.930  0.00  0.00    +0.045 A 
ATOM     30  C   UNL     1      -2.554   8.972   0.822  0.00  0.00    +0.052 A 
ATOM     31 CL   UNL     1      -5.111  11.944   0.018  0.00  0.00    -0.082 Cl
BRANCH  29  32
ATOM     32  N   UNL     1      -4.349   9.959   2.091  0.00  0.00    -0.357 N 
ATOM     33  H   UNL     1      -5.065  10.609   2.166  0.00  0.00    +0.142 HD
ATOM     34  H   UNL     1      -4.171   9.348   2.823  0.00  0.00    +0.142 HD
ENDBRANCH  29  32
ENDBRANCH  14  25
TORSDOF 3
