REMARK  Name = ZINC02485144
REMARK  3 active torsions:
REMARK  status: ('A' for Active; 'I' for Inactive)
REMARK    1  A    between atoms: C_6  and  N_11
REMARK    2  A    between atoms: C_12  and  C_18
REMARK    3  A    between atoms: C_22  and  N_24
REMARK                            x       y       z     vdW  Elec       q    Type
REMARK                         _______ _______ _______ _____ _____    ______ ____
ROOT
ATOM      1  N   UNL     1       1.125   3.489   0.010  0.00  0.00    -0.254 N 
ATOM      2  C   UNL     1      -0.170   4.189  -0.085  0.00  0.00    +0.170 C 
ATOM      3  S   UNL     1       0.376   5.904  -0.491  0.00  0.00    -0.124 S 
ATOM      4  C   UNL     1       2.114   5.714   0.100  0.00  0.00    +0.167 C 
ATOM      5  C   UNL     1       2.241   4.199   0.108  0.00  0.00    +0.231 C 
ATOM      6  O   UNL     1       3.324   3.660   0.198  0.00  0.00    -0.274 OA
ENDROOT
BRANCH   1  12
ATOM      7  C   UNL     1       1.988  -2.737  -0.966  0.00  0.00    +0.001 A 
ATOM      8  C   UNL     1       2.648  -2.026  -1.966  0.00  0.00    +0.001 A 
ATOM      9  C   UNL     1       2.623  -0.665  -1.991  0.00  0.00    +0.008 A 
ATOM     10  C   UNL     1       1.921   0.036  -0.995  0.00  0.00    -0.016 A 
ATOM     11  C   UNL     1       1.873   1.439  -0.990  0.00  0.00    +0.032 A 
ATOM     12  C   UNL     1       1.175   2.091   0.002  0.00  0.00    +0.038 A 
ATOM     13  C   UNL     1       0.514   1.368   1.003  0.00  0.00    +0.024 A 
ATOM     14  C   UNL     1       0.546   0.009   1.020  0.00  0.00    +0.010 A 
ATOM     15  C   UNL     1       1.249  -0.688   0.022  0.00  0.00    -0.018 A 
ATOM     16  C   UNL     1       1.298  -2.092   0.014  0.00  0.00    +0.008 A 
ENDBRANCH   1  12
BRANCH   2  17
ATOM     17  C   UNL     1      -1.017   3.614  -1.190  0.00  0.00    -0.015 A 
ATOM     18  C   UNL     1      -0.416   3.059  -2.304  0.00  0.00    +0.006 A 
ATOM     19  C   UNL     1      -1.194   2.531  -3.318  0.00  0.00    +0.003 A 
ATOM     20  C   UNL     1      -2.573   2.557  -3.217  0.00  0.00    +0.033 A 
ATOM     21  C   UNL     1      -3.173   3.111  -2.102  0.00  0.00    +0.127 A 
ATOM     22  C   UNL     1      -2.396   3.635  -1.086  0.00  0.00    +0.039 A 
BRANCH  21  23
ATOM     23  N   UNL     1      -4.649   3.140  -1.994  0.00  0.00    +0.056 N 
ATOM     24  O   UNL     1      -5.334   2.675  -2.887  0.00  0.00    -0.126 OA
ATOM     25  O   UNL     1      -5.179   3.628  -1.012  0.00  0.00    -0.126 OA
ENDBRANCH  21  23
ENDBRANCH   2  17
TORSDOF 3
