REMARK  Name = ZINC01885364
REMARK  17 active torsions:
REMARK  status: ('A' for Active; 'I' for Inactive)
REMARK    1  A    between atoms: C_1  and  C_2
REMARK    2  A    between atoms: C_2  and  O_3
REMARK    3  A    between atoms: O_3  and  C_4
REMARK    4  A    between atoms: C_4  and  C_6
REMARK    5  A    between atoms: C_6  and  C_8
REMARK    6  A    between atoms: C_6  and  N_17
REMARK    7  A    between atoms: C_8  and  C_10
REMARK    8  A    between atoms: C_8  and  O_16
REMARK    9  A    between atoms: C_18  and  C_20
REMARK   10  A    between atoms: C_20  and  O_21
REMARK   11  A    between atoms: O_21  and  N_22
REMARK   12  A    between atoms: N_22  and  C_23
REMARK   13  A    between atoms: C_26  and  C_48
REMARK   14  A    between atoms: C_31  and  C_47
REMARK   15  A    between atoms: C_42  and  C_43
REMARK   16  A    between atoms: C_42  and  O_46
REMARK   17  A    between atoms: C_43  and  C_45
REMARK                            x       y       z     vdW  Elec       q    Type
REMARK                         _______ _______ _______ _____ _____    ______ ____
ROOT
ATOM      1  C   UNL     1      -2.100  -9.236  -3.618  0.00  0.00    +0.057 C 
ATOM      2  C   UNL     1      -2.165  -8.396  -4.654  0.00  0.00    +0.001 C 
ATOM      3  C   UNL     1      -1.995  -8.911  -6.059  0.00  0.00    +0.040 C 
ATOM      4  C   UNL     1      -2.604 -10.308  -6.183  0.00  0.00    -0.004 C 
ATOM      5  C   UNL     1      -2.173 -10.928  -7.520  0.00  0.00    +0.003 C 
ATOM      6  C   UNL     1      -2.186  -9.819  -8.571  0.00  0.00    +0.005 C 
ATOM      7  C   UNL     1      -1.597 -10.273  -9.913  0.00  0.00    +0.010 C 
ATOM      8  C   UNL     1      -0.187 -10.760  -9.630  0.00  0.00    +0.007 C 
ATOM      9  C   UNL     1      -0.329 -12.026  -8.745  0.00  0.00    +0.002 C 
ATOM     10  C   UNL     1      -0.786 -11.556  -7.376  0.00  0.00    -0.003 C 
ATOM     11  C   UNL     1      -0.801 -12.766  -6.447  0.00  0.00    +0.008 C 
ATOM     12  C   UNL     1      -1.832 -12.630  -5.335  0.00  0.00    +0.031 C 
ATOM     13  C   UNL     1      -2.108 -11.183  -5.061  0.00  0.00    -0.061 C 
ATOM     14  C   UNL     1      -1.882 -10.676  -3.857  0.00  0.00    +0.027 C 
ATOM     15  C   UNL     1       1.087 -12.609  -8.805  0.00  0.00    +0.008 C 
ATOM     16  C   UNL     1       1.478 -12.422 -10.297  0.00  0.00    +0.043 C 
ATOM     17  C   UNL     1       0.606 -11.261 -10.834  0.00  0.00    +0.129 C 
ATOM     18  C   UNL     1       0.604  -9.674  -8.899  0.00  0.00    +0.015 C 
ATOM     19  C   UNL     1      -4.129 -10.210  -6.121  0.00  0.00    +0.016 C 
ENDROOT
BRANCH  17  20
ATOM     20  C   UNL     1      -0.330 -11.762 -11.904  0.00  0.00    +0.162 C 
ATOM     21  O   UNL     1      -0.695 -12.913 -11.896  0.00  0.00    -0.295 OA
ATOM     22  C   UNL     1      -0.810 -10.827 -12.984  0.00  0.00    +0.089 C 
ENDBRANCH  17  20
BRANCH   1  23
ATOM     23  N   UNL     1      -2.232  -8.754  -2.315  0.00  0.00    -0.266 N 
ATOM     24  H   UNL     1      -2.180  -9.366  -1.564  0.00  0.00    +0.194 HD
BRANCH  23  25
ATOM     25  O   UNL     1      -2.441  -7.372  -2.089  0.00  0.00    -0.265 OA
BRANCH  25  26
ATOM     26  C   UNL     1      -2.558  -7.020  -0.709  0.00  0.00    +0.288 C 
BRANCH  26  28
ATOM     27  N   UNL     1      -2.916  -4.971   0.630  0.00  0.00    -0.298 N 
ATOM     28  C   UNL     1      -2.777  -5.534  -0.587  0.00  0.00    +0.242 C 
ATOM     29  O   UNL     1      -2.828  -4.844  -1.583  0.00  0.00    -0.273 OA
ATOM     30  H   UNL     1      -2.875  -5.522   1.427  0.00  0.00    +0.150 HD
BRANCH  27  31
ATOM     31  C   UNL     1      -3.129  -3.526   0.749  0.00  0.00    +0.215 C 
BRANCH  31  32
ATOM     32  C   UNL     1      -1.798  -2.819   0.734  0.00  0.00    +0.331 C 
ATOM     33  O   UNL     1      -0.776  -3.457   0.633  0.00  0.00    -0.249 OA
BRANCH  32  34
ATOM     34  O   UNL     1      -1.748  -1.482   0.831  0.00  0.00    -0.464 OA
BRANCH  34  36
ATOM     35  C   UNL     1      -0.596   0.641   0.930  0.00  0.00    +0.048 C 
ATOM     36  C   UNL     1      -0.453  -0.878   0.809  0.00  0.00    +0.229 C 
ENDBRANCH  34  36
ENDBRANCH  32  34
ENDBRANCH  31  32
BRANCH  31  37
ATOM     37  C   UNL     1      -3.852  -3.224   2.063  0.00  0.00    +0.176 C 
BRANCH  37  38
ATOM     38  C   UNL     1      -4.180  -1.755   2.129  0.00  0.00    -0.017 A 
ATOM     39  C   UNL     1      -3.205  -0.844   2.490  0.00  0.00    +0.006 A 
ATOM     40  C   UNL     1      -3.506   0.504   2.551  0.00  0.00    +0.000 A 
ATOM     41  C   UNL     1      -4.783   0.941   2.250  0.00  0.00    +0.000 A 
ATOM     42  C   UNL     1      -5.758   0.030   1.888  0.00  0.00    +0.000 A 
ATOM     43  C   UNL     1      -5.455  -1.317   1.823  0.00  0.00    +0.006 A 
ENDBRANCH  37  38
BRANCH  37  44
ATOM     44  O   UNL     1      -3.008  -3.573   3.162  0.00  0.00    -0.385 OA
ATOM     45  H   UNL     1      -2.169  -3.094   3.182  0.00  0.00    +0.210 HD
ENDBRANCH  37  44
ENDBRANCH  31  37
ENDBRANCH  27  31
ENDBRANCH  26  28
ENDBRANCH  25  26
ENDBRANCH  23  25
ENDBRANCH   1  23
BRANCH  17  46
ATOM     46  O   UNL     1       1.435 -10.217 -11.350  0.00  0.00    -0.381 OA
ATOM     47  H   UNL     1       1.963 -10.477 -12.117  0.00  0.00    +0.211 HD
ENDBRANCH  17  46
TORSDOF 13
