REMARK  Name = ZINC15786030
REMARK  2 active torsions:
REMARK  status: ('A' for Active; 'I' for Inactive)
REMARK    1  A    between atoms: N_19  and  C_20
REMARK    2  A    between atoms: C_20  and  C_21
REMARK                            x       y       z     vdW  Elec       q    Type
REMARK                         _______ _______ _______ _____ _____    ______ ____
ROOT
ATOM      1  C   UNL     1      -1.005   0.165  -4.878  0.00  0.00    +0.001 A 
ATOM      2  C   UNL     1       0.359  -0.045  -4.750  0.00  0.00    +0.004 A 
ATOM      3  C   UNL     1       0.927  -0.252  -3.508  0.00  0.00    +0.046 A 
ATOM      4  C   UNL     1       0.131  -0.252  -2.371  0.00  0.00    +0.132 A 
ATOM      5  C   UNL     1      -1.250  -0.033  -2.501  0.00  0.00    +0.059 A 
ATOM      6  C   UNL     1      -1.813   0.173  -3.762  0.00  0.00    +0.015 A 
ATOM      7  C   UNL     1      -2.089  -0.022  -1.290  0.00  0.00    +0.170 C 
ATOM      8  O   UNL     1      -3.237   0.370  -1.313  0.00  0.00    -0.292 OA
ATOM      9  C   UNL     1      -1.443  -0.528  -0.012  0.00  0.00    +0.127 C 
ATOM     10  C   UNL     1      -0.001  -0.003   0.005  0.00  0.00    +0.120 C 
ATOM     11  O   UNL     1       0.687  -0.467  -1.156  0.00  0.00    -0.484 OA
ATOM     12  C   UNL     1      -0.021   1.527   0.013  0.00  0.00    +0.067 C 
ATOM     13  C   UNL     1       1.419   2.051   0.001  0.00  0.00    +0.113 C 
ATOM     14  N   UNL     1       2.150   1.450   1.124  0.00  0.00    -0.285 N 
ATOM     15  C   UNL     1       2.156  -0.012   1.264  0.00  0.00    +0.113 C 
ATOM     16  C   UNL     1       0.708  -0.513   1.261  0.00  0.00    +0.067 C 
ATOM     17  C   UNL     1       2.805   2.227   2.011  0.00  0.00    +0.303 C 
ATOM     18  O   UNL     1       2.870   3.428   1.835  0.00  0.00    -0.253 OA
ATOM     19  N   UNL     1       3.386   1.671   3.092  0.00  0.00    -0.292 N 
ATOM     20  H   UNL     1       3.398   0.707   3.195  0.00  0.00    +0.151 HD
ENDROOT
BRANCH  19  21
ATOM     21  C   UNL     1       4.001   2.524   4.112  0.00  0.00    +0.180 C 
BRANCH  21  22
ATOM     22  C   UNL     1       4.576   1.663   5.207  0.00  0.00    +0.122 A 
ATOM     23  C   UNL     1       5.826   1.168   5.244  0.00  0.00    +0.046 A 
ATOM     24  C   UNL     1       5.936   0.423   6.441  0.00  0.00    +0.041 A 
ATOM     25  C   UNL     1       4.747   0.507   7.063  0.00  0.00    +0.195 A 
ATOM     26  O   UNL     1       3.929   1.264   6.314  0.00  0.00    -0.466 OA
ENDBRANCH  21  22
ENDBRANCH  19  21
TORSDOF 2
