REMARK  Name = ZINC53200677
REMARK  4 active torsions:
REMARK  status: ('A' for Active; 'I' for Inactive)
REMARK    1  A    between atoms: C_4  and  N_20
REMARK    2  A    between atoms: C_5  and  C_7
REMARK    3  A    between atoms: C_7  and  C_8
REMARK    4  A    between atoms: C_10  and  C_13
REMARK                            x       y       z     vdW  Elec       q    Type
REMARK                         _______ _______ _______ _____ _____    ______ ____
ROOT
ATOM      1  C   UNL     1       1.370  -2.696   1.389  0.00  0.00    +0.232 A 
ATOM      2  N   UNL     1       0.391  -2.971   2.203  0.00  0.00    -0.191 NA
ATOM      3  C   UNL     1       0.878  -3.403   3.380  0.00  0.00    +0.203 A 
ATOM      4  N   UNL     1       2.186  -3.402   3.318  0.00  0.00    -0.056 NA
ATOM      5  O   UNL     1       2.526  -2.946   2.017  0.00  0.00    -0.337 OA
ENDROOT
BRANCH   3   6
ATOM      6  C   UNL     1       0.067  -3.811   4.554  0.00  0.00    +0.036 A 
ATOM      7  C   UNL     1      -1.324  -3.772   4.492  0.00  0.00    +0.013 A 
ATOM      8  C   UNL     1      -2.073  -4.153   5.586  0.00  0.00    +0.001 A 
ATOM      9  C   UNL     1      -1.445  -4.574   6.745  0.00  0.00    +0.001 A 
ATOM     10  C   UNL     1      -0.064  -4.616   6.814  0.00  0.00    +0.016 A 
ATOM     11  C   UNL     1       0.695  -4.241   5.722  0.00  0.00    +0.029 A 
ATOM     12 BR   UNL     1       2.583  -4.305   5.815  0.00  0.00    -0.050 Br
ENDBRANCH   3   6
BRANCH   1  13
ATOM     13  C   UNL     1       1.226  -2.187  -0.022  0.00  0.00    +0.135 C 
BRANCH  13  18
ATOM     14  C   UNL     1      -0.017   1.378   0.010  0.00  0.00    +0.000 A 
ATOM     15  C   UNL     1       1.170   2.089   0.002  0.00  0.00    +0.002 A 
ATOM     16  C   UNL     1       2.377   1.420  -0.013  0.00  0.00    +0.023 A 
ATOM     17  C   UNL     1       2.400   0.031  -0.021  0.00  0.00    +0.028 A 
ATOM     18  C   UNL     1       1.207  -0.680  -0.013  0.00  0.00    -0.018 A 
ATOM     19  C   UNL     1       0.002  -0.004   0.002  0.00  0.00    +0.006 A 
BRANCH  17  20
ATOM     20  N   UNL     1       3.620  -0.649  -0.036  0.00  0.00    -0.358 N 
ATOM     21  H   UNL     1       4.452  -0.152  -0.042  0.00  0.00    +0.142 HD
ATOM     22  H   UNL     1       3.634  -1.619  -0.042  0.00  0.00    +0.142 HD
ENDBRANCH  17  20
ENDBRANCH  13  18
ENDBRANCH   1  13
TORSDOF 4
