REMARK  Name = ZINC05929059
REMARK  3 active torsions:
REMARK  status: ('A' for Active; 'I' for Inactive)
REMARK    1  A    between atoms: C_1  and  C_2
REMARK    2  A    between atoms: C_2  and  N_3
REMARK    3  A    between atoms: C_10  and  C_12
REMARK                            x       y       z     vdW  Elec       q    Type
REMARK                         _______ _______ _______ _____ _____    ______ ____
ROOT
ATOM      1  N   UNL     1       0.688  -0.476  -1.203  0.00  0.00    -0.314 N 
ATOM      2  C   UNL     1      -0.034  -0.701  -2.348  0.00  0.00    +0.156 A 
ATOM      3  C   UNL     1       0.692  -1.150  -3.453  0.00  0.00    +0.121 A 
ATOM      4  C   UNL     1       0.082  -1.415  -4.675  0.00  0.00    +0.268 A 
ATOM      5  O   UNL     1       0.734  -1.808  -5.629  0.00  0.00    -0.267 OA
ATOM      6  N   UNL     1      -1.256  -1.227  -4.777  0.00  0.00    -0.306 N 
ATOM      7  H   UNL     1      -1.717  -1.402  -5.612  0.00  0.00    +0.170 HD
ATOM      8  C   UNL     1      -1.945  -0.788  -3.682  0.00  0.00    +0.145 A 
ATOM      9  N   UNL     1      -1.366  -0.539  -2.535  0.00  0.00    -0.211 NA
ATOM     10  S   UNL     1       2.355  -1.238  -2.838  0.00  0.00    -0.055 S 
ATOM     11  C   UNL     1       2.021  -0.680  -1.174  0.00  0.00    +0.128 A 
ATOM     12  S   UNL     1       3.113  -0.462   0.126  0.00  0.00    -0.025 S 
ENDROOT
BRANCH   8  13
ATOM     13  C   UNL     1      -3.402  -0.585  -3.798  0.00  0.00    +0.039 A 
ATOM     14  C   UNL     1      -4.052  -0.846  -5.008  0.00  0.00    +0.062 A 
ATOM     15  C   UNL     1      -5.415  -0.655  -5.112  0.00  0.00    +0.167 A 
ATOM     16  C   UNL     1      -6.143  -0.202  -4.011  0.00  0.00    +0.168 A 
ATOM     17  C   UNL     1      -5.498   0.058  -2.811  0.00  0.00    +0.070 A 
ATOM     18  C   UNL     1      -4.137  -0.135  -2.698  0.00  0.00    +0.055 A 
ATOM     19 CL   UNL     1      -3.336   0.185  -1.191  0.00  0.00    -0.083 Cl
ATOM     20  O   UNL     1      -7.455  -0.096  -4.370  0.00  0.00    -0.453 OA
ATOM     21  C   UNL     1      -7.461  -0.096  -5.810  0.00  0.00    +0.466 C 
ATOM     22  O   UNL     1      -6.275  -0.833  -6.159  0.00  0.00    -0.453 OA
ENDBRANCH   8  13
BRANCH   1  24
ATOM     23  C   UNL     1      -0.019   1.526   0.010  0.00  0.00    +0.027 C 
ATOM     24  C   UNL     1       0.002  -0.004   0.002  0.00  0.00    +0.121 C 
ENDBRANCH   1  24
TORSDOF 2
