REMARK  Name = ZINC16026128
REMARK  12 active torsions:
REMARK  status: ('A' for Active; 'I' for Inactive)
REMARK    1  A    between atoms: C_1  and  C_2
REMARK    2  A    between atoms: C_2  and  C_3
REMARK    3  A    between atoms: C_3  and  C_4
REMARK    4  A    between atoms: C_4  and  C_5
REMARK    5  A    between atoms: C_5  and  C_6
REMARK    6  A    between atoms: C_6  and  N_7
REMARK    7  A    between atoms: C_8  and  C_10
REMARK    8  A    between atoms: C_10  and  C_12
REMARK    9  A    between atoms: C_10  and  N_15
REMARK   10  A    between atoms: C_12  and  C_13
REMARK   11  A    between atoms: C_12  and  C_14
REMARK   12  A    between atoms: C_16  and  C_18
REMARK                            x       y       z     vdW  Elec       q    Type
REMARK                         _______ _______ _______ _____ _____    ______ ____
ROOT
ATOM      1  C   UNL     1       0.280   1.017   9.739  0.00  0.00    +0.167 C 
ATOM      2  C   UNL     1       0.518   2.217  10.666  0.00  0.00    +0.069 C 
ATOM      3  C   UNL     1       0.912   1.744  12.042  0.00  0.00    -0.015 A 
ATOM      4  C   UNL     1       1.504   2.536  13.106  0.00  0.00    +0.003 A 
ATOM      5  C   UNL     1       1.876   3.881  13.184  0.00  0.00    +0.010 A 
ATOM      6  C   UNL     1       2.418   4.305  14.373  0.00  0.00    +0.001 A 
ATOM      7  C   UNL     1       2.593   3.450  15.448  0.00  0.00    +0.002 A 
ATOM      8  C   UNL     1       2.234   2.115  15.397  0.00  0.00    +0.026 A 
ATOM      9  C   UNL     1       1.681   1.656  14.203  0.00  0.00    +0.047 A 
ATOM     10  N   UNL     1       1.226   0.429  13.816  0.00  0.00    -0.356 N 
ATOM     11  H   UNL     1       1.221  -0.366  14.373  0.00  0.00    +0.166 HD
ATOM     12  C   UNL     1       0.776   0.488  12.525  0.00  0.00    +0.046 A 
ATOM     13  C   UNL     1       0.208  -0.647  11.710  0.00  0.00    +0.155 C 
ATOM     14  N   UNL     1      -0.405  -0.022  10.515  0.00  0.00    -0.273 N 
ATOM     15  C   UNL     1      -1.629  -0.537  10.345  0.00  0.00    +0.248 C 
ATOM     16  O   UNL     1      -2.319  -0.393   9.354  0.00  0.00    -0.270 OA
ATOM     17  C   UNL     1      -2.012  -1.303  11.535  0.00  0.00    +0.042 A 
ATOM     18  C   UNL     1      -0.904  -1.356  12.405  0.00  0.00    -0.009 A 
ATOM     19  C   UNL     1      -0.980  -1.978  13.631  0.00  0.00    +0.006 A 
ATOM     20  C   UNL     1      -2.195  -2.566  13.969  0.00  0.00    +0.000 A 
ATOM     21  C   UNL     1      -3.282  -2.531  13.118  0.00  0.00    +0.001 A 
ATOM     22  C   UNL     1      -3.224  -1.903  11.883  0.00  0.00    +0.013 A 
ENDROOT
BRANCH   1  24
ATOM     23  N   UNL     1      -0.049   1.521   7.339  0.00  0.00    -0.302 N 
ATOM     24  C   UNL     1      -0.581   1.435   8.575  0.00  0.00    +0.235 C 
ATOM     25  O   UNL     1      -1.753   1.694   8.749  0.00  0.00    -0.274 OA
ATOM     26  H   UNL     1       0.888   1.314   7.200  0.00  0.00    +0.150 HD
BRANCH  23  27
ATOM     27  C   UNL     1      -0.886   1.927   6.208  0.00  0.00    +0.161 C 
BRANCH  27  29
ATOM     28  N   UNL     1      -1.093   1.196   3.853  0.00  0.00    -0.314 N 
ATOM     29  C   UNL     1      -0.303   1.380   4.930  0.00  0.00    +0.234 C 
ATOM     30  O   UNL     1       0.877   1.106   4.870  0.00  0.00    -0.274 OA
ATOM     31  H   UNL     1      -2.049   1.341   3.923  0.00  0.00    +0.149 HD
BRANCH  28  32
ATOM     32  C   UNL     1      -0.506   0.776   2.578  0.00  0.00    +0.104 C 
BRANCH  32  33
ATOM     33  C   UNL     1      -1.612   0.641   1.529  0.00  0.00    +0.019 C 
BRANCH  33  34
ATOM     34  C   UNL     1      -0.999   0.203   0.197  0.00  0.00    +0.002 C 
BRANCH  34  35
ATOM     35  C   UNL     1      -2.105   0.068  -0.853  0.00  0.00    -0.000 C 
BRANCH  35  37
ATOM     36  C   UNL     1      -2.598  -0.505  -3.234  0.00  0.00    +0.004 C 
ATOM     37  C   UNL     1      -1.492  -0.370  -2.184  0.00  0.00    -0.003 C 
ENDBRANCH  35  37
ENDBRANCH  34  35
ENDBRANCH  33  34
ENDBRANCH  32  33
ENDBRANCH  28  32
ENDBRANCH  27  29
BRANCH  27  38
ATOM     38  C   UNL     1      -0.936   3.454   6.133  0.00  0.00    +0.012 C 
ATOM     39  C   UNL     1       0.460   3.996   5.817  0.00  0.00    +0.009 C 
ATOM     40  C   UNL     1      -1.909   3.879   5.031  0.00  0.00    +0.009 C 
ENDBRANCH  27  38
ENDBRANCH  23  27
ENDBRANCH   1  24
TORSDOF 9
