REMARK  Name = ZINC39666650
REMARK  9 active torsions:
REMARK  status: ('A' for Active; 'I' for Inactive)
REMARK    1  A    between atoms: C_1  and  C_2
REMARK    2  A    between atoms: C_6  and  C_8
REMARK    3  A    between atoms: C_8  and  C_9
REMARK    4  A    between atoms: C_13  and  C_22
REMARK    5  A    between atoms: N_24  and  C_25
REMARK    6  A    between atoms: C_25  and  C_26
REMARK    7  A    between atoms: C_26  and  C_28
REMARK    8  A    between atoms: C_26  and  O_29
REMARK    9  A    between atoms: O_29  and  C_30
REMARK                            x       y       z     vdW  Elec       q    Type
REMARK                         _______ _______ _______ _____ _____    ______ ____
ROOT
ATOM      1  C   UNL     1       1.506  -3.079   2.901  0.00  0.00    +0.220 C 
ATOM      2  O   UNL     1       2.415  -2.674   2.207  0.00  0.00    -0.275 OA
ATOM      3  N   UNL     1       1.774  -3.745   4.041  0.00  0.00    -0.300 N 
ATOM      4  C   UNL     1       0.807  -4.317   5.008  0.00  0.00    +0.121 C 
ATOM      5  C   UNL     1       1.435  -5.662   5.438  0.00  0.00    +0.100 C 
ATOM      6  C   UNL     1       2.941  -5.493   5.178  0.00  0.00    -0.004 C 
ATOM      7  C   UNL     1       3.103  -4.076   4.609  0.00  0.00    +0.115 C 
ATOM      8  C   UNL     1       3.419  -6.522   4.158  0.00  0.00    -0.010 C 
ATOM      9  C   UNL     1       4.930  -6.372   3.959  0.00  0.00    -0.082 C 
ATOM     10  N   UNL     1       5.617  -6.569   5.242  0.00  0.00    +0.379 N 
ATOM     11  C   UNL     1       5.220  -5.519   6.188  0.00  0.00    -0.082 C 
ATOM     12  C   UNL     1       3.721  -5.633   6.481  0.00  0.00    -0.010 C 
ATOM     13  H   UNL     1       5.369  -7.471   5.619  0.00  0.00    -0.086 HD
ATOM     14  H   UNL     1       6.614  -6.530   5.097  0.00  0.00    -0.086 HD
ENDROOT
BRANCH   5  15
ATOM     15  C   UNL     1       0.879  -6.789   4.607  0.00  0.00    +0.218 C 
ATOM     16  O   UNL     1       0.444  -6.567   3.497  0.00  0.00    -0.275 OA
ATOM     17  N   UNL     1       0.866  -8.045   5.097  0.00  0.00    -0.312 N 
ATOM     18  H   UNL     1       1.214  -8.223   5.985  0.00  0.00    +0.149 HD
BRANCH  17  19
ATOM     19  C   UNL     1       0.326  -9.141   4.289  0.00  0.00    +0.148 C 
BRANCH  19  20
ATOM     20  C   UNL     1       0.429 -10.451   5.073  0.00  0.00    +0.187 C 
ATOM     21  C   UNL     1      -0.135 -11.596   4.229  0.00  0.00    +0.053 C 
BRANCH  20  22
ATOM     22  O   UNL     1       1.799 -10.716   5.380  0.00  0.00    -0.486 OA
BRANCH  22  23
ATOM     23  C   UNL     1       2.048 -11.497   6.464  0.00  0.00    +0.139 A 
ATOM     24  C   UNL     1       0.998 -12.092   7.148  0.00  0.00    +0.047 A 
ATOM     25  C   UNL     1       1.254 -12.886   8.249  0.00  0.00    +0.004 A 
ATOM     26  C   UNL     1       2.556 -13.089   8.670  0.00  0.00    +0.002 A 
ATOM     27  C   UNL     1       3.605 -12.497   7.991  0.00  0.00    +0.023 A 
ATOM     28  C   UNL     1       3.355 -11.706   6.885  0.00  0.00    +0.083 A 
ATOM     29 CL   UNL     1       4.672 -10.970   6.027  0.00  0.00    -0.080 Cl
ENDBRANCH  22  23
ENDBRANCH  20  22
ENDBRANCH  19  20
ENDBRANCH  17  19
ENDBRANCH   5  15
BRANCH   1  30
ATOM     30  C   UNL     1       0.077  -2.838   2.487  0.00  0.00    +0.131 C 
BRANCH  30  36
ATOM     31  C   UNL     1       0.002   1.508   0.006  0.00  0.00    +0.044 C 
ATOM     32  C   UNL     1       0.016   0.001  -0.001  0.00  0.00    -0.050 A 
ATOM     33  C   UNL     1       0.005  -0.685  -1.202  0.00  0.00    +0.003 A 
ATOM     34  C   UNL     1       0.018  -2.067  -1.208  0.00  0.00    +0.001 A 
ATOM     35  C   UNL     1       0.041  -2.764  -0.014  0.00  0.00    +0.004 A 
ATOM     36  C   UNL     1       0.052  -2.078   1.186  0.00  0.00    -0.038 A 
ATOM     37  C   UNL     1       0.044  -0.696   1.192  0.00  0.00    +0.007 A 
ENDBRANCH  30  36
ENDBRANCH   1  30
TORSDOF 7
