REMARK  Name = ZINC65265793
REMARK  6 active torsions:
REMARK  status: ('A' for Active; 'I' for Inactive)
REMARK    1  A    between atoms: C_1  and  O_2
REMARK    2  A    between atoms: O_2  and  C_3
REMARK    3  A    between atoms: C_3  and  C_4
REMARK    4  A    between atoms: C_4  and  N_5
REMARK    5  A    between atoms: C_21  and  C_23
REMARK    6  A    between atoms: C_23  and  C_24
REMARK                            x       y       z     vdW  Elec       q    Type
REMARK                         _______ _______ _______ _____ _____    ______ ____
ROOT
ATOM      1  N   UNL     1      -0.776  -2.556  -1.119  0.00  0.00    -0.373 N 
ATOM      2  C   UNL     1      -1.044  -3.820  -1.057  0.00  0.00    +0.095 C 
ATOM      3  N   UNL     1      -0.053  -4.760  -0.913  0.00  0.00    -0.303 N 
ATOM      4  C   UNL     1       0.321  -5.151   0.369  0.00  0.00    +0.037 A 
ATOM      5  C   UNL     1       1.665  -5.256   0.699  0.00  0.00    +0.023 A 
ATOM      6  C   UNL     1       2.039  -5.657   1.966  0.00  0.00    +0.002 A 
ATOM      7  C   UNL     1       1.064  -5.954   2.901  0.00  0.00    +0.000 A 
ATOM      8  C   UNL     1      -0.271  -5.844   2.575  0.00  0.00    +0.007 A 
ATOM      9  C   UNL     1      -0.666  -5.434   1.305  0.00  0.00    -0.012 A 
ATOM     10  C   UNL     1      -2.148  -5.309   1.062  0.00  0.00    +0.119 C 
ATOM     11  N   UNL     1      -2.519  -5.570  -0.335  0.00  0.00    -0.299 NA
ATOM     12  C   UNL     1      -2.443  -4.328  -1.132  0.00  0.00    +0.091 C 
ATOM     13  C   UNL     1      -3.453  -3.294  -0.598  0.00  0.00    +0.050 C 
ATOM     14  C   UNL     1      -4.751  -3.727  -1.328  0.00  0.00    +0.110 C 
ATOM     15  N   UNL     1      -4.307  -4.178  -2.660  0.00  0.00    -0.299 N 
ATOM     16  C   UNL     1      -2.893  -4.585  -2.573  0.00  0.00    +0.137 C 
ATOM     17  C   UNL     1      -5.067  -4.213  -3.772  0.00  0.00    +0.216 C 
ATOM     18  O   UNL     1      -4.595  -4.605  -4.818  0.00  0.00    -0.276 OA
ATOM     19  H   UNL     1      -1.495  -1.912  -1.217  0.00  0.00    +0.161 HD
ATOM     20  H   UNL     1      -1.941  -6.294  -0.733  0.00  0.00    +0.123 HD
ATOM     21  H   UNL     1       0.379  -5.145  -1.691  0.00  0.00    +0.153 HD
ENDROOT
BRANCH   1  22
ATOM     22  C   UNL     1       0.613  -2.097  -1.041  0.00  0.00    +0.141 C 
BRANCH  22  23
ATOM     23  C   UNL     1       0.652  -0.570  -1.138  0.00  0.00    +0.180 C 
BRANCH  23  25
ATOM     24  C   UNL     1      -0.017   1.425   0.010  0.00  0.00    +0.194 C 
ATOM     25  O   UNL     1       0.002  -0.004   0.002  0.00  0.00    -0.381 OA
ENDBRANCH  23  25
ENDBRANCH  22  23
ENDBRANCH   1  22
BRANCH  17  26
ATOM     26  C   UNL     1      -6.505  -3.764  -3.716  0.00  0.00    +0.099 C 
BRANCH  26  27
ATOM     27  C   UNL     1      -7.137  -3.902  -5.103  0.00  0.00    -0.002 C 
ATOM     28  C   UNL     1      -6.502  -2.888  -6.077  0.00  0.00    +0.004 C 
ATOM     29  C   UNL     1      -7.681  -2.430  -6.970  0.00  0.00    +0.000 C 
ATOM     30  C   UNL     1      -8.861  -2.360  -5.969  0.00  0.00    +0.000 C 
ATOM     31  C   UNL     1      -8.637  -3.567  -5.035  0.00  0.00    +0.004 C 
ENDBRANCH  26  27
ENDBRANCH  17  26
TORSDOF 5
