REMARK  Name = ZINC21805460
REMARK  4 active torsions:
REMARK  status: ('A' for Active; 'I' for Inactive)
REMARK    1  A    between atoms: C_4  and  C_8
REMARK    2  A    between atoms: C_8  and  C_10
REMARK    3  A    between atoms: C_8  and  N_20
REMARK    4  A    between atoms: C_12  and  N_17
REMARK                            x       y       z     vdW  Elec       q    Type
REMARK                         _______ _______ _______ _____ _____    ______ ____
ROOT
ATOM      1  C   UNL     1       1.151   3.593   0.010  0.00  0.00    +0.113 C 
ENDROOT
BRANCH   1   5
ATOM      2  C   UNL     1       0.470   4.989   3.991  0.00  0.00    +0.021 A 
ATOM      3  C   UNL     1       1.752   4.679   3.577  0.00  0.00    +0.022 A 
ATOM      4  C   UNL     1       1.973   4.227   2.289  0.00  0.00    +0.046 A 
ATOM      5  C   UNL     1       0.910   4.085   1.414  0.00  0.00    -0.007 A 
ATOM      6  C   UNL     1      -0.371   4.400   1.826  0.00  0.00    +0.027 A 
ATOM      7  C   UNL     1      -0.592   4.847   3.117  0.00  0.00    +0.041 A 
ATOM      8 CL   UNL     1      -2.202   5.236   3.636  0.00  0.00    -0.084 Cl
ATOM      9 CL   UNL     1       3.583   3.838   1.769  0.00  0.00    -0.083 Cl
ENDBRANCH   1   5
BRANCH   1  10
ATOM     10  C   UNL     1       1.171   2.086   0.002  0.00  0.00    -0.023 A 
ATOM     11  C   UNL     1       2.377   1.411  -0.013  0.00  0.00    +0.038 A 
ATOM     12  C   UNL     1       2.397   0.029  -0.021  0.00  0.00    +0.128 A 
ATOM     13  C   UNL     1       1.210  -0.679  -0.013  0.00  0.00    +0.052 A 
ATOM     14  C   UNL     1       0.002  -0.004   0.002  0.00  0.00    +0.043 A 
ATOM     15  C   UNL     1      -0.017   1.379   0.010  0.00  0.00    +0.025 A 
ATOM     16 CL   UNL     1      -1.489  -0.893   0.011  0.00  0.00    -0.083 Cl
BRANCH  12  17
ATOM     17  N   UNL     1       3.689  -0.692  -0.036  0.00  0.00    +0.056 N 
ATOM     18  O   UNL     1       3.706  -1.910  -0.043  0.00  0.00    -0.126 OA
ATOM     19  O   UNL     1       4.735  -0.068  -0.043  0.00  0.00    -0.126 OA
ENDBRANCH  12  17
ENDBRANCH   1  10
BRANCH   1  20
ATOM     20  N   UNL     1       0.075   4.073  -0.868  0.00  0.00    -0.320 NA
ATOM     21  H   UNL     1       0.250   3.714  -1.893  0.00  0.00    +0.119 HD
ATOM     22  H   UNL     1      -0.891   3.692  -0.506  0.00  0.00    +0.119 HD
ENDBRANCH   1  20
TORSDOF 4
