REMARK  Name = ZINC35778619
REMARK  14 active torsions:
REMARK  status: ('A' for Active; 'I' for Inactive)
REMARK    1  A    between atoms: C_1  and  O_2
REMARK    2  A    between atoms: O_2  and  C_3
REMARK    3  A    between atoms: C_3  and  C_4
REMARK    4  A    between atoms: C_4  and  C_5
REMARK    5  A    between atoms: C_5  and  N_6
REMARK    6  A    between atoms: N_6  and  C_7
REMARK    7  A    between atoms: N_6  and  C_17
REMARK    8  A    between atoms: C_7  and  C_8
REMARK    9  A    between atoms: C_8  and  C_10
REMARK   10  A    between atoms: C_8  and  O_16
REMARK   11  A    between atoms: C_17  and  C_18
REMARK   12  A    between atoms: C_28  and  C_30
REMARK   13  A    between atoms: C_30  and  O_31
REMARK   14  A    between atoms: O_31  and  C_32
REMARK                            x       y       z     vdW  Elec       q    Type
REMARK                         _______ _______ _______ _____ _____    ______ ____
ROOT
ATOM      1  C   UNL     1       1.277  -3.849  -0.248  0.00  0.00    +0.200 C 
ATOM      2  O   UNL     1       0.305  -3.143  -0.082  0.00  0.00    -0.278 OA
ATOM      3  N   UNL     1       1.785  -4.017  -1.485  0.00  0.00    -0.292 N 
ATOM      4  C   UNL     1       2.959  -4.876  -1.699  0.00  0.00    +0.113 C 
ATOM      5  C   UNL     1       2.531  -6.073  -2.562  0.00  0.00    +0.061 C 
ATOM      6  C   UNL     1       1.653  -5.577  -3.666  0.00  0.00    -0.004 A 
ATOM      7  C   UNL     1       1.017  -4.378  -3.753  0.00  0.00    -0.014 A 
ATOM      8  C   UNL     1       0.244  -4.162  -4.893  0.00  0.00    +0.013 A 
ATOM      9  C   UNL     1       0.159  -5.119  -5.845  0.00  0.00    +0.046 A 
ATOM     10  S   UNL     1       1.193  -6.407  -5.164  0.00  0.00    -0.101 S 
ATOM     11  C   UNL     1       1.169  -3.349  -2.640  0.00  0.00    +0.144 C 
ENDROOT
BRANCH   1  12
ATOM     12  C   UNL     1       1.917  -4.540   0.929  0.00  0.00    +0.019 C 
BRANCH  12  13
ATOM     13  N   UNL     1       1.096  -4.324   2.128  0.00  0.00    +0.387 N 
ATOM     14  H   UNL     1       0.932  -3.336   2.251  0.00  0.00    -0.081 HD
BRANCH  13  15
ATOM     15  C   UNL     1       1.799  -4.854   3.304  0.00  0.00    -0.076 C 
BRANCH  15  16
ATOM     16  C   UNL     1       3.073  -4.041   3.545  0.00  0.00    +0.009 C 
BRANCH  16  17
ATOM     17  C   UNL     1       3.728  -4.495   4.851  0.00  0.00    +0.157 C 
BRANCH  17  19
ATOM     18  C   UNL     1       5.611  -4.084   6.276  0.00  0.00    +0.193 C 
ATOM     19  O   UNL     1       4.919  -3.737   5.075  0.00  0.00    -0.383 OA
ENDBRANCH  17  19
ENDBRANCH  16  17
ENDBRANCH  15  16
ENDBRANCH  13  15
BRANCH  13  20
ATOM     20  C   UNL     1      -0.189  -5.019   1.973  0.00  0.00    -0.042 C 
BRANCH  20  21
ATOM     21  C   UNL     1      -1.092  -4.693   3.164  0.00  0.00    +0.128 C 
BRANCH  21  22
ATOM     22  C   UNL     1      -2.361  -5.500   3.068  0.00  0.00    -0.021 A 
ATOM     23  C   UNL     1      -3.377  -5.092   2.224  0.00  0.00    +0.006 A 
ATOM     24  C   UNL     1      -4.542  -5.832   2.136  0.00  0.00    +0.000 A 
ATOM     25  C   UNL     1      -4.690  -6.980   2.891  0.00  0.00    +0.000 A 
ATOM     26  C   UNL     1      -3.673  -7.389   3.734  0.00  0.00    +0.000 A 
ATOM     27  C   UNL     1      -2.507  -6.651   3.819  0.00  0.00    +0.006 A 
ENDBRANCH  21  22
BRANCH  21  28
ATOM     28  O   UNL     1      -1.411  -3.300   3.154  0.00  0.00    -0.389 OA
ATOM     29  H   UNL     1      -1.875  -3.009   2.357  0.00  0.00    +0.210 HD
ENDBRANCH  21  28
ENDBRANCH  20  21
ENDBRANCH  13  20
ENDBRANCH  12  13
ENDBRANCH   1  12
BRANCH  11  30
ATOM     30  C   UNL     1       2.067  -2.206  -3.116  0.00  0.00    +0.256 C 
BRANCH  30  31
ATOM     31  O   UNL     1       3.299  -2.739  -3.605  0.00  0.00    -0.490 OA
BRANCH  31  32
ATOM     32  C   UNL     1       4.215  -1.850  -4.070  0.00  0.00    +0.121 A 
ATOM     33  C   UNL     1       3.937  -0.491  -4.050  0.00  0.00    +0.045 A 
ATOM     34  C   UNL     1       4.870   0.411  -4.522  0.00  0.00    +0.004 A 
ATOM     35  C   UNL     1       6.081  -0.039  -5.015  0.00  0.00    +0.000 A 
ATOM     36  C   UNL     1       6.361  -1.393  -5.036  0.00  0.00    +0.004 A 
ATOM     37  C   UNL     1       5.434  -2.299  -4.559  0.00  0.00    +0.045 A 
ENDBRANCH  31  32
ENDBRANCH  30  31
ENDBRANCH  11  30
TORSDOF 13
