REMARK  Name = ZINC64311351
REMARK  9 active torsions:
REMARK  status: ('A' for Active; 'I' for Inactive)
REMARK    1  A    between atoms: C_1  and  C_2
REMARK    2  A    between atoms: N_10  and  C_13
REMARK    3  A    between atoms: C_13  and  C_14
REMARK    4  A    between atoms: N_16  and  C_17
REMARK    5  A    between atoms: C_17  and  C_18
REMARK    6  A    between atoms: C_18  and  C_19
REMARK    7  A    between atoms: C_18  and  C_20
REMARK    8  A    between atoms: C_18  and  N_21
REMARK    9  A    between atoms: C_25  and  C_27
REMARK                            x       y       z     vdW  Elec       q    Type
REMARK                         _______ _______ _______ _____ _____    ______ ____
ROOT
ATOM      1  C   UNL     1      -1.327  -6.063   2.627  0.00  0.00    +0.231 C 
ATOM      2  O   UNL     1      -2.259  -5.389   2.244  0.00  0.00    -0.274 OA
ATOM      3  N   UNL     1      -1.554  -7.220   3.280  0.00  0.00    -0.315 N 
ATOM      4  H   UNL     1      -0.808  -7.759   3.586  0.00  0.00    +0.149 HD
ENDROOT
BRANCH   1   5
ATOM      5  C   UNL     1       0.087  -5.607   2.373  0.00  0.00    +0.212 C 
BRANCH   5  15
ATOM      6  C   UNL     1      -0.018   1.503   0.010  0.00  0.00    +0.044 C 
ATOM      7  C   UNL     1       0.002  -0.004   0.002  0.00  0.00    -0.050 A 
ATOM      8  C   UNL     1       0.006  -0.684  -1.202  0.00  0.00    +0.004 A 
ATOM      9  C   UNL     1       0.024  -2.070  -1.226  0.00  0.00    +0.014 A 
ATOM     10  C   UNL     1       0.039  -2.777  -0.035  0.00  0.00    +0.049 A 
ATOM     11  C   UNL     1       0.036  -2.084   1.192  0.00  0.00    +0.050 A 
ATOM     12  C   UNL     1       0.023  -0.699   1.201  0.00  0.00    +0.017 A 
ATOM     13  C   UNL     1       0.054  -3.123   2.244  0.00  0.00    +0.254 C 
ATOM     14  O   UNL     1       0.057  -2.920   3.441  0.00  0.00    -0.270 OA
ATOM     15  N   UNL     1       0.067  -4.331   1.652  0.00  0.00    -0.225 N 
ATOM     16  C   UNL     1       0.059  -4.214   0.312  0.00  0.00    +0.254 C 
ATOM     17  O   UNL     1       0.067  -5.135  -0.480  0.00  0.00    -0.270 OA
ENDBRANCH   5  15
ENDBRANCH   1   5
BRANCH   3  18
ATOM     18  C   UNL     1      -2.929  -7.663   3.527  0.00  0.00    +0.092 C 
BRANCH  18  19
ATOM     19  C   UNL     1      -2.907  -8.995   4.279  0.00  0.00    -0.055 C 
ATOM     20  C   UNL     1      -4.343  -9.458   4.538  0.00  0.00    -0.008 C 
ATOM     21  C   UNL     1      -2.177 -10.044   3.439  0.00  0.00    -0.008 C 
BRANCH  19  22
ATOM     22  N   UNL     1      -2.210  -8.822   5.561  0.00  0.00    +0.384 N 
ATOM     23  C   UNL     1      -2.907  -7.809   6.363  0.00  0.00    -0.078 C 
ATOM     24  C   UNL     1      -2.140  -7.567   7.664  0.00  0.00    -0.018 C 
ATOM     25  C   UNL     1      -2.058  -8.877   8.454  0.00  0.00    -0.001 C 
ATOM     26  C   UNL     1      -1.396  -9.947   7.580  0.00  0.00    -0.031 C 
ATOM     27  C   UNL     1      -2.191 -10.101   6.282  0.00  0.00    -0.075 C 
ATOM     28  C   UNL     1      -1.379 -11.280   8.330  0.00  0.00    +0.005 C 
ATOM     29  H   UNL     1      -1.263  -8.520   5.390  0.00  0.00    -0.081 HD
ENDBRANCH  19  22
ENDBRANCH  18  19
ENDBRANCH   3  18
TORSDOF 5
