REMARK  Name = ZINC02723562
REMARK  4 active torsions:
REMARK  status: ('A' for Active; 'I' for Inactive)
REMARK    1  A    between atoms: N_10  and  S_11
REMARK    2  A    between atoms: S_11  and  C_14
REMARK    3  A    between atoms: C_17  and  C_20
REMARK    4  A    between atoms: C_26  and  C_28
REMARK                            x       y       z     vdW  Elec       q    Type
REMARK                         _______ _______ _______ _____ _____    ______ ____
ROOT
ATOM      1  C   UNL     1       6.550  11.577  -0.000  0.00  0.00    +0.109 A 
ATOM      2  C   UNL     1       5.280  12.126   0.014  0.00  0.00    +0.029 A 
ATOM      3  C   UNL     1       4.171  11.306   0.021  0.00  0.00    +0.015 A 
ATOM      4  C   UNL     1       4.331   9.920   0.012  0.00  0.00    +0.037 A 
ATOM      5  C   UNL     1       5.616   9.372   0.004  0.00  0.00    +0.015 A 
ATOM      6  C   UNL     1       6.716  10.204  -0.009  0.00  0.00    +0.029 A 
ENDROOT
BRANCH   4   7
ATOM      7  C   UNL     1       3.147   9.035   0.019  0.00  0.00    +0.252 C 
ATOM      8  O   UNL     1       2.030   9.515   0.032  0.00  0.00    -0.270 OA
ATOM      9  N   UNL     1       3.306   7.697   0.011  0.00  0.00    -0.234 N 
ATOM     10  C   UNL     1       2.196   6.868   0.017  0.00  0.00    +0.315 A 
ATOM     11  N   UNL     1       0.943   7.251   0.031  0.00  0.00    -0.092 NA
ATOM     12  N   UNL     1       0.177   6.217   0.027  0.00  0.00    -0.105 NA
ATOM     13  C   UNL     1       0.915   5.129   0.021  0.00  0.00    +0.257 A 
ATOM     14  O   UNL     1       2.208   5.521   0.011  0.00  0.00    -0.404 OA
ATOM     15  H   UNL     1       4.197   7.314   0.001  0.00  0.00    +0.160 HD
BRANCH  13  16
ATOM     16  C   UNL     1       0.424   3.743   0.019  0.00  0.00    +0.076 A 
ATOM     17  C   UNL     1      -0.879   3.280   0.029  0.00  0.00    +0.021 A 
ATOM     18  C   UNL     1      -1.090   1.920   0.018  0.00  0.00    +0.008 A 
ATOM     19  C   UNL     1      -0.021   1.082   0.009  0.00  0.00    +0.046 A 
ATOM     20  S   UNL     1       1.354   2.220   0.002  0.00  0.00    -0.092 S 
ENDBRANCH  13  16
ENDBRANCH   4   7
BRANCH   1  21
ATOM     21  S   UNL     1       7.962  12.632  -0.009  0.00  0.00    +0.075 S 
ATOM     22  O   UNL     1       9.027  11.880  -0.573  0.00  0.00    -0.150 OA
ATOM     23  O   UNL     1       7.536  13.875  -0.550  0.00  0.00    -0.150 OA
BRANCH  21  33
ATOM     24  C   UNL     1      10.791  10.212   3.610  0.00  0.00    +0.000 A 
ATOM     25  C   UNL     1      10.220   9.858   2.401  0.00  0.00    +0.002 A 
ATOM     26  C   UNL     1       9.417  10.758   1.730  0.00  0.00    +0.025 A 
ATOM     27  C   UNL     1       9.183  12.019   2.269  0.00  0.00    +0.054 A 
ATOM     28  C   UNL     1       9.753  12.371   3.482  0.00  0.00    -0.025 A 
ATOM     29  C   UNL     1      10.559  11.463   4.148  0.00  0.00    +0.005 A 
ATOM     30  C   UNL     1       9.517  13.725   4.099  0.00  0.00    +0.038 C 
ATOM     31  C   UNL     1       9.059  14.724   3.037  0.00  0.00    +0.025 C 
ATOM     32  C   UNL     1       7.886  14.122   2.260  0.00  0.00    +0.132 C 
ATOM     33  N   UNL     1       8.369  12.918   1.571  0.00  0.00    -0.203 N 
ENDBRANCH  21  33
ENDBRANCH   1  21
TORSDOF 4
