REMARK  Name = ZINC00959818
REMARK  4 active torsions:
REMARK  status: ('A' for Active; 'I' for Inactive)
REMARK    1  A    between atoms: C_5  and  C_7
REMARK    2  A    between atoms: C_7  and  S_8
REMARK    3  A    between atoms: S_8  and  C_9
REMARK    4  A    between atoms: C_16  and  C_26
REMARK                            x       y       z     vdW  Elec       q    Type
REMARK                         _______ _______ _______ _____ _____    ______ ____
ROOT
ATOM      1  C   UNL     1       1.275  -4.553   1.506  0.00  0.00    +0.172 A 
ATOM      2  N   UNL     1       1.290  -5.339   2.619  0.00  0.00    -0.322 N 
ATOM      3  C   UNL     1       1.310  -6.704   2.497  0.00  0.00    +0.111 A 
ATOM      4  C   UNL     1       1.314  -7.261   1.256  0.00  0.00    +0.069 A 
ATOM      5  C   UNL     1       1.292  -6.412   0.128  0.00  0.00    +0.280 A 
ATOM      6  N   UNL     1       1.270  -5.081   0.300  0.00  0.00    -0.185 NA
ATOM      7  O   UNL     1       1.288  -6.886  -0.999  0.00  0.00    -0.265 OA
ATOM      8  C   UNL     1       1.346  -8.750   1.079  0.00  0.00    +0.094 C 
ATOM      9  C   UNL     1       0.949  -9.461   2.347  0.00  0.00    +0.024 C 
ATOM     10  C   UNL     1       0.563 -10.810   2.255  0.00  0.00    +0.162 C 
ATOM     11  C   UNL     1       0.142 -11.586   3.473  0.00  0.00    +0.080 C 
ATOM     12  C   UNL     1      -0.458 -10.619   4.498  0.00  0.00    +0.014 C 
ATOM     13  C   UNL     1       0.578  -9.537   4.808  0.00  0.00    +0.051 C 
ATOM     14  C   UNL     1       0.962  -8.822   3.536  0.00  0.00    +0.017 C 
ATOM     15  N   UNL     1       1.323  -7.504   3.615  0.00  0.00    -0.304 N 
ATOM     16  O   UNL     1       0.570 -11.359   1.171  0.00  0.00    -0.292 OA
ATOM     17  H   UNL     1       1.592  -7.131   4.469  0.00  0.00    +0.153 HD
ATOM     18  H   UNL     1       1.288  -4.932   3.500  0.00  0.00    +0.169 HD
ENDROOT
BRANCH   8  19
ATOM     19  C   UNL     1       2.741  -9.171   0.695  0.00  0.00    -0.017 A 
ATOM     20  C   UNL     1       2.973  -9.819  -0.509  0.00  0.00    +0.007 A 
ATOM     21  C   UNL     1       4.272 -10.188  -0.821  0.00  0.00    +0.020 A 
ATOM     22  C   UNL     1       5.287  -9.900   0.073  0.00  0.00    +0.111 A 
ATOM     23  N   UNL     1       5.029  -9.283   1.209  0.00  0.00    -0.263 NA
ATOM     24  C   UNL     1       3.807  -8.912   1.536  0.00  0.00    +0.115 A 
ENDBRANCH   8  19
BRANCH   1  25
ATOM     25  S   UNL     1       1.253  -2.800   1.685  0.00  0.00    -0.083 S 
BRANCH  25  26
ATOM     26  C   UNL     1       1.228  -2.186  -0.022  0.00  0.00    +0.115 C 
BRANCH  26  31
ATOM     27  C   UNL     1      -0.017   1.378   0.010  0.00  0.00    +0.000 A 
ATOM     28  C   UNL     1       1.171   2.087   0.002  0.00  0.00    +0.003 A 
ATOM     29  C   UNL     1       2.377   1.414  -0.013  0.00  0.00    +0.038 A 
ATOM     30  C   UNL     1       2.397   0.029  -0.021  0.00  0.00    +0.127 A 
ATOM     31  C   UNL     1       1.208  -0.679  -0.013  0.00  0.00    -0.002 A 
ATOM     32  C   UNL     1       0.002  -0.004   0.002  0.00  0.00    +0.007 A 
ATOM     33  F   UNL     1       3.577  -0.630  -0.036  0.00  0.00    -0.205 F 
ENDBRANCH  26  31
ENDBRANCH  25  26
ENDBRANCH   1  25
TORSDOF 4
