REMARK  Name = ZINC02486888
REMARK  5 active torsions:
REMARK  status: ('A' for Active; 'I' for Inactive)
REMARK    1  A    between atoms: C_1  and  C_2
REMARK    2  A    between atoms: C_3  and  C_15
REMARK    3  A    between atoms: N_6  and  C_9
REMARK    4  A    between atoms: C_15  and  C_33
REMARK    5  A    between atoms: N_21  and  C_26
REMARK                            x       y       z     vdW  Elec       q    Type
REMARK                         _______ _______ _______ _____ _____    ______ ____
ROOT
ATOM      1  C   UNL     1      -2.537  -0.166   0.171  0.00  0.00    +0.206 C 
ATOM      2  C   UNL     1      -3.310  -0.649  -1.033  0.00  0.00    +0.084 A 
ATOM      3  C   UNL     1      -3.668  -1.922  -1.495  0.00  0.00    +0.261 A 
ATOM      4  N   UNL     1      -4.381  -2.035  -2.635  0.00  0.00    -0.274 N 
ATOM      5  C   UNL     1      -4.742  -0.933  -3.319  0.00  0.00    +0.335 A 
ATOM      6  O   UNL     1      -5.384  -1.054  -4.344  0.00  0.00    -0.246 OA
ATOM      7  N   UNL     1      -4.409   0.296  -2.891  0.00  0.00    -0.250 N 
ATOM      8  C   UNL     1      -3.680   0.463  -1.731  0.00  0.00    +0.124 A 
ATOM      9  N   UNL     1      -3.232   1.604  -1.110  0.00  0.00    -0.270 N 
ATOM     10  C   UNL     1      -2.547   1.342   0.017  0.00  0.00    +0.242 C 
ATOM     11  O   UNL     1      -2.039   2.152   0.763  0.00  0.00    -0.274 OA
ATOM     12  O   UNL     1      -3.338  -2.917  -0.874  0.00  0.00    -0.267 OA
ATOM     13  H   UNL     1      -3.390   2.499  -1.449  0.00  0.00    +0.156 HD
ATOM     14  H   UNL     1      -4.633  -2.912  -2.963  0.00  0.00    +0.173 HD
ENDROOT
BRANCH   1  17
ATOM     15  C   UNL     1      -0.482   0.247  -2.132  0.00  0.00    +0.065 C 
ATOM     16  C   UNL     1      -0.234  -0.514  -0.856  0.00  0.00    +0.040 A 
ATOM     17  C   UNL     1      -1.125  -0.692   0.141  0.00  0.00    +0.067 A 
ATOM     18  C   UNL     1      -0.503  -1.459   1.154  0.00  0.00    +0.277 A 
ATOM     19  O   UNL     1      -1.011  -1.812   2.203  0.00  0.00    -0.265 OA
ATOM     20  N   UNL     1       0.754  -1.729   0.747  0.00  0.00    -0.219 N 
ATOM     21  N   UNL     1       0.928  -1.145  -0.514  0.00  0.00    -0.294 N 
ATOM     22  H   UNL     1       1.735  -1.180  -1.051  0.00  0.00    +0.187 HD
BRANCH  20  23
ATOM     23  C   UNL     1       1.710  -2.465   1.455  0.00  0.00    +0.067 A 
ATOM     24  C   UNL     1       1.397  -3.000   2.697  0.00  0.00    +0.028 A 
ATOM     25  C   UNL     1       2.343  -3.727   3.393  0.00  0.00    +0.002 A 
ATOM     26  C   UNL     1       3.601  -3.921   2.854  0.00  0.00    +0.000 A 
ATOM     27  C   UNL     1       3.917  -3.389   1.617  0.00  0.00    +0.002 A 
ATOM     28  C   UNL     1       2.973  -2.667   0.914  0.00  0.00    +0.028 A 
ENDBRANCH  20  23
ENDBRANCH   1  17
BRANCH   7  29
ATOM     29  C   UNL     1      -4.804   1.419  -3.630  0.00  0.00    +0.053 A 
ATOM     30  C   UNL     1      -6.149   1.755  -3.719  0.00  0.00    +0.026 A 
ATOM     31  C   UNL     1      -6.535   2.863  -4.449  0.00  0.00    +0.002 A 
ATOM     32  C   UNL     1      -5.585   3.636  -5.090  0.00  0.00    +0.000 A 
ATOM     33  C   UNL     1      -4.246   3.304  -5.004  0.00  0.00    +0.002 A 
ATOM     34  C   UNL     1      -3.852   2.201  -4.270  0.00  0.00    +0.026 A 
ENDBRANCH   7  29
BRANCH   1  35
ATOM     35  C   UNL     1      -3.237  -0.580   1.467  0.00  0.00    +0.412 C 
ATOM     36  F   UNL     1      -2.537  -0.063   2.562  0.00  0.00    -0.169 F 
ATOM     37  F   UNL     1      -4.544  -0.081   1.471  0.00  0.00    -0.169 F 
ATOM     38  F   UNL     1      -3.272  -1.976   1.552  0.00  0.00    -0.169 F 
ENDBRANCH   1  35
TORSDOF 4
