REMARK  Name = ZINC63294263
REMARK  6 active torsions:
REMARK  status: ('A' for Active; 'I' for Inactive)
REMARK    1  A    between atoms: C_4  and  C_7
REMARK    2  A    between atoms: C_7  and  C_9
REMARK    3  A    between atoms: C_7  and  O_32
REMARK    4  A    between atoms: C_9  and  N_10
REMARK    5  A    between atoms: C_11  and  C_13
REMARK    6  A    between atoms: C_20  and  C_22
REMARK                            x       y       z     vdW  Elec       q    Type
REMARK                         _______ _______ _______ _____ _____    ______ ____
ROOT
ATOM      1  C   UNL     1       7.200  -2.921  -2.685  0.00  0.00    +0.092 C 
ATOM      2  C   UNL     1       7.077  -4.207  -1.864  0.00  0.00    +0.016 C 
ATOM      3  C   UNL     1       8.421  -4.938  -1.854  0.00  0.00    +0.020 C 
ATOM      4  C   UNL     1       8.803  -5.316  -3.289  0.00  0.00    +0.108 C 
ATOM      5  N   UNL     1       8.782  -4.103  -4.118  0.00  0.00    -0.299 N 
ATOM      6  C   UNL     1       7.569  -3.275  -4.129  0.00  0.00    +0.120 C 
ATOM      7  C   UNL     1       9.856  -3.756  -4.855  0.00  0.00    +0.242 C 
ATOM      8  O   UNL     1       9.827  -2.753  -5.535  0.00  0.00    -0.273 OA
ENDROOT
BRANCH   7   9
ATOM      9  C   UNL     1      11.095  -4.615  -4.832  0.00  0.00    +0.190 C 
ATOM     10  C   UNL     1      11.677  -4.654  -3.437  0.00  0.00    +0.016 C 
ATOM     11  C   UNL     1      12.921  -4.132  -3.535  0.00  0.00    -0.004 A 
ATOM     12  C   UNL     1      13.981  -3.897  -2.548  0.00  0.00    +0.010 A 
ATOM     13  C   UNL     1      15.146  -3.345  -2.956  0.00  0.00    +0.001 A 
ATOM     14  C   UNL     1      15.366  -2.993  -4.295  0.00  0.00    +0.002 A 
ATOM     15  C   UNL     1      14.440  -3.178  -5.259  0.00  0.00    +0.026 A 
ATOM     16  C   UNL     1      13.178  -3.751  -4.942  0.00  0.00    +0.043 A 
ATOM     17  N   UNL     1      12.133  -4.028  -5.687  0.00  0.00    -0.370 N 
ATOM     18  H   UNL     1      12.058  -3.871  -6.641  0.00  0.00    +0.161 HD
ENDBRANCH   7   9
BRANCH   1  20
ATOM     19  N   UNL     1       5.358  -1.774  -1.497  0.00  0.00    -0.312 N 
ATOM     20  C   UNL     1       5.885  -2.186  -2.668  0.00  0.00    +0.218 C 
ATOM     21  O   UNL     1       5.300  -1.964  -3.707  0.00  0.00    -0.275 OA
ATOM     22  H   UNL     1       5.826  -1.951  -0.666  0.00  0.00    +0.149 HD
BRANCH  19  23
ATOM     23  C   UNL     1       4.080  -1.059  -1.480  0.00  0.00    +0.140 C 
BRANCH  23  24
ATOM     24  C   UNL     1       3.711  -0.707  -0.038  0.00  0.00    +0.162 C 
BRANCH  24  28
ATOM     25  C   UNL     1      -0.017   1.378   0.010  0.00  0.00    +0.000 A 
ATOM     26  C   UNL     1       1.171   2.086   0.002  0.00  0.00    +0.000 A 
ATOM     27  C   UNL     1       2.377   1.411  -0.013  0.00  0.00    +0.006 A 
ATOM     28  C   UNL     1       2.396   0.029  -0.020  0.00  0.00    -0.018 A 
ATOM     29  C   UNL     1       1.208  -0.679  -0.012  0.00  0.00    +0.006 A 
ATOM     30  C   UNL     1       0.002  -0.004   0.002  0.00  0.00    +0.000 A 
ENDBRANCH  24  28
BRANCH  24  31
ATOM     31  O   UNL     1       3.596  -1.907   0.731  0.00  0.00    -0.386 OA
ATOM     32  H   UNL     1       2.922  -2.519   0.405  0.00  0.00    +0.210 HD
ENDBRANCH  24  31
ENDBRANCH  23  24
ENDBRANCH  19  23
ENDBRANCH   1  20
TORSDOF 6
