REMARK  Name = ZINC50675822
REMARK  7 active torsions:
REMARK  status: ('A' for Active; 'I' for Inactive)
REMARK    1  A    between atoms: C_1  and  C_2
REMARK    2  A    between atoms: C_2  and  C_3
REMARK    3  A    between atoms: C_2  and  C_4
REMARK    4  A    between atoms: C_2  and  N_5
REMARK    5  A    between atoms: N_8  and  S_11
REMARK    6  A    between atoms: S_11  and  C_14
REMARK    7  A    between atoms: C_19  and  N_20
REMARK                            x       y       z     vdW  Elec       q    Type
REMARK                         _______ _______ _______ _____ _____    ______ ____
ROOT
ATOM      1  S   UNL     1       2.720   0.451  -4.276  0.00  0.00    +0.064 S 
ATOM      2  O   UNL     1       4.106   0.250  -4.034  0.00  0.00    -0.153 OA
ATOM      3  O   UNL     1       2.025  -0.215  -5.322  0.00  0.00    -0.153 OA
ENDROOT
BRANCH   1   7
ATOM      4  N   UNL     1       0.326   0.350  -0.600  0.00  0.00    +0.385 N 
ATOM      5  C   UNL     1      -0.300   0.327  -1.929  0.00  0.00    -0.061 C 
ATOM      6  C   UNL     1       0.573  -0.486  -2.889  0.00  0.00    +0.091 C 
ATOM      7  N   UNL     1       1.934   0.071  -2.869  0.00  0.00    -0.180 NA
ATOM      8  C   UNL     1       2.578   0.282  -1.563  0.00  0.00    +0.091 C 
ATOM      9  C   UNL     1       1.610   1.059  -0.664  0.00  0.00    -0.061 C 
ATOM     10  H   UNL     1       0.481  -0.597  -0.288  0.00  0.00    -0.081 HD
BRANCH   4  12
ATOM     11  C   UNL     1      -0.796   2.474  -0.123  0.00  0.00    -0.010 C 
ATOM     12  C   UNL     1      -0.563   1.036   0.346  0.00  0.00    -0.074 C 
ATOM     13  C   UNL     1       0.082   1.051   1.734  0.00  0.00    -0.010 C 
ATOM     14  C   UNL     1      -1.902   0.298   0.415  0.00  0.00    -0.010 C 
ENDBRANCH   4  12
ENDBRANCH   1   7
BRANCH   1  15
ATOM     15  C   UNL     1       2.502   2.178  -4.546  0.00  0.00    +0.146 A 
ATOM     16  C   UNL     1       3.581   3.041  -4.477  0.00  0.00    +0.048 A 
ATOM     17  C   UNL     1       3.362   4.395  -4.696  0.00  0.00    +0.038 A 
ATOM     18  C   UNL     1       2.084   4.837  -4.974  0.00  0.00    +0.128 A 
ATOM     19  N   UNL     1       1.073   3.991  -5.032  0.00  0.00    -0.238 NA
ATOM     20  C   UNL     1       1.242   2.692  -4.836  0.00  0.00    +0.143 A 
ATOM     21 BR   UNL     1       4.801   5.620  -4.614  0.00  0.00    -0.049 Br
BRANCH  20  22
ATOM     22  N   UNL     1       0.150   1.836  -4.914  0.00  0.00    -0.342 N 
ATOM     23  H   UNL     1       0.285   0.875  -4.901  0.00  0.00    +0.144 HD
ATOM     24  H   UNL     1      -0.747   2.199  -4.981  0.00  0.00    +0.144 HD
ENDBRANCH  20  22
ENDBRANCH   1  15
TORSDOF 4
