REMARK  Name = ZINC59286779
REMARK  9 active torsions:
REMARK  status: ('A' for Active; 'I' for Inactive)
REMARK    1  A    between atoms: C_1  and  C_2
REMARK    2  A    between atoms: C_5  and  C_36
REMARK    3  A    between atoms: N_8  and  C_10
REMARK    4  A    between atoms: C_10  and  C_11
REMARK    5  A    between atoms: C_16  and  C_17
REMARK    6  A    between atoms: C_17  and  N_18
REMARK    7  A    between atoms: C_19  and  C_21
REMARK    8  A    between atoms: C_21  and  C_22
REMARK    9  A    between atoms: C_22  and  C_23
REMARK                            x       y       z     vdW  Elec       q    Type
REMARK                         _______ _______ _______ _____ _____    ______ ____
ROOT
ATOM      1  N   UNL     1       2.228  -0.129   4.709  0.00  0.00    -0.311 N 
ATOM      2  C   UNL     1       1.379   0.656   5.402  0.00  0.00    +0.214 C 
ATOM      3  O   UNL     1       0.810   1.572   4.846  0.00  0.00    -0.276 OA
ATOM      4  H   UNL     1       2.684  -0.861   5.154  0.00  0.00    +0.149 HD
ENDROOT
BRANCH   1   5
ATOM      5  C   UNL     1       2.463   0.124   3.285  0.00  0.00    +0.139 C 
BRANCH   5  11
ATOM      6  C   UNL     1       3.041  -2.188   2.520  0.00  0.00    -0.059 A 
ATOM      7  C   UNL     1       3.941  -3.113   2.025  0.00  0.00    +0.002 A 
ATOM      8  C   UNL     1       5.246  -2.739   1.766  0.00  0.00    +0.000 A 
ATOM      9  C   UNL     1       5.651  -1.438   2.002  0.00  0.00    +0.000 A 
ATOM     10  C   UNL     1       4.752  -0.513   2.497  0.00  0.00    +0.005 A 
ATOM     11  C   UNL     1       3.445  -0.886   2.751  0.00  0.00    -0.029 A 
BRANCH   6  12
ATOM     12  C   UNL     1       1.618  -2.596   2.802  0.00  0.00    -0.043 C 
BRANCH  12  18
ATOM     13  C   UNL     1       1.374  -5.328  -1.253  0.00  0.00    +0.005 C 
ATOM     14  C   UNL     1       1.299  -5.353   0.275  0.00  0.00    -0.031 C 
ATOM     15  C   UNL     1      -0.060  -5.909   0.711  0.00  0.00    +0.003 C 
ATOM     16  C   UNL     1      -0.155  -5.856   2.239  0.00  0.00    -0.031 C 
ATOM     17  C   UNL     1       0.060  -4.415   2.708  0.00  0.00    -0.075 C 
ATOM     18  N   UNL     1       1.386  -3.951   2.283  0.00  0.00    +0.383 N 
ATOM     19  C   UNL     1       1.461  -3.931   0.817  0.00  0.00    -0.075 C 
ATOM     20  C   UNL     1       0.919  -6.758   2.849  0.00  0.00    +0.005 C 
ATOM     21  H   UNL     1       2.091  -4.574   2.646  0.00  0.00    -0.081 HD
ENDBRANCH  12  18
ENDBRANCH   6  12
ENDBRANCH   5  11
ENDBRANCH   1   5
BRANCH   2  22
ATOM     22  C   UNL     1       1.138   0.397   6.867  0.00  0.00    +0.105 C 
BRANCH  22  23
ATOM     23  C   UNL     1       0.141   1.422   7.409  0.00  0.00    +0.105 C 
BRANCH  23  24
ATOM     24  C   UNL     1      -0.101   1.163   8.873  0.00  0.00    +0.221 C 
ATOM     25  O   UNL     1       0.469   0.247   9.429  0.00  0.00    -0.275 OA
ATOM     26  N   UNL     1      -0.950   1.948   9.566  0.00  0.00    -0.261 N 
ATOM     27  C   UNL     1      -1.657   3.060   8.915  0.00  0.00    +0.209 C 
ATOM     28  C   UNL     1      -1.647   4.255   9.834  0.00  0.00    +0.235 C 
ATOM     29  O   UNL     1      -1.676   5.372   9.364  0.00  0.00    -0.274 OA
ATOM     30  N   UNL     1      -1.606   4.096  11.170  0.00  0.00    -0.283 N 
ATOM     31  C   UNL     1      -1.523   2.820  11.737  0.00  0.00    +0.055 A 
ATOM     32  C   UNL     1      -1.191   1.726  10.931  0.00  0.00    +0.058 A 
ATOM     33  C   UNL     1      -1.103   0.458  11.475  0.00  0.00    +0.025 A 
ATOM     34  C   UNL     1      -1.351   0.271  12.824  0.00  0.00    +0.002 A 
ATOM     35  C   UNL     1      -1.686   1.347  13.625  0.00  0.00    +0.002 A 
ATOM     36  C   UNL     1      -1.768   2.626  13.087  0.00  0.00    +0.025 A 
ATOM     37  H   UNL     1      -1.635   4.876  11.747  0.00  0.00    +0.155 HD
ENDBRANCH  23  24
ENDBRANCH  22  23
ENDBRANCH   2  22
TORSDOF 7
