REMARK  Name = ZINC39605880
REMARK  11 active torsions:
REMARK  status: ('A' for Active; 'I' for Inactive)
REMARK    1  A    between atoms: C_1  and  C_2
REMARK    2  A    between atoms: C_2  and  C_3
REMARK    3  A    between atoms: C_3  and  C_5
REMARK    4  A    between atoms: C_3  and  C_6
REMARK    5  A    between atoms: C_6  and  N_7
REMARK    6  A    between atoms: C_8  and  C_10
REMARK    7  A    between atoms: C_21  and  C_23
REMARK    8  A    between atoms: C_26  and  O_31
REMARK    9  A    between atoms: C_28  and  O_29
REMARK   10  A    between atoms: O_29  and  C_30
REMARK   11  A    between atoms: O_31  and  C_32
REMARK                            x       y       z     vdW  Elec       q    Type
REMARK                         _______ _______ _______ _____ _____    ______ ____
ROOT
ATOM      1  C   UNL     1      -4.428  -4.386   0.513  0.00  0.00    +0.100 C 
ATOM      2  C   UNL     1      -5.282  -3.950  -0.699  0.00  0.00    +0.121 C 
ATOM      3  N   UNL     1      -5.214  -5.095  -1.637  0.00  0.00    -0.296 N 
ATOM      4  C   UNL     1      -5.287  -6.291  -0.764  0.00  0.00    +0.115 C 
ATOM      5  C   UNL     1      -4.437  -5.923   0.469  0.00  0.00    -0.004 C 
ATOM      6  C   UNL     1      -3.016  -6.455   0.307  0.00  0.00    -0.010 C 
ATOM      7  C   UNL     1      -3.044  -7.986   0.323  0.00  0.00    -0.082 C 
ATOM      8  N   UNL     1      -3.621  -8.453   1.589  0.00  0.00    +0.379 N 
ATOM      9  C   UNL     1      -5.018  -8.015   1.694  0.00  0.00    -0.082 C 
ATOM     10  C   UNL     1      -5.074  -6.485   1.736  0.00  0.00    -0.010 C 
ATOM     11  C   UNL     1      -5.109  -5.058  -2.980  0.00  0.00    +0.250 C 
ATOM     12  O   UNL     1      -4.962  -3.993  -3.549  0.00  0.00    -0.270 OA
ATOM     13  H   UNL     1      -3.583  -9.461   1.623  0.00  0.00    -0.086 HD
ATOM     14  H   UNL     1      -3.092  -8.073   2.359  0.00  0.00    -0.086 HD
ENDROOT
BRANCH  11  15
ATOM     15  C   UNL     1      -5.173  -6.307  -3.759  0.00  0.00    +0.079 A 
ATOM     16  C   UNL     1      -6.006  -7.351  -3.344  0.00  0.00    +0.020 A 
ATOM     17  C   UNL     1      -6.064  -8.515  -4.074  0.00  0.00    +0.046 A 
ATOM     18  C   UNL     1      -5.295  -8.659  -5.225  0.00  0.00    +0.124 A 
ATOM     19  C   UNL     1      -4.466  -7.631  -5.645  0.00  0.00    +0.092 A 
ATOM     20  C   UNL     1      -4.404  -6.452  -4.922  0.00  0.00    +0.136 A 
BRANCH  20  21
ATOM     21  O   UNL     1      -3.597  -5.442  -5.335  0.00  0.00    -0.494 OA
ATOM     22  C   UNL     1      -2.842  -5.661  -6.529  0.00  0.00    +0.277 C 
ENDBRANCH  20  21
BRANCH  18  23
ATOM     23  O   UNL     1      -5.358  -9.812  -5.939  0.00  0.00    -0.495 OA
ATOM     24  C   UNL     1      -6.232 -10.831  -5.450  0.00  0.00    +0.277 C 
ENDBRANCH  18  23
ENDBRANCH  11  15
BRANCH   1  26
ATOM     25  N   UNL     1      -2.303  -3.571   1.480  0.00  0.00    -0.315 N 
ATOM     26  C   UNL     1      -3.021  -3.865   0.378  0.00  0.00    +0.218 C 
ATOM     27  O   UNL     1      -2.534  -3.709  -0.722  0.00  0.00    -0.275 OA
ATOM     28  H   UNL     1      -2.692  -3.696   2.360  0.00  0.00    +0.149 HD
BRANCH  25  29
ATOM     29  C   UNL     1      -0.934  -3.064   1.350  0.00  0.00    +0.107 C 
BRANCH  29  30
ATOM     30  C   UNL     1      -0.348  -2.814   2.740  0.00  0.00    +0.003 C 
ATOM     31  C   UNL     1      -1.131  -1.694   3.429  0.00  0.00    +0.009 C 
BRANCH  30  33
ATOM     32  C   UNL     1       1.740  -2.274   4.002  0.00  0.00    +0.004 C 
ATOM     33  C   UNL     1       1.120  -2.404   2.609  0.00  0.00    +0.001 C 
ENDBRANCH  30  33
ENDBRANCH  29  30
ENDBRANCH  25  29
ENDBRANCH   1  26
TORSDOF 7
