REMARK  Name = ZINC22938940
REMARK  5 active torsions:
REMARK  status: ('A' for Active; 'I' for Inactive)
REMARK    1  A    between atoms: C_4  and  C_7
REMARK    2  A    between atoms: C_7  and  C_8
REMARK    3  A    between atoms: N_10  and  N_11
REMARK    4  A    between atoms: C_13  and  C_23
REMARK    5  A    between atoms: C_23  and  C_24
REMARK                            x       y       z     vdW  Elec       q    Type
REMARK                         _______ _______ _______ _____ _____    ______ ____
ROOT
ATOM      1  C   UNL     1       3.127  -0.333   0.674  0.00  0.00    +0.013 C 
ATOM      2  C   UNL     1       3.327   0.958   1.462  0.00  0.00    +0.049 C 
ATOM      3  N   UNL     1       4.015   1.967   1.036  0.00  0.00    -0.158 NA
ATOM      4  C   UNL     1       2.620   0.917   2.814  0.00  0.00    +0.033 C 
ATOM      5  C   UNL     1       3.285  -0.207   3.609  0.00  0.00    -0.068 C 
ATOM      6  N   UNL     1       3.113  -1.493   2.928  0.00  0.00    +0.382 N 
ATOM      7  C   UNL     1       3.538  -1.501   1.552  0.00  0.00    -0.064 C 
ATOM      8  C   UNL     1       1.820  -2.039   3.256  0.00  0.00    -0.063 C 
ATOM      9  C   UNL     1       0.750  -1.752   2.247  0.00  0.00    +0.066 C 
ATOM     10  N   UNL     1       0.899  -0.461   1.631  0.00  0.00    -0.303 NA
ATOM     11  C   UNL     1       1.619  -0.427   0.381  0.00  0.00    +0.095 C 
ATOM     12  C   UNL     1       1.143   0.633   2.561  0.00  0.00    +0.092 C 
ATOM     13  H   UNL     1       3.763  -2.109   3.393  0.00  0.00    -0.082 HD
ENDROOT
BRANCH   3  14
ATOM     14  N   UNL     1       4.303   3.033   1.899  0.00  0.00    -0.158 NA
ATOM     15  C   UNL     1       4.115   4.251   1.506  0.00  0.00    +0.049 C 
ATOM     16  C   UNL     1       4.523   5.481   2.311  0.00  0.00    +0.013 C 
ATOM     17  C   UNL     1       3.214   6.210   2.651  0.00  0.00    -0.064 C 
ATOM     18  N   UNL     1       2.535   6.591   1.440  0.00  0.00    +0.382 N 
ATOM     19  C   UNL     1       2.269   5.529   0.491  0.00  0.00    -0.068 C 
ATOM     20  C   UNL     1       3.466   4.631   0.178  0.00  0.00    +0.033 C 
ATOM     21  C   UNL     1       4.538   5.364  -0.630  0.00  0.00    +0.092 C 
ATOM     22  N   UNL     1       4.952   6.587   0.080  0.00  0.00    -0.303 NA
ATOM     23  C   UNL     1       5.378   6.370   1.425  0.00  0.00    +0.095 C 
ATOM     24  C   UNL     1       4.012   7.644  -0.198  0.00  0.00    +0.066 C 
ATOM     25  C   UNL     1       2.950   7.831   0.843  0.00  0.00    -0.063 C 
ATOM     26  H   UNL     1       1.607   6.810   1.769  0.00  0.00    -0.082 HD
BRANCH  16  27
ATOM     27  C   UNL     1       5.285   5.077   3.575  0.00  0.00    +0.047 C 
BRANCH  27  28
ATOM     28  C   UNL     1       6.601   4.452   3.190  0.00  0.00    -0.047 A 
ATOM     29  C   UNL     1       6.699   3.080   3.049  0.00  0.00    +0.003 A 
ATOM     30  C   UNL     1       7.907   2.506   2.696  0.00  0.00    +0.000 A 
ATOM     31  C   UNL     1       9.015   3.304   2.483  0.00  0.00    +0.000 A 
ATOM     32  C   UNL     1       8.916   4.676   2.623  0.00  0.00    +0.000 A 
ATOM     33  C   UNL     1       7.708   5.250   2.972  0.00  0.00    +0.003 A 
ENDBRANCH  27  28
ENDBRANCH  16  27
ENDBRANCH   3  14
BRANCH   1  34
ATOM     34  C   UNL     1       3.937  -0.313  -0.624  0.00  0.00    +0.047 C 
BRANCH  34  38
ATOM     35  C   UNL     1       2.376   2.688  -3.233  0.00  0.00    +0.000 A 
ATOM     36  C   UNL     1       3.510   2.944  -2.485  0.00  0.00    +0.000 A 
ATOM     37  C   UNL     1       4.015   1.973  -1.641  0.00  0.00    +0.003 A 
ATOM     38  C   UNL     1       3.386   0.746  -1.544  0.00  0.00    -0.047 A 
ATOM     39  C   UNL     1       2.251   0.490  -2.291  0.00  0.00    +0.003 A 
ATOM     40  C   UNL     1       1.747   1.460  -3.136  0.00  0.00    +0.000 A 
ENDBRANCH  34  38
ENDBRANCH   1  34
TORSDOF 5
