REMARK  Name = ZINC03595883
REMARK  6 active torsions:
REMARK  status: ('A' for Active; 'I' for Inactive)
REMARK    1  A    between atoms: C_1  and  C_2
REMARK    2  A    between atoms: C_4  and  C_26
REMARK    3  A    between atoms: C_6  and  N_8
REMARK    4  A    between atoms: C_9  and  C_11
REMARK    5  A    between atoms: C_11  and  N_12
REMARK    6  A    between atoms: C_20  and  C_22
REMARK                            x       y       z     vdW  Elec       q    Type
REMARK                         _______ _______ _______ _____ _____    ______ ____
ROOT
ATOM      1  N   UNL     1       1.363   1.980   0.362  0.00  0.00    -0.215 N 
ATOM      2  C   UNL     1       1.917   2.237   1.566  0.00  0.00    +0.247 C 
ATOM      3  O   UNL     1       1.398   2.110   2.654  0.00  0.00    -0.273 OA
ATOM      4  C   UNL     1       3.320   2.713   1.271  0.00  0.00    +0.115 C 
ATOM      5  C   UNL     1       4.348   1.773   1.892  0.00  0.00    +0.035 C 
ATOM      6  C   UNL     1       4.215   1.803   3.416  0.00  0.00    +0.003 C 
ATOM      7  C   UNL     1       4.436   3.231   3.919  0.00  0.00    +0.000 C 
ATOM      8  C   UNL     1       3.384   4.157   3.307  0.00  0.00    +0.006 C 
ATOM      9  C   UNL     1       3.513   4.137   1.782  0.00  0.00    +0.018 C 
ATOM     10  C   UNL     1       2.447   5.047   1.168  0.00  0.00    +0.010 C 
ATOM     11  N   UNL     1       3.409   2.677  -0.195  0.00  0.00    -0.285 N 
ATOM     12  C   UNL     1       2.216   2.235  -0.637  0.00  0.00    +0.310 C 
ATOM     13  O   UNL     1       1.945   2.084  -1.812  0.00  0.00    -0.252 OA
ATOM     14  H   UNL     1       4.175   2.922  -0.736  0.00  0.00    +0.151 HD
ENDROOT
BRANCH   1  15
ATOM     15  C   UNL     1      -0.004   1.489   0.173  0.00  0.00    +0.214 C 
BRANCH  15  17
ATOM     16  N   UNL     1      -1.156  -0.694   0.009  0.00  0.00    -0.284 N 
ATOM     17  C   UNL     1      -0.001  -0.018   0.170  0.00  0.00    +0.235 C 
ATOM     18  O   UNL     1       1.041  -0.622   0.312  0.00  0.00    -0.274 OA
ATOM     19  H   UNL     1      -1.998  -0.213  -0.028  0.00  0.00    +0.155 HD
BRANCH  16  25
ATOM     20  C   UNL     1      -3.315  -5.032   0.840  0.00  0.00    +0.044 C 
ATOM     21  C   UNL     1      -2.174  -4.216   0.290  0.00  0.00    -0.048 A 
ATOM     22  C   UNL     1      -1.109  -4.846  -0.327  0.00  0.00    +0.006 A 
ATOM     23  C   UNL     1      -0.060  -4.101  -0.833  0.00  0.00    -0.048 A 
ATOM     24  C   UNL     1      -0.072  -2.724  -0.724  0.00  0.00    +0.026 A 
ATOM     25  C   UNL     1      -1.140  -2.088  -0.104  0.00  0.00    +0.034 A 
ATOM     26  C   UNL     1      -2.190  -2.840   0.408  0.00  0.00    +0.026 A 
ATOM     27  C   UNL     1       1.099  -4.792  -1.506  0.00  0.00    +0.044 C 
ENDBRANCH  16  25
ENDBRANCH  15  17
ENDBRANCH   1  15
TORSDOF 3
