REMARK  Name = ZINC48974697
REMARK  3 active torsions:
REMARK  status: ('A' for Active; 'I' for Inactive)
REMARK    1  A    between atoms: C_10  and  N_12
REMARK    2  A    between atoms: C_13  and  C_15
REMARK    3  A    between atoms: C_18  and  N_20
REMARK                            x       y       z     vdW  Elec       q    Type
REMARK                         _______ _______ _______ _____ _____    ______ ____
ROOT
ATOM      1  C   UNL     1      -0.017   1.377   0.010  0.00  0.00    +0.003 A 
ATOM      2  C   UNL     1       1.171   2.084   0.002  0.00  0.00    +0.006 A 
ATOM      3  C   UNL     1       2.382   1.413  -0.013  0.00  0.00    -0.021 A 
ATOM      4  C   UNL     1       2.403   0.031  -0.021  0.00  0.00    -0.007 A 
ATOM      5  C   UNL     1       1.211  -0.678  -0.013  0.00  0.00    +0.127 A 
ATOM      6  C   UNL     1       0.002  -0.004   0.002  0.00  0.00    +0.038 A 
ATOM      7  F   UNL     1       1.229  -2.028  -0.021  0.00  0.00    -0.205 F 
ATOM      8  C   UNL     1       3.835  -0.459  -0.038  0.00  0.00    +0.040 C 
ATOM      9  C   UNL     1       4.673   0.759  -0.480  0.00  0.00    +0.032 C 
ATOM     10  C   UNL     1       3.799   1.946  -0.025  0.00  0.00    +0.104 C 
ENDROOT
BRANCH  10  11
ATOM     11  N   UNL     1       4.189   2.379   1.319  0.00  0.00    -0.308 N 
ATOM     12  C   UNL     1       3.900   3.628   1.735  0.00  0.00    +0.219 C 
ATOM     13  O   UNL     1       3.316   4.393   0.998  0.00  0.00    -0.275 OA
ATOM     14  H   UNL     1       4.657   1.767   1.909  0.00  0.00    +0.149 HD
BRANCH  12  15
ATOM     15  C   UNL     1       4.302   4.074   3.118  0.00  0.00    +0.106 C 
ATOM     16  C   UNL     1       5.401   5.133   3.227  0.00  0.00    +0.047 C 
ATOM     17  C   UNL     1       3.947   5.503   3.530  0.00  0.00    +0.182 C 
BRANCH  17  18
ATOM     18  N   UNL     1       3.586   5.733   4.931  0.00  0.00    +0.026 N 
ATOM     19  O   UNL     1       4.378   5.478   5.809  0.00  0.00    -0.131 OA
ATOM     20  O   UNL     1       2.497   6.178   5.210  0.00  0.00    -0.131 OA
ENDBRANCH  17  18
ENDBRANCH  12  15
ENDBRANCH  10  11
TORSDOF 3
