REMARK  Name = ZINC62038748
REMARK  10 active torsions:
REMARK  status: ('A' for Active; 'I' for Inactive)
REMARK    1  A    between atoms: C_1  and  C_2
REMARK    2  A    between atoms: C_5  and  C_8
REMARK    3  A    between atoms: C_9  and  C_34
REMARK    4  A    between atoms: C_16  and  S_18
REMARK    5  A    between atoms: S_18  and  C_19
REMARK    6  A    between atoms: C_19  and  C_21
REMARK    7  A    between atoms: C_19  and  C_22
REMARK    8  A    between atoms: N_24  and  C_25
REMARK    9  A    between atoms: C_27  and  C_32
REMARK   10  A    between atoms: C_30  and  O_31
REMARK                            x       y       z     vdW  Elec       q    Type
REMARK                         _______ _______ _______ _____ _____    ______ ____
ROOT
ATOM      1  C   UNL     1       0.098  -4.233  -0.077  0.00  0.00    +0.007 A 
ATOM      2  C   UNL     1      -0.949  -4.931  -0.580  0.00  0.00    -0.003 A 
ATOM      3  S   UNL     1      -0.451  -6.629  -0.357  0.00  0.00    -0.075 S 
ATOM      4  C   UNL     1       1.131  -6.357   0.395  0.00  0.00    +0.093 A 
ATOM      5  C   UNL     1       1.241  -4.967   0.452  0.00  0.00    +0.080 A 
ATOM      6  C   UNL     1       2.497  -4.454   1.046  0.00  0.00    +0.283 A 
ATOM      7  O   UNL     1       2.686  -3.252   1.145  0.00  0.00    -0.265 OA
ATOM      8  N   UNL     1       3.422  -5.320   1.472  0.00  0.00    -0.185 NA
ATOM      9  C   UNL     1       3.260  -6.623   1.385  0.00  0.00    +0.171 A 
ATOM     10  N   UNL     1       2.124  -7.164   0.860  0.00  0.00    -0.328 N 
ATOM     11  C   UNL     1      -2.225  -4.402  -1.181  0.00  0.00    +0.052 C 
ATOM     12  H   UNL     1       2.029  -8.128   0.807  0.00  0.00    +0.168 HD
ENDROOT
BRANCH   1  17
ATOM     13  C   UNL     1       0.041   1.525  -0.055  0.00  0.00    +0.044 C 
ATOM     14  C   UNL     1       0.056   0.018  -0.061  0.00  0.00    -0.050 A 
ATOM     15  C   UNL     1       0.065  -0.666  -1.263  0.00  0.00    +0.004 A 
ATOM     16  C   UNL     1       0.079  -2.046  -1.275  0.00  0.00    +0.009 A 
ATOM     17  C   UNL     1       0.083  -2.750  -0.071  0.00  0.00    -0.016 A 
ATOM     18  C   UNL     1       0.074  -2.055   1.137  0.00  0.00    +0.009 A 
ATOM     19  C   UNL     1       0.066  -0.675   1.136  0.00  0.00    +0.004 A 
ENDBRANCH   1  17
BRANCH   9  20
ATOM     20  S   UNL     1       4.532  -7.691   1.973  0.00  0.00    -0.075 S 
BRANCH  20  21
ATOM     21  C   UNL     1       5.811  -6.557   2.581  0.00  0.00    +0.137 C 
ATOM     22  C   UNL     1       6.378  -5.753   1.410  0.00  0.00    +0.029 C 
BRANCH  21  23
ATOM     23  C   UNL     1       6.917  -7.349   3.229  0.00  0.00    +0.230 C 
ATOM     24  O   UNL     1       7.107  -8.502   2.906  0.00  0.00    -0.274 OA
ATOM     25  N   UNL     1       7.695  -6.775   4.169  0.00  0.00    -0.282 N 
ATOM     26  H   UNL     1       7.586  -5.835   4.381  0.00  0.00    +0.155 HD
BRANCH  25  27
ATOM     27  C   UNL     1       8.662  -7.537   4.839  0.00  0.00    +0.076 A 
ATOM     28  C   UNL     1       9.333  -8.544   4.171  0.00  0.00    +0.038 A 
ATOM     29  C   UNL     1      10.298  -9.302   4.845  0.00  0.00    +0.016 A 
ATOM     30  C   UNL     1      10.578  -9.036   6.191  0.00  0.00    +0.015 A 
ATOM     31  C   UNL     1       9.905  -8.031   6.848  0.00  0.00    +0.048 A 
ATOM     32  C   UNL     1       8.952  -7.275   6.179  0.00  0.00    +0.138 A 
BRANCH  32  33
ATOM     33  O   UNL     1       8.296  -6.281   6.832  0.00  0.00    -0.505 OA
ATOM     34  H   UNL     1       7.482  -6.568   7.268  0.00  0.00    +0.292 HD
ENDBRANCH  32  33
BRANCH  29  35
ATOM     35  C   UNL     1      11.014 -10.374   4.141  0.00  0.00    +0.258 C 
ATOM     36  O   UNL     1      11.850 -11.031   4.726  0.00  0.00    -0.296 OA
ENDBRANCH  29  35
ENDBRANCH  25  27
ENDBRANCH  21  23
ENDBRANCH  20  21
ENDBRANCH   9  20
TORSDOF 7
