REMARK  Name = ZINC49980401
REMARK  3 active torsions:
REMARK  status: ('A' for Active; 'I' for Inactive)
REMARK    1  A    between atoms: C_7  and  N_16
REMARK    2  A    between atoms: C_9  and  C_11
REMARK    3  A    between atoms: N_16  and  C_17
REMARK                            x       y       z     vdW  Elec       q    Type
REMARK                         _______ _______ _______ _____ _____    ______ ____
ROOT
ATOM      1  C   UNL     1      -0.017   1.360   0.016  0.00  0.00    +0.001 A 
ATOM      2  C   UNL     1       1.167   2.091   0.078  0.00  0.00    +0.002 A 
ATOM      3  C   UNL     1       2.377   1.465   0.128  0.00  0.00    +0.028 A 
ATOM      4  C   UNL     1       2.433   0.064   0.117  0.00  0.00    +0.077 A 
ATOM      5  C   UNL     1       1.227  -0.677   0.055  0.00  0.00    +0.040 A 
ATOM      6  C   UNL     1       0.002  -0.004   0.004  0.00  0.00    +0.013 A 
ATOM      7  C   UNL     1       1.306  -2.093   0.046  0.00  0.00    +0.131 A 
ATOM      8  N   UNL     1       2.503  -2.656   0.096  0.00  0.00    -0.212 NA
ATOM      9  C   UNL     1       3.615  -1.921   0.154  0.00  0.00    +0.169 A 
ATOM     10  N   UNL     1       3.596  -0.598   0.165  0.00  0.00    -0.227 NA
ENDROOT
BRANCH   9  11
ATOM     11  C   UNL     1       4.917  -2.610   0.208  0.00  0.00    +0.056 A 
ATOM     12  C   UNL     1       6.177  -2.074   0.277  0.00  0.00    +0.019 A 
ATOM     13  C   UNL     1       7.257  -2.924   0.319  0.00  0.00    +0.008 A 
ATOM     14  C   UNL     1       7.045  -4.266   0.290  0.00  0.00    +0.046 A 
ATOM     15  S   UNL     1       5.264  -4.362   0.210  0.00  0.00    -0.094 S 
ENDBRANCH   9  11
BRANCH   7  16
ATOM     16  N   UNL     1       0.165  -2.864  -0.013  0.00  0.00    -0.317 N 
ATOM     17  H   UNL     1      -0.706  -2.439  -0.050  0.00  0.00    +0.148 HD
BRANCH  16  18
ATOM     18  C   UNL     1       0.268  -4.326  -0.022  0.00  0.00    +0.158 C 
ATOM     19  C   UNL     1      -1.059  -4.932  -0.486  0.00  0.00    +0.032 C 
ATOM     20  C   UNL     1      -2.230  -4.098  -0.000  0.00  0.00    +0.004 C 
ATOM     21  C   UNL     1      -2.410  -4.113   1.507  0.00  0.00    +0.019 C 
ATOM     22  C   UNL     1      -1.244  -3.409   2.203  0.00  0.00    +0.104 C 
ATOM     23  N   UNL     1      -0.162  -4.385   2.411  0.00  0.00    -0.314 N 
ATOM     24  C   UNL     1       0.565  -4.823   1.377  0.00  0.00    +0.233 C 
ATOM     25  O   UNL     1       1.459  -5.623   1.558  0.00  0.00    -0.274 OA
ATOM     26  H   UNL     1       0.028  -4.711   3.304  0.00  0.00    +0.149 HD
ENDBRANCH  16  18
ENDBRANCH   7  16
TORSDOF 3
